# generated using pymatgen
data_ZnH3C12N2(O2F)2
_symmetry_space_group_name_H-M   'P 1'
_cell_length_a   8.53949300
_cell_length_b   12.72274300
_cell_length_c   14.37050900
_cell_angle_alpha   90.89131200
_cell_angle_beta   90.06293300
_cell_angle_gamma   95.46214300
_symmetry_Int_Tables_number   1
_chemical_formula_structural   ZnH3C12N2(O2F)2
_chemical_formula_sum   'Zn2 H6 C24 N4 O8 F4'
_cell_volume   1554.01245453
_cell_formula_units_Z   2
loop_
 _symmetry_equiv_pos_site_id
 _symmetry_equiv_pos_as_xyz
  1  'x, y, z'
loop_
 _atom_site_type_symbol
 _atom_site_label
 _atom_site_symmetry_multiplicity
 _atom_site_fract_x
 _atom_site_fract_y
 _atom_site_fract_z
 _atom_site_occupancy
  Zn  Zn1  1  0.50245000  0.51332000  0.89716100  1
  Zn  Zn2  1  0.49755000  0.48668000  0.10283900  1
  H  H1  1  0.79304900  0.84908500  0.99886800  1
  H  H2  1  0.20695100  0.15091500  0.00113100  1
  H  H3  1  0.01547300  0.57184800  0.04572900  1
  H  H4  1  0.98452700  0.42815200  0.95427100  1
  H  H5  1  0.47990000  0.34241500  0.59767900  1
  H  H6  1  0.52009900  0.65758500  0.40232100  1
  C  C1  1  0.17054000  0.70871400  0.02065800  1
  C  C2  1  0.82946000  0.29128600  0.97934100  1
  C  C3  1  0.18273000  0.81611000  0.00524300  1
  C  C4  1  0.81727000  0.18389000  0.99475700  1
  C  C5  1  0.04837100  0.86943200  0.00346400  1
  C  C6  1  0.95162900  0.13056700  0.99653600  1
  C  C7  1  0.90136100  0.81270500  0.00761300  1
  C  C8  1  0.09863900  0.18729500  0.99238700  1
  C  C9  1  0.89100300  0.70569300  0.02243600  1
  C  C10  1  0.10899700  0.29430700  0.97756400  1
  C  C11  1  0.02496700  0.65562800  0.03404900  1
  C  C12  1  0.97503300  0.34437200  0.96595100  1
  C  C13  1  0.74128500  0.64108600  0.01533200  1
  C  C14  1  0.25871400  0.35891400  0.98466800  1
  C  C15  1  0.69505700  0.35421400  0.98587500  1
  C  C16  1  0.30494300  0.64578500  0.01412400  1
  C  C17  1  0.48633900  0.40062800  0.45906900  1
  C  C18  1  0.51366100  0.59937200  0.54093100  1
  C  C19  1  0.49755600  0.48900700  0.40435600  1
  C  C20  1  0.50244300  0.51099300  0.59564300  1
  C  C21  1  0.51123500  0.58830700  0.44530700  1
  C  C22  1  0.48876500  0.41169300  0.55469300  1
  C  C23  1  0.49555800  0.47866500  0.30475800  1
  C  C24  1  0.50444200  0.52133500  0.69524200  1
  N  N1  1  0.06376300  0.98056600  0.99508500  1
  N  N2  1  0.93623700  0.01943400  0.00491400  1
  N  N3  1  0.50537900  0.52643500  0.77570200  1
  N  N4  1  0.49462100  0.47356500  0.22429800  1
  O  O1  1  0.68457400  0.59462100  0.09048200  1
  O  O2  1  0.31542600  0.40537900  0.90951800  1
  O  O3  1  0.68289800  0.62048200  0.93182800  1
  O  O4  1  0.31710100  0.37951800  0.06817200  1
  O  O5  1  0.65364700  0.40211500  0.91074000  1
  O  O6  1  0.34635200  0.59788500  0.08926000  1
  O  O7  1  0.64314000  0.37629800  0.06926200  1
  O  O8  1  0.35686000  0.62370100  0.93073800  1
  F  F1  1  0.32608600  0.86970400  0.99372100  1
  F  F2  1  0.67391400  0.13029600  0.00627900  1
  F  F3  1  0.47299300  0.30306300  0.41900300  1
  F  F4  1  0.52700700  0.69693700  0.58099700  1
