# generated using pymatgen
data_Cu(C3O2)2
_symmetry_space_group_name_H-M   'P 1'
_cell_length_a   21.99705200
_cell_length_b   16.04460300
_cell_length_c   25.20170200
_cell_angle_alpha   90.06012500
_cell_angle_beta   90.04744900
_cell_angle_gamma   46.72880400
_symmetry_Int_Tables_number   1
_chemical_formula_structural   Cu(C3O2)2
_chemical_formula_sum   'Cu8 C48 O32'
_cell_volume   6476.26364794
_cell_formula_units_Z   8
loop_
 _symmetry_equiv_pos_site_id
 _symmetry_equiv_pos_as_xyz
  1  'x, y, z'
loop_
 _atom_site_type_symbol
 _atom_site_label
 _atom_site_symmetry_multiplicity
 _atom_site_fract_x
 _atom_site_fract_y
 _atom_site_fract_z
 _atom_site_occupancy
  Cu  Cu1  1  0.45386400  0.59226000  0.53958800  1
  Cu  Cu2  1  0.52099600  0.45779900  0.46497800  1
  Cu  Cu3  1  0.01765900  0.46451000  0.42065400  1
  Cu  Cu4  1  0.08479700  0.33005600  0.34604200  1
  Cu  Cu5  1  0.45370300  0.59219000  0.84607500  1
  Cu  Cu6  1  0.52096000  0.45786100  0.92065100  1
  Cu  Cu7  1  0.01765300  0.46445600  0.96498100  1
  Cu  Cu8  1  0.08489100  0.33012900  0.03955900  1
  C  C1  1  0.39498200  0.70982900  0.44337400  1
  C  C2  1  0.61024800  0.51834200  0.49370900  1
  C  C3  1  0.56740500  0.36508400  0.57569400  1
  C  C4  1  0.37123500  0.51844000  0.49371100  1
  C  C5  1  0.97124400  0.55723100  0.30993700  1
  C  C6  1  0.16741100  0.40389400  0.39192500  1
  C  C7  1  0.14366900  0.21247600  0.44225300  1
  C  C8  1  0.92840900  0.40397500  0.39192300  1
  C  C9  1  0.56735900  0.36496700  0.80990800  1
  C  C10  1  0.61012500  0.51842100  0.89194100  1
  C  C11  1  0.39494300  0.70993600  0.94231000  1
  C  C12  1  0.37121900  0.51830100  0.89194700  1
  C  C13  1  0.14368700  0.21238100  0.94332300  1
  C  C14  1  0.16740200  0.40398800  0.99370300  1
  C  C15  1  0.97127300  0.55734700  0.07572700  1
  C  C16  1  0.92847200  0.40391100  0.99368100  1
  C  C17  1  0.23276700  0.40494900  0.39741600  1
  C  C18  1  0.25577300  0.44034100  0.42599700  1
  C  C19  1  0.28286800  0.48200300  0.45964300  1
  C  C20  1  0.30587400  0.51739500  0.48822300  1
  C  C21  1  0.34431200  0.81111600  0.41050000  1
  C  C22  1  0.29713400  0.90550800  0.43093300  1
  C  C23  1  0.24151200  0.01679600  0.45469100  1
  C  C24  1  0.19433500  0.11118700  0.47512500  1
  C  C25  1  0.67666300  0.51725800  0.48820800  1
  C  C26  1  0.73499100  0.48194200  0.45963400  1
  C  C27  1  0.80366900  0.44036800  0.42599600  1
  C  C28  1  0.86199700  0.40505100  0.39742200  1
  C  C29  1  0.61171900  0.27627500  0.76958000  1
  C  C30  1  0.61170100  0.27635800  0.72123200  1
  C  C31  1  0.61169700  0.27642200  0.66434400  1
  C  C32  1  0.61170800  0.27644700  0.61599600  1
  C  C33  1  0.92692200  0.64604300  0.11605300  1
  C  C34  1  0.92694100  0.64596000  0.16440100  1
  C  C35  1  0.92694500  0.64589700  0.22128900  1
  C  C36  1  0.92693500  0.64587200  0.26963700  1
  C  C37  1  0.23273400  0.40507200  0.98820500  1
  C  C38  1  0.25575500  0.44036700  0.95964100  1
  C  C39  1  0.28286900  0.48191500  0.92601500  1
  C  C40  1  0.30589000  0.51721000  0.89745100  1
  C  C41  1  0.34429700  0.81128600  0.97520300  1
  C  C42  1  0.29712700  0.90557300  0.95472200  1
  C  C43  1  0.24151200  0.01674300  0.93091300  1
  C  C44  1  0.19434300  0.11102900  0.91043200  1
  C  C45  1  0.86205700  0.40497400  0.98818600  1
  C  C46  1  0.80367000  0.44034900  0.95962100  1
  C  C47  1  0.73492300  0.48199300  0.92599500  1
  C  C48  1  0.67653600  0.51737000  0.89743100  1
  O  O1  1  0.38795000  0.72397700  0.49473500  1
  O  O2  1  0.44744700  0.60486500  0.42289700  1
  O  O3  1  0.55131200  0.57994300  0.53069100  1
  O  O4  1  0.60863500  0.45738100  0.46042000  1
  O  O5  1  0.51412800  0.47171400  0.59136500  1
  O  O6  1  0.57945900  0.34091400  0.52410400  1
  O  O7  1  0.36867800  0.58001200  0.53069300  1
  O  O8  1  0.43372900  0.45746300  0.46041500  1
  O  O9  1  0.95919600  0.58139500  0.36152800  1
  O  O10  1  0.02452200  0.45060300  0.29426500  1
  O  O11  1  0.10491300  0.46487100  0.42521900  1
  O  O12  1  0.16997900  0.34231300  0.35494400  1
  O  O13  1  0.09120900  0.31743800  0.46273100  1
  O  O14  1  0.15070000  0.19833300  0.39089100  1
  O  O15  1  0.93001300  0.46494400  0.42521200  1
  O  O16  1  0.98735000  0.34236900  0.35494400  1
  O  O17  1  0.51402700  0.47157000  0.79426800  1
  O  O18  1  0.57942900  0.34087800  0.86149200  1
  O  O19  1  0.55113400  0.57995500  0.85498100  1
  O  O20  1  0.60857900  0.45748800  0.92521400  1
  O  O21  1  0.38788300  0.72398800  0.89095300  1
  O  O22  1  0.44740900  0.60500900  0.96276300  1
  O  O23  1  0.36857400  0.57986400  0.85498600  1
  O  O24  1  0.43376800  0.45738900  0.92521400  1
  O  O25  1  0.09120800  0.31730700  0.92286800  1
  O  O26  1  0.15074800  0.19833300  0.99468100  1
  O  O27  1  0.10486100  0.46489400  0.96042900  1
  O  O28  1  0.17003300  0.34243800  0.03066500  1
  O  O29  1  0.95919300  0.58143200  0.02414200  1
  O  O30  1  0.02460600  0.45074500  0.09136900  1
  O  O31  1  0.93003400  0.46482900  0.96040800  1
  O  O32  1  0.98745300  0.34238300  0.03064700  1
