# generated using pymatgen
data_ZnH9C16NO7
_symmetry_space_group_name_H-M   'P 1'
_cell_length_a   14.01530200
_cell_length_b   14.09124400
_cell_length_c   15.20564500
_cell_angle_alpha   89.98853200
_cell_angle_beta   90.00485500
_cell_angle_gamma   85.34980100
_symmetry_Int_Tables_number   1
_chemical_formula_structural   ZnH9C16NO7
_chemical_formula_sum   'Zn2 H18 C32 N2 O14'
_cell_volume   2993.12377079
_cell_formula_units_Z   2
loop_
 _symmetry_equiv_pos_site_id
 _symmetry_equiv_pos_as_xyz
  1  'x, y, z'
loop_
 _atom_site_type_symbol
 _atom_site_label
 _atom_site_symmetry_multiplicity
 _atom_site_fract_x
 _atom_site_fract_y
 _atom_site_fract_z
 _atom_site_occupancy
  Zn  Zn1  1  0.60904600  0.49602300  0.49575100  1
  Zn  Zn2  1  0.39189600  0.49560500  0.49853300  1
  H  H1  1  0.60969500  0.98069400  0.49389900  1
  H  H2  1  0.39132800  0.01094200  0.50041600  1
  H  H3  1  0.64183600  0.43190900  0.05821900  1
  H  H4  1  0.37000800  0.43069500  0.93636000  1
  H  H5  1  0.64107400  0.43372400  0.21782700  1
  H  H6  1  0.37061000  0.43172300  0.77671400  1
  H  H7  1  0.25183400  0.34601800  0.51317100  1
  H  H8  1  0.75102500  0.59455600  0.59898800  1
  H  H9  1  0.22678000  0.64435400  0.48558400  1
  H  H10  1  0.76943600  0.39749700  0.39103200  1
  H  H11  1  0.05294800  0.64570100  0.48459400  1
  H  H12  1  0.94435400  0.39596700  0.39133000  1
  H  H13  1  0.29267800  0.51975100  0.22318600  1
  H  H14  1  0.70418700  0.52002400  0.77092000  1
  H  H15  1  0.35326700  0.64220900  0.04088600  1
  H  H16  1  0.62268800  0.64286900  0.95276900  1
  H  H17  1  0.06485200  0.31711400  0.57981300  1
  H  H18  1  0.94099100  0.56305800  0.66971300  1
  C  C1  1  0.49836900  0.49682000  0.32487200  1
  C  C2  1  0.50250600  0.49553200  0.66942300  1
  C  C3  1  0.51612100  0.30972700  0.49654000  1
  C  C4  1  0.48496700  0.68189800  0.49772800  1
  C  C5  1  0.47650400  0.78406200  0.49797600  1
  C  C6  1  0.52455000  0.20756800  0.49630800  1
  C  C7  1  0.46135400  0.97223400  0.49835000  1
  C  C8  1  0.53967000  0.01940000  0.49596200  1
  C  C9  1  0.53149600  0.12177700  0.49614200  1
  C  C10  1  0.46953700  0.86985500  0.49815600  1
  C  C11  1  0.57876900  0.46191400  0.09228600  1
  C  C12  1  0.42799800  0.46089200  0.90216800  1
  C  C13  1  0.57810400  0.46258300  0.18290400  1
  C  C14  1  0.42864200  0.46108800  0.81153800  1
  C  C15  1  0.49725200  0.49717500  0.22826000  1
  C  C16  1  0.50361900  0.49596500  0.76604600  1
  C  C17  1  0.41715300  0.53256400  0.18148500  1
  C  C18  1  0.57763000  0.53209300  0.81270000  1
  C  C19  1  0.41869600  0.53365700  0.09074700  1
  C  C20  1  0.57581300  0.53364800  0.90342300  1
  C  C21  1  0.49943200  0.49792300  0.04549700  1
  C  C22  1  0.50113300  0.49766400  0.94881400  1
  C  C23  1  0.10981600  0.41061300  0.50601700  1
  C  C24  1  0.89244400  0.55157000  0.55546600  1
  C  C25  1  0.20808300  0.41226600  0.50674200  1
  C  C26  1  0.79416300  0.55116300  0.55304400  1
  C  C27  1  0.19420800  0.57789700  0.49197500  1
  C  C28  1  0.80440300  0.44109700  0.43761000  1
  C  C29  1  0.09578100  0.57883300  0.49173700  1
  C  C30  1  0.90292400  0.43968600  0.43826500  1
  C  C31  1  0.05259800  0.49469400  0.49875900  1
  C  C32  1  0.94789100  0.49510400  0.49774500  1
  N  N1  1  0.24909900  0.49523100  0.49965400  1
  N  N2  1  0.75172800  0.49636000  0.49469400  1
  O  O1  1  0.58148100  0.49608900  0.36493000  1
  O  O2  1  0.41953300  0.49474200  0.62935400  1
  O  O3  1  0.41683300  0.49650600  0.36732100  1
  O  O4  1  0.58401200  0.49576600  0.62695700  1
  O  O5  1  0.59479400  0.35409400  0.49570300  1
  O  O6  1  0.40629500  0.63751700  0.49915800  1
  O  O7  1  0.43011100  0.35383000  0.49765400  1
  O  O8  1  0.57100300  0.63782600  0.49602700  1
  O  O9  1  0.33717300  0.57086300  0.22400200  1
  O  O10  1  0.65104600  0.57081400  0.77006400  1
  O  O11  1  0.34101700  0.57423700  0.04629300  1
  O  O12  1  0.64650000  0.57499800  0.94770400  1
  O  O13  1  0.07000300  0.32583200  0.51543200  1
  O  O14  1  0.93416300  0.60495600  0.61743600  1
