# generated using pymatgen
data_Cu2H52C61N2O11
_symmetry_space_group_name_H-M   'P 1'
_cell_length_a   14.46035000
_cell_length_b   15.86170300
_cell_length_c   17.37921000
_cell_angle_alpha   90.00686800
_cell_angle_beta   86.23145300
_cell_angle_gamma   89.92667200
_symmetry_Int_Tables_number   1
_chemical_formula_structural   Cu2H52C61N2O11
_chemical_formula_sum   'Cu2 H52 C61 N2 O11'
_cell_volume   3977.57331090
_cell_formula_units_Z   1
loop_
 _symmetry_equiv_pos_site_id
 _symmetry_equiv_pos_as_xyz
  1  'x, y, z'
loop_
 _atom_site_type_symbol
 _atom_site_label
 _atom_site_symmetry_multiplicity
 _atom_site_fract_x
 _atom_site_fract_y
 _atom_site_fract_z
 _atom_site_occupancy
  Cu  Cu1  1  0.40787400  0.50332700  0.48888100  1
  Cu  Cu2  1  0.59292900  0.50307700  0.48854700  1
  H  H1  1  0.62883000  0.47671700  0.72904700  1
  H  H2  1  0.36991700  0.51369400  0.24810200  1
  H  H3  1  0.66520100  0.49465300  0.24326000  1
  H  H4  1  0.60193500  0.51927100  0.98439100  1
  H  H5  1  0.32768800  0.50783600  0.87392600  1
  H  H6  1  0.37646000  0.51445500  0.11006200  1
  H  H7  1  0.33588700  0.51511300  0.73386200  1
  H  H8  1  0.39623300  0.47131200  0.99208400  1
  H  H9  1  0.62082400  0.46857200  0.86740500  1
  H  H10  1  0.67212500  0.49422200  0.10310200  1
  H  H11  1  0.48060500  0.93520400  0.36620100  1
  H  H12  1  0.63993800  0.93184200  0.52434000  1
  H  H13  1  0.63174700  0.93247100  0.42110000  1
  H  H14  1  0.63373900  0.07610900  0.42380400  1
  H  H15  1  0.63938400  0.07285700  0.52581100  1
  H  H16  1  0.38292500  0.93517900  0.57026500  1
  H  H17  1  0.49361800  0.92834400  0.61224000  1
  H  H18  1  0.39137900  0.07706300  0.58126100  1
  H  H19  1  0.37570500  0.92753500  0.42669000  1
  H  H20  1  0.36548700  0.06302500  0.45128800  1
  H  H21  1  0.50729200  0.07002200  0.61278900  1
  H  H22  1  0.06668400  0.36971600  0.49324200  1
  H  H23  1  0.91522300  0.36902600  0.47525800  1
  H  H24  1  0.92739300  0.44008300  0.59366800  1
  H  H25  1  0.07735900  0.45629300  0.60087600  1
  H  H26  1  0.07450100  0.56822300  0.59248700  1
  H  H27  1  0.93081000  0.57246100  0.38112400  1
  H  H28  1  0.92036800  0.63912200  0.46345200  1
  H  H29  1  0.08356500  0.58357200  0.38114300  1
  H  H30  1  0.92965500  0.42717900  0.38642200  1
  H  H31  1  0.07729000  0.63758000  0.47112600  1
  H  H32  1  0.32547400  0.16799700  0.37381600  1
  H  H33  1  0.34497600  0.24845100  0.25504500  1
  H  H34  1  0.54217600  0.27817300  0.05126600  1
  H  H35  1  0.55642900  0.16769400  0.07164600  1
  H  H36  1  0.61833400  0.24698800  0.12417400  1
  H  H37  1  0.59673000  0.11553900  0.19473700  1
  H  H38  1  0.57772900  0.03579800  0.31150400  1
  H  H39  1  0.81956800  0.47270800  0.68757000  1
  H  H40  1  0.74736600  0.57161700  0.78030000  1
  H  H41  1  0.74149500  0.84449000  0.83328500  1
  H  H42  1  0.76402300  0.84608900  0.73011000  1
  H  H43  1  0.85868800  0.83142000  0.79318300  1
  H  H44  1  0.89505400  0.77420100  0.66666667  1
  H  H45  1  0.96938300  0.67723300  0.57784500  1
  H  H46  1  0.02124300  0.27063800  0.39062100  1
  H  H47  1  0.07614600  0.21056800  0.26707900  1
  H  H48  1  0.25366000  0.27763300  0.05840300  1
  H  H49  1  0.31035400  0.33439500  0.13164500  1
  H  H50  1  0.20976900  0.37950300  0.08885200  1
  H  H51  1  0.23248900  0.43417300  0.21616800  1
  H  H52  1  0.18244400  0.49202300  0.33676500  1
  C  C1  1  0.50085500  0.66500300  0.48884600  1
  C  C2  1  0.48934600  0.50210100  0.63694100  1
  C  C3  1  0.49996800  0.34144400  0.48876800  1
  C  C4  1  0.51134900  0.50333700  0.34046100  1
  C  C5  1  0.48342000  0.49846400  0.72140000  1
  C  C6  1  0.56248000  0.48549300  0.76026100  1
  C  C7  1  0.55775400  0.48140700  0.83963800  1
  C  C8  1  0.47344100  0.49070000  0.88140600  1
  C  C9  1  0.39420300  0.50152000  0.84225000  1
  C  C10  1  0.39895700  0.50566900  0.76282300  1
  C  C11  1  0.44072200  0.50770300  0.13759100  1
  C  C12  1  0.43676900  0.50806200  0.21701600  1
  C  C13  1  0.60141800  0.49834600  0.21434100  1
  C  C14  1  0.60540400  0.49799000  0.13482300  1
  C  C15  1  0.52537100  0.50181600  0.09568200  1
  C  C16  1  0.46411100  0.48677900  0.96630900  1
  C  C17  1  0.53440200  0.50328600  0.01063400  1
  C  C18  1  0.51686400  0.50308900  0.25591800  1
  C  C19  1  0.44612900  0.95540000  0.42187200  1
  C  C20  1  0.59937000  0.95543900  0.47681400  1
  C  C21  1  0.59914400  0.05089800  0.47750800  1
  C  C22  1  0.50000700  0.25105200  0.48955900  1
  C  C23  1  0.50061000  0.92360400  0.48766500  1
  C  C24  1  0.43755700  0.05055800  0.42857000  1
  C  C25  1  0.50016200  0.08291800  0.48957000  1
  C  C26  1  0.46153000  0.05071700  0.56717800  1
  C  C27  1  0.45646200  0.95528200  0.56410600  1
  C  C28  1  0.50009100  0.17511300  0.48992700  1
  C  C29  1  0.50081400  0.83140600  0.48779800  1
  C  C30  1  0.50088100  0.75545300  0.48826500  1
  C  C31  1  0.94810800  0.42532100  0.44732400  1
  C  C32  1  0.94530900  0.50325700  0.57003800  1
  C  C33  1  0.05031000  0.50899300  0.56692800  1
  C  C34  1  0.91253300  0.50452200  0.48819400  1
  C  C35  1  0.05276700  0.41941600  0.45064900  1
  C  C36  1  0.08872600  0.50235600  0.48366300  1
  C  C37  1  0.05505500  0.57994200  0.44144200  1
  C  C38  1  0.95038300  0.57900400  0.44144700  1
  C  C39  1  0.18992600  0.50218100  0.48538100  1
  C  C40  1  0.81117300  0.50473400  0.48981000  1
  C  C41  1  0.45071400  0.09644700  0.35272700  1
  C  C42  1  0.38508300  0.15547700  0.33464400  1
  C  C43  1  0.39591100  0.20139400  0.26743600  1
  C  C44  1  0.47160500  0.18885200  0.21643500  1
  C  C45  1  0.55277200  0.23165100  0.09751900  1
  C  C46  1  0.53661200  0.12839600  0.23313100  1
  C  C47  1  0.52602000  0.08261900  0.30065900  1
  C  C48  1  0.89853000  0.56713800  0.62395000  1
  C  C49  1  0.83639500  0.53890000  0.68216200  1
  C  C50  1  0.79504300  0.59467700  0.73468500  1
  C  C51  1  0.81419800  0.67958300  0.73011700  1
  C  C52  1  0.78497800  0.81730100  0.78448900  1
  C  C53  1  0.87666900  0.70843500  0.67228600  1
  C  C54  1  0.91880600  0.65256300  0.62021600  1
  C  C55  1  0.09424700  0.38717400  0.37384100  1
  C  C56  1  0.06761300  0.30720200  0.35246700  1
  C  C57  1  0.09859100  0.27290400  0.28262500  1
  C  C58  1  0.15717400  0.31754600  0.23218400  1
  C  C59  1  0.24231700  0.32059800  0.10847800  1
  C  C60  1  0.18605200  0.39686800  0.25338600  1
  C  C61  1  0.15578300  0.43095100  0.32365300  1
  N  N1  1  0.26977700  0.50224900  0.48724300  1
  N  N2  1  0.73111500  0.50433700  0.49005400  1
  O  O1  1  0.42155700  0.62578800  0.48625700  1
  O  O2  1  0.58014000  0.62563300  0.49159200  1
  O  O3  1  0.41255400  0.50010300  0.60090800  1
  O  O4  1  0.57155700  0.50564100  0.60063400  1
  O  O5  1  0.42059800  0.38076100  0.48599400  1
  O  O6  1  0.57935200  0.38061400  0.49107200  1
  O  O7  1  0.42924800  0.50044800  0.37682800  1
  O  O8  1  0.58812900  0.50629100  0.37650600  1
  O  O9  1  0.47966000  0.23641600  0.15188200  1
  O  O10  1  0.77158100  0.73165800  0.78279500  1
  O  O11  1  0.18487900  0.28200600  0.16384900  1
