# generated using pymatgen
data_ZnH11C19N3O4
_symmetry_space_group_name_H-M   'P 1'
_cell_length_a   15.36496900
_cell_length_b   11.76673500
_cell_length_c   12.81616400
_cell_angle_alpha   90.18124500
_cell_angle_beta   90.00000000
_cell_angle_gamma   90.00000000
_symmetry_Int_Tables_number   1
_chemical_formula_structural   ZnH11C19N3O4
_chemical_formula_sum   'Zn2 H22 C38 N6 O8'
_cell_volume   2317.09342247
_cell_formula_units_Z   2
loop_
 _symmetry_equiv_pos_site_id
 _symmetry_equiv_pos_as_xyz
  1  'x, y, z'
loop_
 _atom_site_type_symbol
 _atom_site_label
 _atom_site_symmetry_multiplicity
 _atom_site_fract_x
 _atom_site_fract_y
 _atom_site_fract_z
 _atom_site_occupancy
  Zn  Zn1  1  0.50189100  0.50249600  0.88438100  1
  Zn  Zn2  1  0.49810900  0.49750400  0.11562000  1
  H  H1  1  0.13709300  0.80950700  0.15779500  1
  H  H2  1  0.86290700  0.19049200  0.84220500  1
  H  H3  1  0.26495100  0.68867100  0.15583300  1
  H  H4  1  0.73504900  0.31132900  0.84416700  1
  H  H5  1  0.19977800  0.93263700  0.85551800  1
  H  H6  1  0.80022200  0.06736200  0.14448200  1
  H  H7  1  0.30790600  0.22772600  0.15482100  1
  H  H8  1  0.69209400  0.77227400  0.84517900  1
  H  H9  1  0.27775900  0.29314700  0.82899100  1
  H  H10  1  0.72224100  0.70685200  0.17100900  1
  H  H11  1  0.18079600  0.10417800  0.15024700  1
  H  H12  1  0.81920400  0.89582200  0.84975300  1
  H  H13  1  0.00355800  0.79343000  0.02442200  1
  H  H14  1  0.99644200  0.20657000  0.97557800  1
  H  H15  1  0.31974800  0.87068300  0.77595400  1
  H  H16  1  0.40507800  0.85136500  0.85641900  1
  H  H17  1  0.68025200  0.12931700  0.22404600  1
  H  H18  1  0.59492200  0.14863500  0.14358100  1
  H  H19  1  0.17480000  0.19742500  0.74079700  1
  H  H20  1  0.08031600  0.21103300  0.80581600  1
  H  H21  1  0.82520000  0.80257500  0.25920300  1
  H  H22  1  0.91968400  0.78896700  0.19418400  1
  C  C1  1  0.30749500  0.74145600  0.00386100  1
  C  C2  1  0.69250500  0.25854400  0.99613900  1
  C  C3  1  0.07929700  0.94388800  0.00535000  1
  C  C4  1  0.92070300  0.05611100  0.99465000  1
  C  C5  1  0.18011700  0.81143700  0.09108200  1
  C  C6  1  0.81988300  0.18856300  0.90891800  1
  C  C7  1  0.28950900  0.81230900  0.91988100  1
  C  C8  1  0.71049000  0.18769100  0.08011900  1
  C  C9  1  0.25310600  0.74355300  0.08991100  1
  C  C10  1  0.74689400  0.25644700  0.91008900  1
  C  C11  1  0.16126100  0.88013800  0.00725400  1
  C  C12  1  0.83873800  0.11986200  0.99274600  1
  C  C13  1  0.21617600  0.88064900  0.92200100  1
  C  C14  1  0.78382400  0.11935100  0.07799900  1
  C  C15  1  0.30165100  0.26898600  0.99187700  1
  C  C16  1  0.69834900  0.73101400  0.00812300  1
  C  C17  1  0.07709200  0.06022900  0.98901200  1
  C  C18  1  0.92290800  0.93977100  0.01098800  1
  C  C19  1  0.18413200  0.18195300  0.89742100  1
  C  C20  1  0.81586800  0.81804700  0.10257900  1
  C  C21  1  0.27425200  0.21499600  0.08168000  1
  C  C22  1  0.72574800  0.78500300  0.91832000  1
  C  C23  1  0.25714200  0.25074600  0.89944000  1
  C  C24  1  0.74285800  0.74925400  0.10056000  1
  C  C25  1  0.15680000  0.12862700  0.98775400  1
  C  C26  1  0.84320000  0.87137300  0.01224600  1
  C  C27  1  0.20255500  0.14463300  0.07926400  1
  C  C28  1  0.79744400  0.85536700  0.92073600  1
  C  C29  1  0.00216500  0.88478400  0.01593000  1
  C  C30  1  0.99783500  0.11521600  0.98407000  1
  C  C31  1  0.62506800  0.65106500  0.00470900  1
  C  C32  1  0.37493200  0.34893500  0.99529100  1
  C  C33  1  0.62044300  0.34098600  0.99818200  1
  C  C34  1  0.37955700  0.65901400  0.00181900  1
  C  C35  1  0.50175800  0.50404100  0.65713900  1
  C  C36  1  0.49824200  0.49595900  0.34286100  1
  C  C37  1  0.50056300  0.50131800  0.54699500  1
  C  C38  1  0.49943700  0.49868200  0.45300500  1
  N  N1  1  0.50250000  0.50555100  0.74740500  1
  N  N2  1  0.49750000  0.49444800  0.25259500  1
  N  N3  1  0.34614700  0.81620700  0.83167500  1
  N  N4  1  0.65385300  0.18379300  0.16832500  1
  N  N5  1  0.13801600  0.16439200  0.80204500  1
  N  N6  1  0.86198400  0.83560800  0.19795500  1
  O  O1  1  0.59564000  0.60998500  0.09299000  1
  O  O2  1  0.40436000  0.39001500  0.90701000  1
  O  O3  1  0.59405200  0.62028200  0.91344200  1
  O  O4  1  0.40594800  0.37971800  0.08655800  1
  O  O5  1  0.59404000  0.38376600  0.90920400  1
  O  O6  1  0.40596000  0.61623400  0.09079600  1
  O  O7  1  0.58897600  0.37443600  0.08836700  1
  O  O8  1  0.41102400  0.62556400  0.91163300  1
