# generated using pymatgen
data_CuH10C14NO7
_symmetry_space_group_name_H-M   'P 1'
_cell_length_a   15.91112300
_cell_length_b   11.05071700
_cell_length_c   9.63384500
_cell_angle_alpha   90.02042700
_cell_angle_beta   90.01708800
_cell_angle_gamma   90.00354400
_symmetry_Int_Tables_number   1
_chemical_formula_structural   CuH10C14NO7
_chemical_formula_sum   'Cu2 H20 C28 N2 O14'
_cell_volume   1693.91220429
_cell_formula_units_Z   2
loop_
 _symmetry_equiv_pos_site_id
 _symmetry_equiv_pos_as_xyz
  1  'x, y, z'
loop_
 _atom_site_type_symbol
 _atom_site_label
 _atom_site_symmetry_multiplicity
 _atom_site_fract_x
 _atom_site_fract_y
 _atom_site_fract_z
 _atom_site_occupancy
  Cu  Cu1  1  0.50323500  0.49330300  0.63131300  1
  Cu  Cu2  1  0.50576200  0.48795200  0.35336800  1
  H  H1  1  0.05397900  0.31405700  0.36815300  1
  H  H2  1  0.95229300  0.31271100  0.60808400  1
  H  H3  1  0.94962000  0.49767900  0.25559100  1
  H  H4  1  0.95491200  0.67141400  0.61436700  1
  H  H5  1  0.05923500  0.48785300  0.72710600  1
  H  H6  1  0.51591300  0.88301600  0.27836200  1
  H  H7  1  0.49433200  0.89418900  0.59374000  1
  H  H8  1  0.51093500  0.10589400  0.28535200  1
  H  H9  1  0.50628600  0.08413300  0.60336300  1
  H  H10  1  0.39009500  0.55584900  0.12001100  1
  H  H11  1  0.54793200  0.42267800  0.09736600  1
  H  H12  1  0.32364200  0.17470300  0.68151700  1
  H  H13  1  0.25206200  0.29733100  0.71909100  1
  H  H14  1  0.28432300  0.19433900  0.85591800  1
  H  H15  1  0.55710200  0.86472800  0.99947300  1
  H  H16  1  0.63739100  0.79935000  0.89029700  1
  H  H17  1  0.62393500  0.74658400  0.06745800  1
  H  H18  1  0.24342200  0.81923600  0.27288500  1
  H  H19  1  0.15266700  0.90302800  0.33173000  1
  H  H20  1  0.14982200  0.82343700  0.16680300  1
  C  C1  1  0.50639900  0.25815500  0.49825800  1
  C  C2  1  0.34326100  0.48861600  0.48875400  1
  C  C3  1  0.50297100  0.72305500  0.48670900  1
  C  C4  1  0.66577400  0.49329800  0.49559800  1
  C  C5  1  0.97713900  0.39426200  0.55505400  1
  C  C6  1  0.03051500  0.39512700  0.42386500  1
  C  C7  1  0.25308000  0.48878100  0.48705400  1
  C  C8  1  0.75597000  0.49390600  0.49713000  1
  C  C9  1  0.03335200  0.49026400  0.62024600  1
  C  C10  1  0.08538400  0.49109300  0.48910700  1
  C  C11  1  0.97815500  0.58983900  0.55937200  1
  C  C12  1  0.92366000  0.49360300  0.49399500  1
  C  C13  1  0.03116900  0.58894600  0.42901900  1
  C  C14  1  0.97530900  0.49448100  0.36255200  1
  C  C15  1  0.17735000  0.48953100  0.48732500  1
  C  C16  1  0.83171000  0.49396200  0.49647700  1
  C  C17  1  0.50948900  0.92542400  0.37922900  1
  C  C18  1  0.50175600  0.85562500  0.49164400  1
  C  C19  1  0.50905700  0.05962200  0.38440600  1
  C  C20  1  0.50713000  0.12533000  0.50185000  1
  C  C21  1  0.43905800  0.47782300  0.92321500  1
  C  C22  1  0.44398200  0.51362300  0.07132400  1
  C  C23  1  0.36489000  0.40674100  0.88253700  1
  C  C24  1  0.30470200  0.24236000  0.76058400  1
  C  C25  1  0.56020200  0.58352100  0.88992500  1
  C  C26  1  0.59106800  0.78008800  0.97345300  1
  C  C27  1  0.06162000  0.69999800  0.35690200  1
  C  C28  1  0.17374400  0.82111800  0.27494700  1
  N  N1  1  0.50117500  0.49825000  0.83928200  1
  N  N2  1  0.50704600  0.48118800  0.14576600  1
  O  O1  1  0.50191900  0.31696900  0.61646600  1
  O  O2  1  0.50994800  0.31268700  0.37789000  1
  O  O3  1  0.38127200  0.49605300  0.60894900  1
  O  O4  1  0.38350700  0.48172100  0.37042000  1
  O  O5  1  0.49950600  0.66836300  0.60647200  1
  O  O6  1  0.50702800  0.66448000  0.36804300  1
  O  O7  1  0.62547900  0.49895400  0.61385400  1
  O  O8  1  0.62773000  0.48607300  0.37557700  1
  O  O9  1  0.29901700  0.42107200  0.94507500  1
  O  O10  1  0.37185200  0.31578800  0.79023100  1
  O  O11  1  0.63477100  0.55812300  0.89235500  1
  O  O12  1  0.53455000  0.69498600  0.92837700  1
  O  O13  1  0.01096200  0.77315900  0.31245300  1
  O  O14  1  0.14468500  0.71941000  0.34085500  1
