# generated using pymatgen
data_ZnH6C21N3O10
_symmetry_space_group_name_H-M   'P 1'
_cell_length_a   30.71035400
_cell_length_b   30.70752300
_cell_length_c   16.00465500
_cell_angle_alpha   80.01819800
_cell_angle_beta   80.01578000
_cell_angle_gamma   117.05620700
_symmetry_Int_Tables_number   1
_chemical_formula_structural   ZnH6C21N3O10
_chemical_formula_sum   'Zn6 H36 C126 N18 O60'
_cell_volume   12678.61729212
_cell_formula_units_Z   6
loop_
 _symmetry_equiv_pos_site_id
 _symmetry_equiv_pos_as_xyz
  1  'x, y, z'
loop_
 _atom_site_type_symbol
 _atom_site_label
 _atom_site_symmetry_multiplicity
 _atom_site_fract_x
 _atom_site_fract_y
 _atom_site_fract_z
 _atom_site_occupancy
  Zn  Zn1  1  0.49854900  0.70481700  0.71712400  1
  Zn  Zn2  1  0.20631200  0.50149200  0.21552500  1
  Zn  Zn3  1  0.29523600  0.79367800  0.42199500  1
  Zn  Zn4  1  0.29518600  0.50145700  0.28286300  1
  Zn  Zn5  1  0.49853100  0.79370600  0.78446000  1
  Zn  Zn6  1  0.20633900  0.70476300  0.57801100  1
  H  H1  1  0.91928200  0.15089700  0.18288300  1
  H  H2  1  0.23111600  0.08054200  0.10227900  1
  H  H3  1  0.84949100  0.76882300  0.33348000  1
  H  H4  1  0.84911000  0.08072500  0.81709900  1
  H  H5  1  0.91943100  0.76882600  0.89774400  1
  H  H6  1  0.23111400  0.15048200  0.66657200  1
  H  H7  1  0.85506600  0.08536600  0.30585700  1
  H  H8  1  0.22978800  0.14481900  0.16101800  1
  H  H9  1  0.91507900  0.77013300  0.39090100  1
  H  H10  1  0.91464000  0.14494200  0.69412400  1
  H  H11  1  0.85516200  0.77015400  0.83900600  1
  H  H12  1  0.22980200  0.08488500  0.60915100  1
  H  H13  1  0.78219100  0.04243600  0.91906000  1
  H  H14  1  0.26012000  0.21756300  0.70130800  1
  H  H15  1  0.95752400  0.73985100  0.96142200  1
  H  H16  1  0.95757400  0.21782200  0.08092200  1
  H  H17  1  0.78243300  0.73986700  0.29870000  1
  H  H18  1  0.26014100  0.04248200  0.03858900  1
  H  H19  1  0.68062400  0.87362000  0.32202400  1
  H  H20  1  0.19283400  0.31929700  0.00250200  1
  H  H21  1  0.12651400  0.80709500  0.19549300  1
  H  H22  1  0.12637800  0.31937800  0.67795800  1
  H  H23  1  0.68070100  0.80714900  0.99750600  1
  H  H24  1  0.19289100  0.87347100  0.80453900  1
  H  H25  1  0.61376200  0.92122000  0.57053400  1
  H  H26  1  0.30739500  0.38624500  0.18408400  1
  H  H27  1  0.07891800  0.69254800  0.49141000  1
  H  H28  1  0.07879900  0.38626000  0.42944900  1
  H  H29  1  0.61376500  0.69259900  0.81588700  1
  H  H30  1  0.30744000  0.92108700  0.50862100  1
  H  H31  1  0.67918300  0.98694100  0.44060900  1
  H  H32  1  0.30760600  0.32075100  0.11959500  1
  H  H33  1  0.01321400  0.69233300  0.42714000  1
  H  H34  1  0.01307800  0.32084000  0.55937300  1
  H  H35  1  0.67924800  0.69237700  0.88037900  1
  H  H36  1  0.30764400  0.98678900  0.57290100  1
  C  C1  1  0.42735300  0.74425600  0.68210800  1
  C  C2  1  0.31696900  0.57263700  0.10939500  1
  C  C3  1  0.25578800  0.68304900  0.42628100  1
  C  C4  1  0.25576700  0.57266800  0.31787800  1
  C  C5  1  0.42737900  0.68304400  0.89059400  1
  C  C6  1  0.31696600  0.74423200  0.57370700  1
  C  C7  1  0.56877200  0.74898000  0.82839400  1
  C  C8  1  0.18020200  0.43126800  0.39694400  1
  C  C9  1  0.25107200  0.81972100  0.57737200  1
  C  C10  1  0.25101800  0.43123600  0.17159000  1
  C  C11  1  0.56874600  0.81980700  0.60304000  1
  C  C12  1  0.18028100  0.74892400  0.42265300  1
  C  C13  1  0.38749000  0.64536800  0.96779100  1
  C  C14  1  0.25802100  0.61256300  0.35516700  1
  C  C15  1  0.35461300  0.74199800  0.61325400  1
  C  C16  1  0.35464600  0.61252600  0.03219700  1
  C  C17  1  0.38745900  0.74200600  0.64481700  1
  C  C18  1  0.25802800  0.64540700  0.38673100  1
  C  C19  1  0.88030300  0.12577100  0.08441700  1
  C  C20  1  0.24513600  0.11954600  0.96485400  1
  C  C21  1  0.87448100  0.75482300  0.21002400  1
  C  C22  1  0.87423800  0.11970600  0.91556500  1
  C  C23  1  0.88044100  0.75482600  0.03516700  1
  C  C24  1  0.24513800  0.12550300  0.79000400  1
  C  C25  1  0.83797600  0.08565100  0.07391100  1
  C  C26  1  0.24737500  0.16185600  0.91199300  1
  C  C27  1  0.91454900  0.75258000  0.15939900  1
  C  C28  1  0.91435800  0.16203400  0.92607000  1
  C  C29  1  0.83813400  0.75259100  0.08802500  1
  C  C30  1  0.24738600  0.08543700  0.84062700  1
  C  C31  1  0.83377000  0.08359700  0.98981800  1
  C  C32  1  0.24955300  0.16602000  0.82371500  1
  C  C33  1  0.91653900  0.75040800  0.07328900  1
  C  C34  1  0.91641300  0.16624000  0.01016300  1
  C  C35  1  0.83397000  0.75041600  0.17630400  1
  C  C36  1  0.24956300  0.08345000  0.92673200  1
  C  C37  1  0.88582500  0.12395000  0.16924100  1
  C  C38  1  0.23770000  0.11402100  0.05519100  1
  C  C39  1  0.87638600  0.76224400  0.29295300  1
  C  C40  1  0.87605800  0.11418400  0.83074100  1
  C  C41  1  0.88596000  0.76225200  0.94483200  1
  C  C42  1  0.23770400  0.12359100  0.70708700  1
  C  C43  1  0.84899300  0.08511200  0.24141500  1
  C  C44  1  0.23567500  0.15087200  0.09050700  1
  C  C45  1  0.91525300  0.76425600  0.32625600  1
  C  C46  1  0.91489500  0.15101500  0.75856700  1
  C  C47  1  0.84911100  0.76427500  0.90951600  1
  C  C48  1  0.23568900  0.08471900  0.67378800  1
  C  C49  1  0.80534000  0.04743500  0.23147900  1
  C  C50  1  0.24173800  0.19453300  0.03687200  1
  C  C51  1  0.95285200  0.75819700  0.27866800  1
  C  C52  1  0.95257300  0.19467000  0.76850300  1
  C  C53  1  0.80545600  0.75822300  0.96314400  1
  C  C54  1  0.24176000  0.04712600  0.72136900  1
  C  C55  1  0.79972200  0.04740000  0.14791600  1
  C  C56  1  0.24738900  0.20013600  0.94769400  1
  C  C57  1  0.95280800  0.75255700  0.19512200  1
  C  C58  1  0.95260900  0.20028800  0.85206600  1
  C  C59  1  0.79985700  0.75257900  0.05232000  1
  C  C60  1  0.24741100  0.04717600  0.80490700  1
  C  C61  1  0.75567600  0.00882400  0.13939300  1
  C  C62  1  0.25294700  0.24419200  0.89507000  1
  C  C63  1  0.99130700  0.74700200  0.14804200  1
  C  C64  1  0.99118500  0.24433600  0.86058900  1
  C  C65  1  0.75580800  0.74703200  0.10493700  1
  C  C66  1  0.25297800  0.00868300  0.85198100  1
  C  C67  1  0.75094200  0.00762000  0.05486900  1
  C  C68  1  0.25653500  0.24890200  0.80581600  1
  C  C69  1  0.99243500  0.74342300  0.06236100  1
  C  C70  1  0.99238900  0.24907100  0.94511300  1
  C  C71  1  0.75110000  0.74345100  0.19418900  1
  C  C72  1  0.25656500  0.00756100  0.93765500  1
  C  C73  1  0.78916100  0.04501800  0.98195400  1
  C  C74  1  0.25566900  0.21063000  0.77117600  1
  C  C75  1  0.95503300  0.74429300  0.02685500  1
  C  C76  1  0.95499200  0.21085000  0.01802800  1
  C  C77  1  0.78936600  0.74431100  0.22883400  1
  C  C78  1  0.25568900  0.04496300  0.97316200  1
  C  C79  1  0.76797500  0.00917200  0.30501000  1
  C  C80  1  0.24086300  0.23193400  0.07297700  1
  C  C81  1  0.99112300  0.75906500  0.31390600  1
  C  C82  1  0.99083600  0.23203500  0.69497200  1
  C  C83  1  0.76805900  0.75910000  0.92703400  1
  C  C84  1  0.24089400  0.00885400  0.68613300  1
  C  C85  1  0.71663600  0.97380500  0.21576200  1
  C  C86  1  0.25701000  0.28326700  0.93236200  1
  C  C87  1  0.02631600  0.74293500  0.18939000  1
  C  C88  1  0.02620400  0.28337600  0.78422000  1
  C  C89  1  0.71673700  0.74297400  0.06764100  1
  C  C90  1  0.25705000  0.97367600  0.81063000  1
  C  C91  1  0.66568900  0.88378500  0.37703500  1
  C  C92  1  0.21794800  0.33426100  0.04257100  1
  C  C93  1  0.11636600  0.78198400  0.26062600  1
  C  C94  1  0.11621800  0.33431700  0.62294700  1
  C  C95  1  0.66574100  0.78203700  0.95743000  1
  C  C96  1  0.21800100  0.88362000  0.73940600  1
  C  C97  1  0.62624700  0.84575600  0.44849100  1
  C  C98  1  0.21941700  0.37374300  0.07454300  1
  C  C99  1  0.15437900  0.78051700  0.29406200  1
  C  C100  1  0.15424700  0.37375900  0.55149100  1
  C  C101  1  0.62626500  0.78057400  0.92545200  1
  C  C102  1  0.21947500  0.84560900  0.70596800  1
  C  C103  1  0.60746500  0.85849400  0.52072400  1
  C  C104  1  0.25096000  0.39252400  0.12797700  1
  C  C105  1  0.14162400  0.74897700  0.37898000  1
  C  C106  1  0.14151500  0.39254700  0.47925900  1
  C  C107  1  0.60748400  0.74903400  0.87200700  1
  C  C108  1  0.25101500  0.85837200  0.62105100  1
  C  C109  1  0.62742600  0.90968300  0.51644500  1
  C  C110  1  0.28217700  0.37256700  0.14366900  1
  C  C111  1  0.09045500  0.71776300  0.42582700  1
  C  C112  1  0.09033100  0.37259200  0.48353700  1
  C  C113  1  0.62744000  0.71781500  0.85631000  1
  C  C114  1  0.28222500  0.90954500  0.57420500  1
  C  C115  1  0.66522300  0.94733500  0.44297200  1
  C  C116  1  0.28198300  0.33473900  0.10801400  1
  C  C117  1  0.05281900  0.71795500  0.38998100  1
  C  C118  1  0.05268000  0.33479500  0.55701000  1
  C  C119  1  0.66526400  0.71800300  0.89196800  1
  C  C120  1  0.28202700  0.94717800  0.61005300  1
  C  C121  1  0.68495400  0.93460800  0.37313000  1
  C  C122  1  0.24948500  0.31499600  0.05796200  1
  C  C123  1  0.06556700  0.75044900  0.30749100  1
  C  C124  1  0.06540100  0.31505800  0.62685200  1
  C  C125  1  0.68500600  0.75049700  0.94203500  1
  C  C126  1  0.24953100  0.93442200  0.69254000  1
  N  N1  1  0.72407000  0.97342500  0.29644700  1
  N  N2  1  0.24913000  0.27584400  0.02045700  1
  N  N3  1  0.02676900  0.75080500  0.26963200  1
  N  N4  1  0.02658300  0.27594100  0.70353500  1
  N  N5  1  0.72415500  0.75084600  0.97954600  1
  N  N6  1  0.24916900  0.97321700  0.73040000  1
  N  N7  1  0.70923900  0.96642900  0.03976200  1
  N  N8  1  0.25714600  0.29063000  0.74895900  1
  N  N9  1  0.03355000  0.74281500  0.00611000  1
  N  N10  1  0.03357900  0.29077400  0.96022000  1
  N  N11  1  0.70938200  0.74285300  0.25104100  1
  N  N12  1  0.25718600  0.96645000  0.99389800  1
  N  N13  1  0.60490400  0.79443200  0.44395500  1
  N  N14  1  0.18947400  0.39512000  0.04864600  1
  N  N15  1  0.20569200  0.81045600  0.23827500  1
  N  N16  1  0.20556600  0.39509600  0.55602800  1
  N  N17  1  0.60489200  0.81052100  0.95135500  1
  N  N18  1  0.18954400  0.79429100  0.76175300  1
  O  O1  1  0.44438400  0.71274900  0.67111500  1
  O  O2  1  0.26842500  0.55561500  0.11543400  1
  O  O3  1  0.28729200  0.73158500  0.38385300  1
  O  O4  1  0.28726500  0.55563200  0.32887600  1
  O  O5  1  0.44440700  0.73159300  0.88455200  1
  O  O6  1  0.26843300  0.71271900  0.61613700  1
  O  O7  1  0.44374400  0.77708500  0.72761200  1
  O  O8  1  0.33337500  0.55622500  0.17130400  1
  O  O9  1  0.22296100  0.66666667  0.50454300  1
  O  O10  1  0.22294100  0.55628400  0.27237600  1
  O  O11  1  0.44378500  0.66666667  0.82868500  1
  O  O12  1  0.33340000  0.77706200  0.49544700  1
  O  O13  1  0.55181800  0.71634400  0.78274600  1
  O  O14  1  0.16454800  0.44824000  0.33433200  1
  O  O15  1  0.28370300  0.83540900  0.49915100  1
  O  O16  1  0.28365100  0.44818200  0.21723900  1
  O  O17  1  0.55177900  0.83546700  0.66565000  1
  O  O18  1  0.16460200  0.71629000  0.50087200  1
  O  O19  1  0.55164800  0.78037000  0.83788100  1
  O  O20  1  0.22872200  0.44838200  0.38931000  1
  O  O21  1  0.21967900  0.77120900  0.61816600  1
  O  O22  1  0.21963600  0.44836600  0.16210100  1
  O  O23  1  0.55162600  0.77128300  0.61067500  1
  O  O24  1  0.22878900  0.78032500  0.38185700  1
  O  O25  1  0.77559600  0.00737300  0.38543800  1
  O  O26  1  0.23137400  0.22436200  0.16100700  1
  O  O27  1  0.99303000  0.76854400  0.39247700  1
  O  O28  1  0.99263200  0.22441200  0.61454400  1
  O  O29  1  0.77563200  0.76858200  0.83900500  1
  O  O30  1  0.23140500  0.00693500  0.60757300  1
  O  O31  1  0.67009200  0.94171300  0.21086200  1
  O  O32  1  0.27156400  0.32983000  0.88093900  1
  O  O33  1  0.05832600  0.72838500  0.15247700  1
  O  O34  1  0.05829900  0.32992300  0.78912000  1
  O  O35  1  0.67018100  0.72843200  0.11906600  1
  O  O36  1  0.27161300  0.94167400  0.84752600  1
  O  O37  1  0.70209100  0.92050900  0.06575600  1
  O  O38  1  0.68877800  0.97635000  0.97978400  1
  O  O39  1  0.21842800  0.29787100  0.76767400  1
  O  O40  1  0.28755700  0.31101900  0.66859000  1
  O  O41  1  0.07950200  0.78153700  0.98619200  1
  O  O42  1  0.02353200  0.71240300  0.95608400  1
  O  O43  1  0.07949400  0.29791600  0.93422800  1
  O  O44  1  0.02366200  0.31124000  0.02019800  1
  O  O45  1  0.70215200  0.78158000  0.23231700  1
  O  O46  1  0.68898900  0.71244300  0.33141300  1
  O  O47  1  0.21847500  0.92048900  0.01382100  1
  O  O48  1  0.28760000  0.97647800  0.04391500  1
  O  O49  1  0.55739700  0.76990100  0.44424700  1
  O  O50  1  0.63543600  0.77882900  0.41253600  1
  O  O51  1  0.21248500  0.44261400  0.00142600  1
  O  O52  1  0.14332400  0.36460600  0.04776600  1
  O  O53  1  0.23017900  0.78743900  0.21406300  1
  O  O54  1  0.22131900  0.85659800  0.19129100  1
  O  O55  1  0.23010100  0.44260700  0.55573900  1
  O  O56  1  0.22116100  0.36455600  0.58744400  1
  O  O57  1  0.55739900  0.78750900  0.99856200  1
  O  O58  1  0.63540300  0.85667100  0.95225100  1
  O  O59  1  0.21256400  0.76980900  0.78596300  1
  O  O60  1  0.14340300  0.77865700  0.80873700  1
