# generated using pymatgen
data_FeH11C21O8
_symmetry_space_group_name_H-M   'P 1'
_cell_length_a   15.70979900
_cell_length_b   12.35783900
_cell_length_c   13.55486800
_cell_angle_alpha   100.07190100
_cell_angle_beta   97.54981700
_cell_angle_gamma   99.12400900
_symmetry_Int_Tables_number   1
_chemical_formula_structural   FeH11C21O8
_chemical_formula_sum   'Fe2 H22 C42 O16'
_cell_volume   2523.69225319
_cell_formula_units_Z   2
loop_
 _symmetry_equiv_pos_site_id
 _symmetry_equiv_pos_as_xyz
  1  'x, y, z'
loop_
 _atom_site_type_symbol
 _atom_site_label
 _atom_site_symmetry_multiplicity
 _atom_site_fract_x
 _atom_site_fract_y
 _atom_site_fract_z
 _atom_site_occupancy
  Fe  Fe1  1  0.51793300  0.02557700  0.78272000  1
  Fe  Fe2  1  0.49764700  0.01240500  0.22676500  1
  H  H1  1  0.23961100  0.99297700  0.76498000  1
  H  H2  1  0.17977800  0.02968800  0.11183200  1
  H  H3  1  0.82715700  0.98367700  0.88835900  1
  H  H4  1  0.78148400  0.03712900  0.24324800  1
  H  H5  1  0.92878000  0.03955600  0.20185400  1
  H  H6  1  0.51858600  0.14811600  0.53568100  1
  H  H7  1  0.48961800  0.43982000  0.73261000  1
  H  H8  1  0.49645700  0.88990700  0.47355600  1
  H  H9  1  0.52513700  0.59794500  0.27680300  1
  H  H10  1  0.52011500  0.42984700  0.33231900  1
  H  H11  1  0.49571100  0.60845600  0.67747000  1
  H  H12  1  0.08432300  0.00893000  0.71644700  1
  H  H13  1  0.15713800  0.83827700  0.67861400  1
  H  H14  1  0.05122800  0.82983600  0.61028300  1
  H  H15  1  0.09000200  0.73285600  0.80147900  1
  H  H16  1  0.07047300  0.65661600  0.67175700  1
  H  H17  1  0.93505100  0.63637800  0.74642500  1
  H  H18  1  0.92484400  0.71116800  0.64347400  1
  H  H19  1  0.96995600  0.80947000  0.87101000  1
  H  H20  1  0.86814400  0.80377300  0.79057600  1
  H  H21  1  0.95815500  0.99600800  0.81100600  1
  H  H22  1  0.93954500  0.91954400  0.68584100  1
  C  C1  1  0.22534100  0.99365700  0.84078100  1
  C  C2  1  0.13901200  0.97346000  0.85549300  1
  C  C3  1  0.12414900  0.99511400  0.95669000  1
  C  C4  1  0.19404100  0.01866000  0.03528300  1
  C  C5  1  0.27944100  0.02664200  0.01849200  1
  C  C6  1  0.29499200  0.01905000  0.91939500  1
  C  C7  1  0.04053600  0.00052800  0.98786000  1
  C  C8  1  0.97076900  0.00553300  0.01493500  1
  C  C9  1  0.81530800  0.99390000  0.96572500  1
  C  C10  1  0.73177300  0.99417700  0.98738000  1
  C  C11  1  0.71893700  0.00795800  0.08835200  1
  C  C12  1  0.79055800  0.02686000  0.16470100  1
  C  C13  1  0.87360000  0.02719500  0.14168700  1
  C  C14  1  0.88564200  0.00911300  0.04183800  1
  C  C15  1  0.49100700  0.21868100  0.71607100  1
  C  C16  1  0.38265600  0.03878000  0.89239400  1
  C  C17  1  0.66168200  0.98763900  0.90187200  1
  C  C18  1  0.49391000  0.81676100  0.64112200  1
  C  C19  1  0.52261900  0.22204500  0.36854600  1
  C  C20  1  0.34882300  0.03671500  0.10606800  1
  C  C21  1  0.63151900  0.99480800  0.11701700  1
  C  C22  1  0.52298700  0.81858100  0.29276800  1
  C  C23  1  0.52000900  0.29216700  0.46765900  1
  C  C24  1  0.51543300  0.23602600  0.54684500  1
  C  C25  1  0.50413200  0.28800400  0.64073500  1
  C  C26  1  0.49938400  0.39957300  0.65855300  1
  C  C27  1  0.50574300  0.45885100  0.58128000  1
  C  C28  1  0.51481400  0.40588700  0.48504100  1
  C  C29  1  0.50033300  0.57098200  0.60100400  1
  C  C30  1  0.50108800  0.63249100  0.52473700  1
  C  C31  1  0.50987900  0.57937100  0.42843800  1
  C  C32  1  0.51556000  0.46736400  0.40879900  1
  C  C33  1  0.49598100  0.74628600  0.54200300  1
  C  C34  1  0.49968700  0.80202300  0.46248900  1
  C  C35  1  0.51029300  0.74967800  0.36843200  1
  C  C36  1  0.51560100  0.63832600  0.35091800  1
  C  C37  1  0.07205500  0.93922500  0.75740000  1
  C  C38  1  0.08787800  0.83514300  0.68722600  1
  C  C39  1  0.05617000  0.72908700  0.72348300  1
  C  C40  1  0.95868700  0.71500500  0.72149400  1
  C  C41  1  0.93983900  0.81278600  0.79354800  1
  C  C42  1  0.97451200  0.92276800  0.76319900  1
  O  O1  1  0.55649000  0.17288500  0.74850700  1
  O  O2  1  0.44132800  0.12536700  0.94242200  1
  O  O3  1  0.41090300  0.17176400  0.71983000  1
  O  O4  1  0.39822100  0.97779100  0.80942700  1
  O  O5  1  0.58957900  0.02454700  0.91635100  1
  O  O6  1  0.67622900  0.95863100  0.80868800  1
  O  O7  1  0.53179500  0.92249900  0.65633300  1
  O  O8  1  0.44613000  0.78151800  0.70569000  1
  O  O9  1  0.48460600  0.11641000  0.35307000  1
  O  O10  1  0.57086400  0.25738800  0.30442200  1
  O  O11  1  0.42592300  0.01377800  0.09317700  1
  O  O12  1  0.33003200  0.05474800  0.19832600  1
  O  O13  1  0.60311600  0.86381800  0.28738100  1
  O  O14  1  0.61753300  0.05831100  0.19960100  1
  O  O15  1  0.45786300  0.86564300  0.26153200  1
  O  O16  1  0.57048900  0.91037500  0.06788600  1
