# generated using pymatgen
data_Zn3H16C44(IO2)6
_symmetry_space_group_name_H-M   'P 1'
_cell_length_a   41.27741100
_cell_length_b   35.53918000
_cell_length_c   21.81581400
_cell_angle_alpha   90.00000000
_cell_angle_beta   59.52350200
_cell_angle_gamma   90.00000000
_symmetry_Int_Tables_number   1
_chemical_formula_structural   Zn3H16C44(IO2)6
_chemical_formula_sum   'Zn12 H64 C176 I24 O48'
_cell_volume   27581.41532173
_cell_formula_units_Z   4
loop_
 _symmetry_equiv_pos_site_id
 _symmetry_equiv_pos_as_xyz
  1  'x, y, z'
loop_
 _atom_site_type_symbol
 _atom_site_label
 _atom_site_symmetry_multiplicity
 _atom_site_fract_x
 _atom_site_fract_y
 _atom_site_fract_z
 _atom_site_occupancy
  Zn  Zn1  1  0.99995100  0.03868300  0.00000500  1
  Zn  Zn2  1  0.49995100  0.53868300  0.00000500  1
  Zn  Zn3  1  0.99991200  0.95357600  0.99994700  1
  Zn  Zn4  1  0.49991200  0.45357600  0.99994700  1
  Zn  Zn5  1  0.04268900  0.99298800  0.45614600  1
  Zn  Zn6  1  0.95762200  0.99266300  0.54373700  1
  Zn  Zn7  1  0.54268900  0.49298800  0.45614600  1
  Zn  Zn8  1  0.45762200  0.49266300  0.54373700  1
  Zn  Zn9  1  0.50412600  0.99259200  0.56525300  1
  Zn  Zn10  1  0.49573600  0.99278700  0.43529000  1
  Zn  Zn11  1  0.00412600  0.49259200  0.56525300  1
  Zn  Zn12  1  0.99573600  0.49278700  0.43529000  1
  H  H1  1  0.02375900  0.94421100  0.16889700  1
  H  H2  1  0.97638700  0.94549200  0.83165500  1
  H  H3  1  0.52375900  0.44421100  0.16889700  1
  H  H4  1  0.47638700  0.44549200  0.83165500  1
  H  H5  1  0.94253500  0.04800100  0.20009100  1
  H  H6  1  0.05620400  0.05038200  0.80102600  1
  H  H7  1  0.44253500  0.54800100  0.20009100  1
  H  H8  1  0.55620400  0.55038200  0.80102600  1
  H  H9  1  0.91672700  0.09881700  0.28387600  1
  H  H10  1  0.08245200  0.10066400  0.71603300  1
  H  H11  1  0.41672700  0.59881700  0.28387600  1
  H  H12  1  0.58245200  0.60066500  0.71603300  1
  H  H13  1  0.96660500  0.05691600  0.39744600  1
  H  H14  1  0.03457500  0.05669500  0.60034300  1
  H  H15  1  0.46660500  0.55691600  0.39744700  1
  H  H16  1  0.53457500  0.55669600  0.60034300  1
  H  H17  1  0.62148100  0.02494000  0.44916300  1
  H  H18  1  0.37829800  0.02377000  0.55021200  1
  H  H19  1  0.12148100  0.52494000  0.44916300  1
  H  H20  1  0.87829800  0.52377000  0.55021200  1
  H  H21  1  0.68993300  0.02666300  0.37751900  1
  H  H22  1  0.30980400  0.02516500  0.62169000  1
  H  H23  1  0.18993300  0.52666300  0.37751900  1
  H  H24  1  0.80980400  0.52516500  0.62169000  1
  H  H25  1  0.81168900  0.93667800  0.16846600  1
  H  H26  1  0.18851000  0.93597300  0.83683700  1
  H  H27  1  0.31168900  0.43667800  0.16846600  1
  H  H28  1  0.68851000  0.43597300  0.83683700  1
  H  H29  1  0.88025200  0.93655900  0.10203600  1
  H  H30  1  0.11993200  0.93548100  0.90322400  1
  H  H31  1  0.38025200  0.43655900  0.10203600  1
  H  H32  1  0.61993200  0.43548100  0.90322400  1
  H  H33  1  0.87977900  0.05702800  0.10868500  1
  H  H34  1  0.11974300  0.05553100  0.88589700  1
  H  H35  1  0.37977900  0.55702800  0.10868500  1
  H  H36  1  0.61974300  0.55553200  0.88589700  1
  H  H37  1  0.50820100  0.18137200  0.59004300  1
  H  H38  1  0.49289600  0.18126000  0.41126800  1
  H  H39  1  0.00820100  0.68137200  0.59004300  1
  H  H40  1  0.99289600  0.68126000  0.41126800  1
  H  H41  1  0.50794000  0.11275000  0.59114000  1
  H  H42  1  0.49252100  0.11263600  0.41112500  1
  H  H43  1  0.00794000  0.61275000  0.59114000  1
  H  H44  1  0.99252100  0.61263600  0.41112500  1
  H  H45  1  0.94160700  0.80434500  0.56842600  1
  H  H46  1  0.06039700  0.80410700  0.43139300  1
  H  H47  1  0.44160700  0.30434500  0.56842600  1
  H  H48  1  0.56039700  0.30410700  0.43139300  1
  H  H49  1  0.94131400  0.87295800  0.56858000  1
  H  H50  1  0.06092100  0.87274100  0.43054100  1
  H  H51  1  0.44131400  0.37295800  0.56858000  1
  H  H52  1  0.56092100  0.37274100  0.43054100  1
  H  H53  1  0.44335500  0.80438500  0.51993800  1
  H  H54  1  0.55558000  0.80413600  0.47960800  1
  H  H55  1  0.94335500  0.30438500  0.51993900  1
  H  H56  1  0.05558000  0.30413600  0.47960800  1
  H  H57  1  0.93955300  0.18145100  0.56384400  1
  H  H58  1  0.05892500  0.18132300  0.43652400  1
  H  H59  1  0.43955300  0.68145100  0.56384400  1
  H  H60  1  0.55892500  0.68132300  0.43652400  1
  H  H61  1  0.93908200  0.11283400  0.56463000  1
  H  H62  1  0.05926800  0.11271600  0.43622800  1
  H  H63  1  0.43908200  0.61283400  0.56463000  1
  H  H64  1  0.55926800  0.61271600  0.43622800  1
  C  C1  1  0.92637900  0.99693600  0.06261500  1
  C  C2  1  0.07347300  0.99536300  0.93731100  1
  C  C3  1  0.42637900  0.49693600  0.06261500  1
  C  C4  1  0.57347300  0.49536300  0.93731100  1
  C  C5  1  0.99395600  0.99526700  0.12540600  1
  C  C6  1  0.00591700  0.99703700  0.87459900  1
  C  C7  1  0.49395700  0.49526700  0.12540600  1
  C  C8  1  0.50591700  0.49703700  0.87460000  1
  C  C9  1  0.95004300  0.04944800  0.24064700  1
  C  C10  1  0.04930000  0.05122600  0.75960200  1
  C  C11  1  0.45004300  0.54944800  0.24064700  1
  C  C12  1  0.54930000  0.55122600  0.75960200  1
  C  C13  1  0.93433100  0.07816200  0.28931100  1
  C  C14  1  0.06520600  0.07966600  0.71036400  1
  C  C15  1  0.43433100  0.57816200  0.28931100  1
  C  C16  1  0.56520600  0.57966600  0.71036400  1
  C  C17  1  0.94125500  0.08079900  0.34432900  1
  C  C18  1  0.05898300  0.08155900  0.65438800  1
  C  C19  1  0.44125500  0.58079900  0.34432900  1
  C  C20  1  0.55898300  0.58155900  0.65438800  1
  C  C21  1  0.96213000  0.05353900  0.35317300  1
  C  C22  1  0.03846300  0.05393900  0.64542300  1
  C  C23  1  0.46213000  0.55353900  0.35317300  1
  C  C24  1  0.53846300  0.55393900  0.64542300  1
  C  C25  1  0.97697100  0.02350800  0.30598500  1
  C  C26  1  0.02329600  0.02428700  0.69341500  1
  C  C27  1  0.47697100  0.52350800  0.30598500  1
  C  C28  1  0.52329600  0.52428700  0.69341500  1
  C  C29  1  0.97318100  0.02289300  0.24626800  1
  C  C30  1  0.02665100  0.02422600  0.75360600  1
  C  C31  1  0.47318100  0.52289300  0.24626800  1
  C  C32  1  0.52665100  0.52422600  0.75360600  1
  C  C33  1  0.99160200  0.99504300  0.19482200  1
  C  C34  1  0.00830100  0.99646700  0.80523000  1
  C  C35  1  0.49160200  0.49504300  0.19482200  1
  C  C36  1  0.50830100  0.49646700  0.80523000  1
  C  C37  1  0.00994900  0.96637400  0.20748500  1
  C  C38  1  0.99018300  0.96751300  0.79272600  1
  C  C39  1  0.50994900  0.46637400  0.20748500  1
  C  C40  1  0.49018300  0.46751300  0.79272600  1
  C  C41  1  0.01164700  0.96564600  0.26861200  1
  C  C42  1  0.98859000  0.96646900  0.73150000  1
  C  C43  1  0.51164700  0.46564600  0.26861200  1
  C  C44  1  0.48859000  0.46646900  0.73150100  1
  C  C45  1  0.99589100  0.99444500  0.31746500  1
  C  C46  1  0.00446600  0.99504100  0.68224300  1
  C  C47  1  0.49589100  0.49444500  0.31746500  1
  C  C48  1  0.50446600  0.49504100  0.68224300  1
  C  C49  1  0.67218800  0.97596800  0.26777100  1
  C  C50  1  0.32776900  0.97655500  0.73330600  1
  C  C51  1  0.17218800  0.47596800  0.26777100  1
  C  C52  1  0.82776900  0.47655500  0.73330600  1
  C  C53  1  0.63341600  0.97461800  0.30771500  1
  C  C54  1  0.36654900  0.97540800  0.69345800  1
  C  C55  1  0.13341600  0.47461800  0.30771500  1
  C  C56  1  0.86654900  0.47540800  0.69345800  1
  C  C57  1  0.61460300  0.99253700  0.37361300  1
  C  C58  1  0.38527800  0.99271700  0.62698600  1
  C  C59  1  0.11460300  0.49253700  0.37361300  1
  C  C60  1  0.88527800  0.49271700  0.62698600  1
  C  C61  1  0.63538900  0.01085000  0.39823800  1
  C  C62  1  0.36442600  0.01020400  0.60164700  1
  C  C63  1  0.13538900  0.51085000  0.39823800  1
  C  C64  1  0.86442600  0.51020400  0.60164700  1
  C  C65  1  0.67406500  0.01209000  0.35779600  1
  C  C66  1  0.32573800  0.01124700  0.64197500  1
  C  C67  1  0.17406500  0.51209000  0.35779600  1
  C  C68  1  0.82573800  0.51124700  0.64197500  1
  C  C69  1  0.69252500  0.99473100  0.29244500  1
  C  C70  1  0.30734900  0.99450000  0.70791600  1
  C  C71  1  0.19252500  0.49473100  0.29244500  1
  C  C72  1  0.80734900  0.49450000  0.70791600  1
  C  C73  1  0.73289400  0.99550400  0.25096700  1
  C  C74  1  0.26697100  0.99502200  0.74926600  1
  C  C75  1  0.23289500  0.49550400  0.25096700  1
  C  C76  1  0.76697100  0.49502200  0.74926600  1
  C  C77  1  0.76679700  0.99610900  0.21657300  1
  C  C78  1  0.23306300  0.99542400  0.78355400  1
  C  C79  1  0.26679700  0.49610900  0.21657300  1
  C  C80  1  0.73306300  0.49542400  0.78355400  1
  C  C81  1  0.82677800  0.96307000  0.15493200  1
  C  C82  1  0.17326800  0.96219800  0.84801900  1
  C  C83  1  0.32677800  0.46307000  0.15493200  1
  C  C84  1  0.67326800  0.46219800  0.84801900  1
  C  C85  1  0.86556400  0.96315500  0.11735800  1
  C  C86  1  0.13447700  0.96207000  0.88555000  1
  C  C87  1  0.36556400  0.46315500  0.11735800  1
  C  C88  1  0.63447700  0.46207000  0.88555000  1
  C  C89  1  0.88509800  0.99681800  0.10030800  1
  C  C90  1  0.11475500  0.99550500  0.89961100  1
  C  C91  1  0.38509800  0.49681800  0.10030800  1
  C  C92  1  0.61475500  0.49550500  0.89961100  1
  C  C93  1  0.86529200  0.03032900  0.12094000  1
  C  C94  1  0.13437300  0.02901400  0.87602400  1
  C  C95  1  0.36529200  0.53032900  0.12094000  1
  C  C96  1  0.63437300  0.52901400  0.87602400  1
  C  C97  1  0.82649600  0.03011300  0.15870100  1
  C  C98  1  0.17316600  0.02900700  0.83832500  1
  C  C99  1  0.32649600  0.53011300  0.15870100  1
  C  C100  1  0.67316600  0.52900700  0.83832600  1
  C  C101  1  0.80719000  0.99648600  0.17594300  1
  C  C102  1  0.19266500  0.99559900  0.82408200  1
  C  C103  1  0.30719000  0.49648600  0.17594300  1
  C  C104  1  0.69266500  0.49559900  0.82408200  1
  C  C105  1  0.00116600  0.91911600  0.49928800  1
  C  C106  1  0.50116600  0.41911600  0.49928800  1
  C  C107  1  0.99787700  0.99282300  0.38235900  1
  C  C108  1  0.00242300  0.99312500  0.61748700  1
  C  C109  1  0.49787700  0.49282300  0.38235900  1
  C  C110  1  0.50242300  0.49312500  0.61748700  1
  C  C111  1  0.99914700  0.06650900  0.50062100  1
  C  C112  1  0.49914700  0.56650900  0.50062100  1
  C  C113  1  0.49977800  0.91905100  0.49917700  1
  C  C114  1  0.99977800  0.41905100  0.49917700  1
  C  C115  1  0.57339300  0.99219200  0.41922600  1
  C  C116  1  0.42648000  0.99240900  0.58143200  1
  C  C117  1  0.07339300  0.49219200  0.41922600  1
  C  C118  1  0.92648000  0.49240900  0.58143200  1
  C  C119  1  0.50008400  0.06640100  0.50137800  1
  C  C120  1  0.00008400  0.56640100  0.50137800  1
  C  C121  1  0.50476400  0.16611300  0.55085100  1
  C  C122  1  0.49618900  0.16605000  0.45067500  1
  C  C123  1  0.00476400  0.66611300  0.55085100  1
  C  C124  1  0.99618900  0.66605000  0.45067500  1
  C  C125  1  0.50458900  0.12732200  0.55123900  1
  C  C126  1  0.49599400  0.12725900  0.45083700  1
  C  C127  1  0.00458900  0.62732200  0.55123900  1
  C  C128  1  0.99599400  0.62725900  0.45083700  1
  C  C129  1  0.50020400  0.10765900  0.50117100  1
  C  C130  1  0.00020400  0.60765900  0.50117100  1
  C  C131  1  0.50057800  0.18546900  0.50061500  1
  C  C132  1  0.00057800  0.68546900  0.50061500  1
  C  C133  1  0.50076400  0.22582400  0.50033700  1
  C  C134  1  0.00076400  0.72582400  0.50033600  1
  C  C135  1  0.00089300  0.75971600  0.50012900  1
  C  C136  1  0.50089300  0.25971600  0.50012900  1
  C  C137  1  0.96774700  0.81952500  0.53821500  1
  C  C138  1  0.03431200  0.81939200  0.46146200  1
  C  C139  1  0.46774700  0.31952500  0.53821500  1
  C  C140  1  0.53431200  0.31939200  0.46146200  1
  C  C141  1  0.96773700  0.85831100  0.53807000  1
  C  C142  1  0.03445600  0.85818400  0.46120900  1
  C  C143  1  0.46773700  0.35831100  0.53807000  1
  C  C144  1  0.53445600  0.35818400  0.46120900  1
  C  C145  1  0.00112800  0.87787100  0.49953200  1
  C  C146  1  0.50112800  0.37787100  0.49953200  1
  C  C147  1  0.00099200  0.80007200  0.49993300  1
  C  C148  1  0.50099200  0.30007200  0.49993300  1
  C  C149  1  0.46812200  0.81958600  0.51067900  1
  C  C150  1  0.53090600  0.81944800  0.48866500  1
  C  C151  1  0.96812200  0.31958600  0.51067900  1
  C  C152  1  0.03090600  0.31944800  0.48866500  1
  C  C153  1  0.46812600  0.85837500  0.51041600  1
  C  C154  1  0.53110500  0.85823700  0.48860200  1
  C  C155  1  0.96812600  0.35837500  0.51041600  1
  C  C156  1  0.03110500  0.35823700  0.48860200  1
  C  C157  1  0.49967700  0.87790300  0.49937200  1
  C  C158  1  0.99967700  0.37790300  0.49937200  1
  C  C159  1  0.49946800  0.80014200  0.49973000  1
  C  C160  1  0.99946800  0.30014200  0.49973000  1
  C  C161  1  0.49936600  0.75978800  0.49990000  1
  C  C162  1  0.99936600  0.25978800  0.49990000  1
  C  C163  1  0.99929700  0.22589600  0.50003100  1
  C  C164  1  0.49929700  0.72589600  0.50003000  1
  C  C165  1  0.96578300  0.16619300  0.53593400  1
  C  C166  1  0.03266500  0.16612200  0.46453100  1
  C  C167  1  0.46578300  0.66619300  0.53593400  1
  C  C168  1  0.53266500  0.66612200  0.46453100  1
  C  C169  1  0.96567600  0.12740500  0.53621300  1
  C  C170  1  0.03269800  0.12733700  0.46453000  1
  C  C171  1  0.46567600  0.62740500  0.53621300  1
  C  C172  1  0.53269800  0.62733700  0.46453000  1
  C  C173  1  0.99916900  0.10774900  0.50044100  1
  C  C174  1  0.49916900  0.60774900  0.50044100  1
  C  C175  1  0.99924400  0.18554300  0.50016400  1
  C  C176  1  0.49924400  0.68554300  0.50016400  1
  I  I1  1  0.79692400  0.08133500  0.19097700  1
  I  I2  1  0.20243800  0.08018200  0.80156400  1
  I  I3  1  0.29692400  0.58133500  0.19097700  1
  I  I4  1  0.70243800  0.58018200  0.80156400  1
  I  I5  1  0.41851300  0.88660100  0.53190600  1
  I  I6  1  0.58079500  0.88623200  0.46730600  1
  I  I7  1  0.91851300  0.38660100  0.53190600  1
  I  I8  1  0.08079500  0.38623200  0.46730600  1
  I  I9  1  0.91865300  0.12563200  0.41704200  1
  I  I10  1  0.08202400  0.12587100  0.58056800  1
  I  I11  1  0.41865300  0.62563200  0.41704200  1
  I  I12  1  0.58202400  0.62587100  0.58056800  1
  I  I13  1  0.03719700  0.91870400  0.28623500  1
  I  I14  1  0.96289100  0.91960300  0.71411900  1
  I  I15  1  0.53719700  0.41870400  0.28623500  1
  I  I16  1  0.46289100  0.41960300  0.71411900  1
  I  I17  1  0.70036200  0.94806200  0.16913700  1
  I  I18  1  0.29971800  0.94955700  0.83286700  1
  I  I19  1  0.20036200  0.44806100  0.16913800  1
  I  I20  1  0.79971800  0.44955700  0.83286700  1
  I  I21  1  0.60656900  0.94127200  0.26614200  1
  I  I22  1  0.39363700  0.94315700  0.73592900  1
  I  I23  1  0.10656900  0.44127200  0.26614200  1
  I  I24  1  0.89363700  0.44315700  0.73592900  1
  O  O1  1  0.94394000  0.02940300  0.04640500  1
  O  O2  1  0.05578900  0.02770800  0.95067700  1
  O  O3  1  0.44394000  0.52940300  0.04640500  1
  O  O4  1  0.55578900  0.52770800  0.95067700  1
  O  O5  1  0.94407400  0.96456200  0.04839500  1
  O  O6  1  0.05590400  0.96288900  0.95441400  1
  O  O7  1  0.44407400  0.46456200  0.04839500  1
  O  O8  1  0.55590400  0.46288900  0.95441400  1
  O  O9  1  0.99552200  0.02758700  0.09501500  1
  O  O10  1  0.00274500  0.02944600  0.90586500  1
  O  O11  1  0.49552200  0.52758700  0.09501600  1
  O  O12  1  0.50274500  0.52944600  0.90586500  1
  O  O13  1  0.99657600  0.96280800  0.09463800  1
  O  O14  1  0.00496900  0.96465800  0.90433700  1
  O  O15  1  0.49657600  0.46280800  0.09463800  1
  O  O16  1  0.50496900  0.46465800  0.90433700  1
  O  O17  1  0.03348500  0.93671400  0.46413700  1
  O  O18  1  0.96883700  0.93674600  0.53418500  1
  O  O19  1  0.53348500  0.43671400  0.46413700  1
  O  O20  1  0.46883700  0.43674600  0.53418500  1
  O  O21  1  0.03110200  0.99215600  0.37640600  1
  O  O22  1  0.96919300  0.99393400  0.62348000  1
  O  O23  1  0.53110200  0.49215600  0.37640600  1
  O  O24  1  0.46919300  0.49393400  0.62348000  1
  O  O25  1  0.96628300  0.99332800  0.44368100  1
  O  O26  1  0.03402000  0.99210800  0.55620600  1
  O  O27  1  0.46628300  0.49332800  0.44368100  1
  O  O28  1  0.53402000  0.49210800  0.55620600  1
  O  O29  1  0.03151700  0.04889000  0.46612400  1
  O  O30  1  0.96678800  0.04891600  0.53531400  1
  O  O31  1  0.53151700  0.54889000  0.46612400  1
  O  O32  1  0.46678800  0.54891600  0.53531400  1
  O  O33  1  0.50393900  0.93663800  0.54764400  1
  O  O34  1  0.49563200  0.93656500  0.45065200  1
  O  O35  1  0.00393900  0.43663800  0.54764400  1
  O  O36  1  0.99563200  0.43656500  0.45065200  1
  O  O37  1  0.55911500  0.99349100  0.48836300  1
  O  O38  1  0.44075700  0.99230600  0.51225900  1
  O  O39  1  0.05911500  0.49349100  0.48836300  1
  O  O40  1  0.94075700  0.49230600  0.51225900  1
  O  O41  1  0.55243100  0.99207400  0.38984300  1
  O  O42  1  0.44742700  0.99357200  0.61081700  1
  O  O43  1  0.05243100  0.49207400  0.38984400  1
  O  O44  1  0.94742700  0.49357200  0.61081700  1
  O  O45  1  0.50414900  0.04880400  0.54988400  1
  O  O46  1  0.49600600  0.04872700  0.45292400  1
  O  O47  1  0.00414900  0.54880400  0.54988400  1
  O  O48  1  0.99600600  0.54872700  0.45292400  1
