# generated using pymatgen
data_Zn6H44C59O33
_symmetry_space_group_name_H-M   'P 1'
_cell_length_a   18.74462400
_cell_length_b   18.83426700
_cell_length_c   18.96782600
_cell_angle_alpha   109.31908700
_cell_angle_beta   109.74215500
_cell_angle_gamma   108.96559000
_symmetry_Int_Tables_number   1
_chemical_formula_structural   Zn6H44C59O33
_chemical_formula_sum   'Zn6 H44 C59 O33'
_cell_volume   5179.19456969
_cell_formula_units_Z   1
loop_
 _symmetry_equiv_pos_site_id
 _symmetry_equiv_pos_as_xyz
  1  'x, y, z'
loop_
 _atom_site_type_symbol
 _atom_site_label
 _atom_site_symmetry_multiplicity
 _atom_site_fract_x
 _atom_site_fract_y
 _atom_site_fract_z
 _atom_site_occupancy
  Zn  Zn1  1  0.49904700  0.42693100  0.43069000  1
  Zn  Zn2  1  0.49379300  0.56315200  0.56623100  1
  Zn  Zn3  1  0.93123600  0.43091100  0.00509100  1
  Zn  Zn4  1  0.07044800  0.56554800  0.00166000  1
  Zn  Zn5  1  0.06877500  0.99765800  0.57212900  1
  Zn  Zn6  1  0.92825600  0.99583200  0.43173500  1
  H  H1  1  0.19192900  0.58028800  0.31336300  1
  H  H2  1  0.30938500  0.55576700  0.17419500  1
  H  H3  1  0.12848800  0.34623500  0.14290500  1
  H  H4  1  0.18588700  0.43072200  0.32191900  1
  H  H5  1  0.74295900  0.76940700  0.63474900  1
  H  H6  1  0.75138200  0.72538800  0.36790400  1
  H  H7  1  0.63915000  0.61115300  0.36535200  1
  H  H8  1  0.61401000  0.48028700  0.75359100  1
  H  H9  1  0.72580900  0.47880500  0.86574100  1
  H  H10  1  0.88780400  0.52434700  0.75469200  1
  H  H11  1  0.23123400  0.36917100  0.49547000  1
  H  H12  1  0.11781100  0.25624600  0.49345800  1
  H  H13  1  0.26325400  0.12291400  0.50478900  1
  H  H14  1  0.37351700  0.23258300  0.50015900  1
  H  H15  1  0.99994000  0.87451600  0.24249400  1
  H  H16  1  0.00088700  0.62159100  0.26315300  1
  H  H17  1  0.12970100  0.23704500  0.77689900  1
  H  H18  1  0.72358700  0.39016500  0.57399400  1
  H  H19  1  0.83063500  0.44818800  0.58877000  1
  H  H20  1  0.73529600  0.43197700  0.50334900  1
  H  H21  1  0.13606200  0.83280200  0.20324400  1
  H  H22  1  0.09314400  0.89532900  0.16676500  1
  H  H23  1  0.10568700  0.81481100  0.09545400  1
  H  H24  1  0.30648400  0.69404900  0.29865100  1
  H  H25  1  0.40421900  0.70580400  0.29244700  1
  H  H26  1  0.41197900  0.77653700  0.38914900  1
  H  H27  1  0.13458200  0.79545200  0.43703900  1
  H  H28  1  0.09150200  0.69063900  0.43029500  1
  H  H29  1  0.10296100  0.78274400  0.51378100  1
  H  H30  1  0.15774800  0.42338900  0.83346100  1
  H  H31  1  0.24576900  0.40211800  0.87692500  1
  H  H32  1  0.23661400  0.48688500  0.94702300  1
  H  H33  1  0.90021400  0.23309500  0.57744200  1
  H  H34  1  0.78902600  0.19883400  0.55505600  1
  H  H35  1  0.81229600  0.13326900  0.48182700  1
  H  H36  1  0.84147900  0.16948000  0.77529800  1
  H  H37  1  0.74453700  0.13234300  0.67719800  1
  H  H38  1  0.77125900  0.21548100  0.77914500  1
  H  H39  1  0.32711000  0.43718900  0.09452400  1
  H  H40  1  0.21498800  0.36644700  0.06121000  1
  H  H41  1  0.28729100  0.32382600  0.05835000  1
  H  H42  1  0.92889300  0.82050200  0.65791200  1
  H  H43  1  0.91090500  0.86318700  0.74721600  1
  H  H44  1  0.99649200  0.93320200  0.73880800  1
  C  C1  1  0.61628400  0.61479900  0.49839300  1
  C  C2  1  0.37545100  0.49253100  0.37596600  1
  C  C3  1  0.37661500  0.37535200  0.49860600  1
  C  C4  1  0.61775000  0.49788300  0.62091600  1
  C  C5  1  0.30995600  0.57103600  0.30307100  1
  C  C6  1  0.21711000  0.54002500  0.28451300  1
  C  C7  1  0.18863000  0.49423000  0.18943000  1
  C  C8  1  0.28241800  0.52760600  0.20832800  1
  C  C9  1  0.27637700  0.44715900  0.21271200  1
  C  C10  1  0.18264400  0.41281700  0.19173100  1
  C  C11  1  0.21296200  0.45898500  0.28791700  1
  C  C12  1  0.30635900  0.49186900  0.30729300  1
  C  C13  1  0.74519100  0.75913400  0.57616500  1
  C  C14  1  0.81159700  0.82157600  0.57860500  1
  C  C15  1  0.81317900  0.81002400  0.50333900  1
  C  C16  1  0.75018500  0.73485600  0.42681000  1
  C  C17  1  0.68722800  0.67033400  0.42555000  1
  C  C18  1  0.68392700  0.68271500  0.50004200  1
  C  C19  1  0.67382900  0.48920500  0.75326300  1
  C  C20  1  0.73667600  0.48787600  0.81616100  1
  C  C21  1  0.81403000  0.50113400  0.81730600  1
  C  C22  1  0.82732500  0.51370200  0.75414300  1
  C  C23  1  0.76224800  0.50949000  0.68800700  1
  C  C24  1  0.68581700  0.49877000  0.68841500  1
  C  C25  1  0.23814000  0.31479500  0.49689200  1
  C  C26  1  0.17406200  0.25099500  0.49525700  1
  C  C27  1  0.18348600  0.18259800  0.49938700  1
  C  C28  1  0.25582500  0.17672700  0.50225600  1
  C  C29  1  0.31747500  0.23799800  0.49887100  1
  C  C30  1  0.30934800  0.30782200  0.49751600  1
  C  C31  1  0.00214600  0.61925000  0.12300600  1
  C  C32  1  0.12001300  0.49500800  0.12194500  1
  C  C33  1  0.99932400  0.37718900  0.88352900  1
  C  C34  1  0.88159200  0.50140000  0.88470600  1
  C  C35  1  0.00014100  0.87736600  0.38358800  1
  C  C36  1  0.88030500  0.87716100  0.50372900  1
  C  C37  1  0.99642500  0.11591000  0.62043600  1
  C  C38  1  0.11671400  0.11637400  0.50013400  1
  C  C39  1  0.00617200  0.75971500  0.18615800  1
  C  C40  1  0.00201100  0.81983600  0.24806900  1
  C  C41  1  0.00297000  0.81186500  0.31809400  1
  C  C42  1  0.00523900  0.74155900  0.32473600  1
  C  C43  1  0.00262900  0.67814100  0.25946300  1
  C  C44  1  0.00459500  0.68752200  0.19091100  1
  C  C45  1  0.07276600  0.30563900  0.82827200  1
  C  C46  1  0.07075200  0.24066800  0.76518400  1
  C  C47  1  0.99533700  0.18297300  0.68662100  1
  C  C48  1  0.92025500  0.18873700  0.67267000  1
  C  C49  1  0.92039200  0.24879300  0.73916700  1
  C  C50  1  0.99721200  0.30880900  0.81606800  1
  C  C51  1  0.76610100  0.44424000  0.57046600  1
  C  C52  1  0.08905000  0.83111700  0.14733600  1
  C  C53  1  0.37485400  0.70945600  0.33451800  1
  C  C54  1  0.08714100  0.75072100  0.44568500  1
  C  C55  1  0.19957000  0.42150800  0.88965100  1
  C  C56  1  0.83614100  0.17663600  0.55051400  1
  C  C57  1  0.79848800  0.18926500  0.74011300  1
  C  C58  1  0.28332900  0.38091200  0.09443700  1
  C  C59  1  0.92969300  0.87729400  0.70185600  1
  O  O1  1  0.58760600  0.53416600  0.44390700  1
  O  O2  1  0.58770300  0.63737200  0.55179500  1
  O  O3  1  0.40687800  0.44168800  0.35285000  1
  O  O4  1  0.40148000  0.54378100  0.45663400  1
  O  O5  1  0.40703400  0.35261500  0.44702100  1
  O  O6  1  0.40323400  0.45594800  0.55110500  1
  O  O7  1  0.59303700  0.44817700  0.54030500  1
  O  O8  1  0.58410300  0.54646100  0.64397800  1
  O  O9  1  0.95075700  0.53889100  0.09844800  1
  O  O10  1  0.05236800  0.64090900  0.09094000  1
  O  O11  1  0.03846300  0.44526800  0.09655000  1
  O  O12  1  0.14425100  0.54557200  0.09112500  1
  O  O13  1  0.94796200  0.35545600  0.91450500  1
  O  O14  1  0.05244200  0.45755700  0.90974000  1
  O  O15  1  0.85762300  0.45222700  0.91694100  1
  O  O16  1  0.96313700  0.54973000  0.90892100  1
  O  O17  1  0.05040400  0.90425700  0.46511300  1
  O  O18  1  0.94873800  0.90778400  0.35777200  1
  O  O19  1  0.96207100  0.90850600  0.55945300  1
  O  O20  1  0.85562500  0.90243700  0.44755400  1
  O  O21  1  0.05087300  0.08837800  0.64606400  1
  O  O22  1  0.94430700  0.08695800  0.53879600  1
  O  O23  1  0.14157600  0.08849200  0.55380500  1
  O  O24  1  0.03486000  0.08749900  0.44674400  1
  O  O25  1  0.77624800  0.52207700  0.62576200  1
  O  O26  1  0.00454700  0.76845300  0.11690900  1
  O  O27  1  0.37999000  0.65351600  0.36702900  1
  O  O28  1  0.00278200  0.73073800  0.39191900  1
  O  O29  1  0.14833700  0.36291500  0.90535900  1
  O  O30  1  0.84431300  0.13160800  0.59572300  1
  O  O31  1  0.84578300  0.25286800  0.72659700  1
  O  O32  1  0.30983200  0.39673400  0.17895500  1
  O  O33  1  0.87193000  0.89716600  0.65436200  1
