# generated using pymatgen
data_Zn6H32C71O45
_symmetry_space_group_name_H-M   'P 1'
_cell_length_a   19.06489600
_cell_length_b   18.90799200
_cell_length_c   18.95750400
_cell_angle_alpha   109.16730400
_cell_angle_beta   109.93031900
_cell_angle_gamma   109.35316700
_symmetry_Int_Tables_number   1
_chemical_formula_structural   Zn6H32C71O45
_chemical_formula_sum   'Zn6 H32 C71 O45'
_cell_volume   5258.04417202
_cell_formula_units_Z   1
loop_
 _symmetry_equiv_pos_site_id
 _symmetry_equiv_pos_as_xyz
  1  'x, y, z'
loop_
 _atom_site_type_symbol
 _atom_site_label
 _atom_site_symmetry_multiplicity
 _atom_site_fract_x
 _atom_site_fract_y
 _atom_site_fract_z
 _atom_site_occupancy
  Zn  Zn1  1  0.50247700  0.43378900  0.43259300  1
  Zn  Zn2  1  0.50109400  0.56993500  0.57025900  1
  Zn  Zn3  1  0.92898900  0.43130200  0.00079300  1
  Zn  Zn4  1  0.06660300  0.56545700  0.99790300  1
  Zn  Zn5  1  0.92836600  0.00150600  0.42715200  1
  Zn  Zn6  1  0.06662000  0.99953200  0.56429500  1
  H  H1  1  0.69695300  0.40277200  0.59726200  1
  H  H2  1  0.71827000  0.45573200  0.84683300  1
  H  H3  1  0.78398300  0.56461900  0.90054300  1
  H  H4  1  0.77672600  0.62974700  0.73756800  1
  H  H5  1  0.24580100  0.12010100  0.49003700  1
  H  H6  1  0.26194400  0.63414500  0.25138800  1
  H  H7  1  0.88115600  0.87676800  0.63148000  1
  H  H8  1  0.13142100  0.25861200  0.75851700  1
  H  H9  1  0.04816800  0.78770100  0.15043500  1
  H  H10  1  0.04372100  0.89718400  0.25945900  1
  H  H11  1  0.94875000  0.60740000  0.22693400  1
  H  H12  1  0.90698000  0.66319500  0.93321700  1
  H  H13  1  0.21856200  0.43415800  0.53954500  1
  H  H14  1  0.08351400  0.30967400  0.47583000  1
  H  H15  1  0.43086800  0.25976600  0.48494900  1
  H  H16  1  0.39486300  0.72254500  0.38345300  1
  H  H17  1  0.06994300  0.32547800  0.05024700  1
  H  H18  1  0.57410300  0.28548500  0.53631300  1
  H  H19  1  0.25788000  0.34136400  0.30693900  1
  H  H20  1  0.83790600  0.84678000  0.72284700  1
  H  H21  1  0.78060400  0.74664100  0.32377500  1
  H  H22  1  0.53719000  0.58561700  0.34038900  1
  H  H23  1  0.21367500  0.39928000  0.88529300  1
  H  H24  1  0.83473200  0.02870900  0.58216800  1
  H  H25  1  0.82277400  0.26121600  0.76958000  1
  H  H26  1  0.70535300  0.26637900  0.67066500  1
  H  H27  1  0.92836900  0.75466200  0.39684000  1
  H  H28  1  0.80723800  0.39077700  0.62193900  1
  H  H29  1  0.79807100  0.50588200  0.60642400  1
  H  H30  1  0.94600500  0.53899900  0.76648900  1
  H  H31  1  0.70540900  0.65141200  0.79862600  1
  H  H32  1  0.58423500  0.41438700  0.78150200  1
  C  C1  1  0.37938400  0.37870800  0.49537900  1
  C  C2  1  0.61856600  0.49699000  0.62069200  1
  C  C3  1  0.62342900  0.62494500  0.50698500  1
  C  C4  1  0.38449600  0.50580400  0.38260000  1
  C  C5  1  0.68573600  0.40903800  0.65139600  1
  C  C6  1  0.75845200  0.40737100  0.71720000  1
  C  C7  1  0.77578100  0.56789300  0.71586500  1
  C  C8  1  0.67991700  0.51613500  0.77313400  1
  C  C9  1  0.68762900  0.49658200  0.68990300  1
  C  C10  1  0.81086800  0.49606200  0.80398700  1
  C  C11  1  0.84973400  0.57494000  0.78985200  1
  C  C12  1  0.74855500  0.50775900  0.83534400  1
  C  C13  1  0.24165300  0.32360600  0.49663900  1
  C  C14  1  0.17908800  0.26461200  0.50150600  1
  C  C15  1  0.18190200  0.19167800  0.49946600  1
  C  C16  1  0.24638800  0.17831400  0.49293800  1
  C  C17  1  0.30920200  0.23597600  0.48812600  1
  C  C18  1  0.30854000  0.31090600  0.49170300  1
  C  C19  1  0.32286500  0.57961200  0.31477500  1
  C  C20  1  0.25631400  0.57529200  0.25119600  1
  C  C21  1  0.18294800  0.49767300  0.18757000  1
  C  C22  1  0.17559900  0.42154300  0.18592200  1
  C  C23  1  0.24247700  0.42469300  0.24956100  1
  C  C24  1  0.31584000  0.50388400  0.31484500  1
  C  C25  1  0.76271400  0.76446700  0.58028500  1
  C  C26  1  0.82392300  0.82136000  0.57332100  1
  C  C27  1  0.81320400  0.81092000  0.49440200  1
  C  C28  1  0.73903400  0.74155700  0.41918600  1
  C  C29  1  0.67739700  0.68161300  0.42444700  1
  C  C30  1  0.68872800  0.69228200  0.50487600  1
  C  C31  1  0.99628100  0.37352500  0.88320800  1
  C  C32  1  0.88022800  0.49699900  0.87455300  1
  C  C33  1  0.99939500  0.62261100  0.11570000  1
  C  C34  1  0.11510400  0.49839900  0.12193500  1
  C  C35  1  0.99673700  0.88340700  0.37341500  1
  C  C36  1  0.11490000  0.12391700  0.49811400  1
  C  C37  1  0.99749600  0.11673200  0.61816300  1
  C  C38  1  0.87983400  0.87735400  0.49358500  1
  C  C39  1  0.07312900  0.31306600  0.82066700  1
  C  C40  1  0.07153900  0.25111100  0.75539700  1
  C  C41  1  0.99520600  0.17991100  0.68625200  1
  C  C42  1  0.91840700  0.16772900  0.68344500  1
  C  C43  1  0.91886800  0.22839600  0.75013400  1
  C  C44  1  0.99613900  0.30407200  0.81724300  1
  C  C45  1  0.02590800  0.77182600  0.19143700  1
  C  C46  1  0.02270200  0.83347300  0.25248300  1
  C  C47  1  0.99522800  0.81522900  0.30629700  1
  C  C48  1  0.96856200  0.73334200  0.29725000  1
  C  C49  1  0.96980300  0.67123700  0.23440600  1
  C  C50  1  0.99898400  0.69014300  0.18181400  1
  C  C51  1  0.88923100  0.65962100  0.87096700  1
  C  C52  1  0.23519500  0.39902100  0.49622600  1
  C  C53  1  0.11087400  0.28068500  0.50960700  1
  C  C54  1  0.37558800  0.21536900  0.48160700  1
  C  C55  1  0.40000900  0.66565400  0.37718800  1
  C  C56  1  0.09781000  0.33832900  0.11644500  1
  C  C57  1  0.60001500  0.32777100  0.60436600  1
  C  C58  1  0.23671400  0.34431600  0.24772300  1
  C  C59  1  0.78326400  0.78484700  0.66953700  1
  C  C60  1  0.72666400  0.73217500  0.33484000  1
  C  C61  1  0.59947100  0.60625400  0.34471600  1
  C  C62  1  0.15860900  0.38314600  0.89456500  1
  C  C63  1  0.83728100  0.09027900  0.60954400  1
  C  C64  1  0.83794100  0.21044100  0.75092700  1
  C  C65  1  0.72026700  0.32617600  0.72175300  1
  C  C66  1  0.93609400  0.71008600  0.35122900  1
  C  C67  1  0.81497700  0.39251400  0.68186200  1
  C  C68  1  0.78908600  0.55765100  0.64007400  1
  C  C69  1  0.92211900  0.58365100  0.77058700  1
  C  C70  1  0.69400400  0.60539600  0.82107500  1
  C  C71  1  0.59258400  0.45728600  0.75494400  1
  O  O1  1  0.40890100  0.35599600  0.44366000  1
  O  O2  1  0.40883300  0.46015100  0.54886300  1
  O  O3  1  0.58870200  0.44375800  0.53924500  1
  O  O4  1  0.59292700  0.55275600  0.64342000  1
  O  O5  1  0.59684300  0.54358100  0.45641200  1
  O  O6  1  0.59104000  0.64794000  0.55560000  1
  O  O7  1  0.41358600  0.45360100  0.35914100  1
  O  O8  1  0.41202000  0.55760300  0.46379700  1
  O  O9  1  0.94604700  0.35213000  0.91447400  1
  O  O10  1  0.04650800  0.45465500  0.90813000  1
  O  O11  1  0.85740000  0.44594500  0.90532800  1
  O  O12  1  0.96119500  0.55107000  0.90572900  1
  O  O13  1  0.94875900  0.54187700  0.09036200  1
  O  O14  1  0.05024200  0.64481900  0.08506200  1
  O  O15  1  0.03424100  0.44619100  0.09373900  1
  O  O16  1  0.13875700  0.55129200  0.09336000  1
  O  O17  1  0.94618100  0.91435900  0.34967200  1
  O  O18  1  0.04734600  0.90915600  0.45465800  1
  O  O19  1  0.03404200  0.09408100  0.44344900  1
  O  O20  1  0.13896600  0.09378900  0.54968500  1
  O  O21  1  0.94652600  0.09079600  0.53680400  1
  O  O22  1  0.05016100  0.08798300  0.64181800  1
  O  O23  1  0.85613100  0.90632400  0.44072800  1
  O  O24  1  0.96080600  0.90822100  0.54919500  1
  O  O25  1  0.91007500  0.72739000  0.86970300  1
  O  O26  1  0.24333600  0.41975600  0.44379700  1
  O  O27  1  0.08698200  0.26532900  0.55758900  1
  O  O28  1  0.36941600  0.14640500  0.47300400  1
  O  O29  1  0.47091500  0.67466100  0.41600000  1
  O  O30  1  0.06077900  0.28547900  0.13309700  1
  O  O31  1  0.56031900  0.30586900  0.63898600  1
  O  O32  1  0.21402000  0.28219600  0.18075500  1
  O  O33  1  0.74393700  0.73355000  0.68611800  1
  O  O34  1  0.65772900  0.71454400  0.27901800  1
  O  O35  1  0.60476900  0.56258800  0.28514200  1
  O  O36  1  0.17064000  0.41595700  0.96777400  1
  O  O37  1  0.77381700  0.09548700  0.57456600  1
  O  O38  1  0.78998200  0.13957500  0.73677200  1
  O  O39  1  0.70221900  0.32296800  0.77678500  1
  O  O40  1  0.91596400  0.63883100  0.34428300  1
  O  O41  1  0.86922300  0.37719600  0.71901800  1
  O  O42  1  0.79346900  0.61133500  0.61719100  1
  O  O43  1  0.96257400  0.64818500  0.76941500  1
  O  O44  1  0.68633400  0.62530500  0.88496400  1
  O  O45  1  0.53005300  0.46161100  0.71537100  1
