# generated using pymatgen
data_V2H12C29O18
_symmetry_space_group_name_H-M   'P 1'
_cell_length_a   6.70532500
_cell_length_b   20.40191000
_cell_length_c   23.85986400
_cell_angle_alpha   90.17091900
_cell_angle_beta   89.97768200
_cell_angle_gamma   90.01212500
_symmetry_Int_Tables_number   1
_chemical_formula_structural   V2H12C29O18
_chemical_formula_sum   'V4 H24 C58 O36'
_cell_volume   3264.04884274
_cell_formula_units_Z   2
loop_
 _symmetry_equiv_pos_site_id
 _symmetry_equiv_pos_as_xyz
  1  'x, y, z'
loop_
 _atom_site_type_symbol
 _atom_site_label
 _atom_site_symmetry_multiplicity
 _atom_site_fract_x
 _atom_site_fract_y
 _atom_site_fract_z
 _atom_site_occupancy
  V  V1  1  0.93194800  0.49276900  0.50238000  1
  V  V2  1  0.43196400  0.50953700  0.50242000  1
  V  V3  1  0.30351100  0.00539400  0.99979000  1
  V  V4  1  0.80363400  0.99053200  0.99968600  1
  H  H1  1  0.88519800  0.73342400  0.83086300  1
  H  H2  1  0.94074600  0.65379900  0.76562200  1
  H  H3  1  0.43378800  0.72137200  0.72217600  1
  H  H4  1  0.41705600  0.78493000  0.79875000  1
  H  H5  1  0.98011000  0.78861300  0.65983200  1
  H  H6  1  0.24997800  0.79104600  0.66098200  1
  H  H7  1  0.97106000  0.86271800  0.72944300  1
  H  H8  1  0.79953000  0.70330300  0.71731600  1
  H  H9  1  0.42039700  0.73921900  0.30161200  1
  H  H10  1  0.81693300  0.68267300  0.27329800  1
  H  H11  1  0.79831500  0.75870300  0.19365100  1
  H  H12  1  0.31284100  0.30945000  0.72664000  1
  H  H13  1  0.29523100  0.22781000  0.80219900  1
  H  H14  1  0.89801900  0.17334300  0.77001900  1
  H  H15  1  0.31778600  0.31821800  0.27188700  1
  H  H16  1  0.89990400  0.18283700  0.22302400  1
  H  H17  1  0.54320900  0.82549000  0.71705800  1
  H  H18  1  0.52023700  0.91445200  0.76981000  1
  H  H19  1  0.72724100  0.85075100  0.23274500  1
  H  H20  1  0.11097400  0.30293000  0.62603500  1
  H  H21  1  0.97213100  0.26739100  0.17203200  1
  H  H22  1  0.11349600  0.30327300  0.37323200  1
  H  H23  1  0.49097600  0.55817000  0.76850700  1
  H  H24  1  0.11879000  0.65166900  0.89633000  1
  C  C1  1  0.64971100  0.42255900  0.58152900  1
  C  C2  1  0.65012900  0.42282600  0.42258700  1
  C  C3  1  0.15025600  0.57948900  0.42314500  1
  C  C4  1  0.14988800  0.57966000  0.58213700  1
  C  C5  1  0.93208700  0.70231600  0.74507500  1
  C  C6  1  0.30109500  0.70753300  0.74712500  1
  C  C7  1  0.28202900  0.75366600  0.79669100  1
  C  C8  1  0.08756500  0.88342900  0.87371400  1
  C  C9  1  0.11841500  0.71403400  0.71047800  1
  C  C10  1  0.91202400  0.75553100  0.78917200  1
  C  C11  1  0.09916200  0.79682900  0.78956000  1
  C  C12  1  0.10747600  0.83248200  0.73400400  1
  C  C13  1  0.11418500  0.78281100  0.68656200  1
  C  C14  1  0.09073300  0.84449700  0.83556900  1
  C  C15  1  0.12868400  0.66607200  0.66471900  1
  C  C16  1  0.13798100  0.62659500  0.62706200  1
  C  C17  1  0.28383500  0.74346800  0.27783500  1
  C  C18  1  0.11967600  0.70647000  0.29224900  1
  C  C19  1  0.94545100  0.71175800  0.26195700  1
  C  C20  1  0.93512400  0.75426900  0.21729100  1
  C  C21  1  0.09910800  0.79136600  0.20293800  1
  C  C22  1  0.27347800  0.78600000  0.23316600  1
  C  C23  1  0.13027600  0.66220900  0.33865900  1
  C  C24  1  0.08684500  0.83648700  0.15717300  1
  C  C25  1  0.07491400  0.87494400  0.11916400  1
  C  C26  1  0.13919600  0.62471200  0.37742800  1
  C  C27  1  0.43121500  0.23359200  0.77836900  1
  C  C28  1  0.59538200  0.19550600  0.79048600  1
  C  C29  1  0.76919600  0.20306100  0.76031800  1
  C  C30  1  0.77918400  0.24885400  0.71809000  1
  C  C31  1  0.61536400  0.28709400  0.70607000  1
  C  C32  1  0.44118300  0.27939700  0.73608700  1
  C  C33  1  0.58766000  0.14901600  0.83535300  1
  C  C34  1  0.62678400  0.33503900  0.66240000  1
  C  C35  1  0.63716500  0.37515100  0.62560300  1
  C  C36  1  0.58482100  0.11044000  0.87343300  1
  C  C37  1  0.43541600  0.24516400  0.21675700  1
  C  C38  1  0.59853800  0.20720200  0.20300300  1
  C  C39  1  0.77213500  0.21269100  0.23366000  1
  C  C40  1  0.78251300  0.25606000  0.27805000  1
  C  C41  1  0.61925300  0.29395000  0.29185000  1
  C  C42  1  0.44581000  0.28854200  0.26112400  1
  C  C43  1  0.58636100  0.16126600  0.15738300  1
  C  C44  1  0.62986000  0.33906300  0.33809500  1
  C  C45  1  0.63886900  0.37711900  0.37678200  1
  C  C46  1  0.57464300  0.12225000  0.11945900  1
  C  C47  1  0.55848500  0.07506200  0.07488300  1
  C  C48  1  0.58639800  0.06525700  0.91931300  1
  C  C49  1  0.08837800  0.92934500  0.91951700  1
  C  C50  1  0.05843500  0.92155900  0.07461500  1
  C  C51  1  0.74163700  0.79850600  0.77392700  1
  C  C52  1  0.28500700  0.87622700  0.73176100  1
  C  C53  1  0.44682800  0.82556800  0.21801000  1
  C  C54  1  0.96363900  0.25711500  0.68627200  1
  C  C55  1  0.25123300  0.23924000  0.18444300  1
  C  C56  1  0.96637800  0.26173500  0.31054100  1
  C  C57  1  0.32575500  0.63857600  0.76647500  1
  C  C58  1  0.26613000  0.71563200  0.84975900  1
  O  O1  1  0.48355900  0.44687500  0.44119700  1
  O  O2  1  0.82418600  0.43273900  0.55963600  1
  O  O3  1  0.98342800  0.55546400  0.56358300  1
  O  O4  1  0.82440900  0.43285900  0.44470700  1
  O  O5  1  0.98361400  0.55553400  0.44157300  1
  O  O6  1  0.48331800  0.44672300  0.56319300  1
  O  O7  1  0.65804400  0.54233200  0.50253000  1
  O  O8  1  0.32453200  0.56954500  0.44514100  1
  O  O9  1  0.32428300  0.56945800  0.56008100  1
  O  O10  1  0.15782400  0.45997400  0.50227200  1
  O  O11  1  0.76081100  0.03554400  0.92781200  1
  O  O12  1  0.39243400  0.04029600  0.07289800  1
  O  O13  1  0.21192100  0.92629100  0.03967500  1
  O  O14  1  0.44748200  0.07495300  0.95861700  1
  O  O15  1  0.26149200  0.96011800  0.92775700  1
  O  O16  1  0.71162600  0.07029500  0.03972800  1
  O  O17  1  0.57842400  0.95433700  0.99905200  1
  O  O18  1  0.94783000  0.92067500  0.95857500  1
  O  O19  1  0.89287100  0.95642400  0.07284200  1
  O  O20  1  0.07837900  0.04181800  0.99883200  1
  O  O21  1  0.68729900  0.84164100  0.80591700  1
  O  O22  1  0.65080500  0.79131000  0.72190100  1
  O  O23  1  0.31931200  0.90778600  0.68954000  1
  O  O24  1  0.40954600  0.88216700  0.77809600  1
  O  O25  1  0.43741700  0.86326300  0.17855600  1
  O  O26  1  0.62259700  0.82023100  0.24860100  1
  O  O27  1  0.10864200  0.22338800  0.69700700  1
  O  O28  1  0.97381200  0.30347800  0.64374000  1
  O  O29  1  0.24189400  0.20083900  0.14529300  1
  O  O30  1  0.08653100  0.27741500  0.19835000  1
  O  O31  1  0.11060600  0.22820800  0.29839700  1
  O  O32  1  0.97684300  0.30538400  0.35534100  1
  O  O33  1  0.19661800  0.61242400  0.79454500  1
  O  O34  1  0.49721600  0.60391200  0.75230700  1
  O  O35  1  0.39307700  0.72199700  0.88592700  1
  O  O36  1  0.10663800  0.67323900  0.85834700  1
