# generated using pymatgen
data_Fe2H35C84S8(NO7)3
_symmetry_space_group_name_H-M   'P 1'
_cell_length_a   24.95023100
_cell_length_b   20.90326300
_cell_length_c   20.69189800
_cell_angle_alpha   90.02702300
_cell_angle_beta   111.36908300
_cell_angle_gamma   117.19957600
_symmetry_Int_Tables_number   1
_chemical_formula_structural   Fe2H35C84S8(NO7)3
_chemical_formula_sum   'Fe2 H35 C84 S8 N3 O21'
_cell_volume   8754.84839601
_cell_formula_units_Z   1
loop_
 _symmetry_equiv_pos_site_id
 _symmetry_equiv_pos_as_xyz
  1  'x, y, z'
loop_
 _atom_site_type_symbol
 _atom_site_label
 _atom_site_symmetry_multiplicity
 _atom_site_fract_x
 _atom_site_fract_y
 _atom_site_fract_z
 _atom_site_occupancy
  Fe  Fe1  1  0.48348600  0.98732400  0.12132600  1
  Fe  Fe2  1  0.50290000  0.01554200  0.86081900  1
  H  H1  1  0.28686800  0.03300800  0.78614000  1
  H  H2  1  0.20194700  0.02206800  0.82198600  1
  H  H3  1  0.99770800  0.91203900  0.79024500  1
  H  H4  1  0.67782500  0.96432200  0.97605400  1
  H  H5  1  0.81145700  0.02061100  0.87263300  1
  H  H6  1  0.88306100  0.99531800  0.84121200  1
  H  H7  1  0.91908100  0.92868600  0.81599900  1
  H  H8  1  0.27799100  0.93915100  0.00180400  1
  H  H9  1  0.20454000  0.02850300  0.13020800  1
  H  H10  1  0.03368600  0.98159700  0.17790000  1
  H  H11  1  0.73772600  0.09791400  0.20820400  1
  H  H12  1  0.82294800  0.09435500  0.18114800  1
  H  H13  1  0.12134300  0.02782700  0.16057700  1
  H  H14  1  0.50053900  0.49442900  0.38741800  1
  H  H15  1  0.53596300  0.53244400  0.63545500  1
  H  H16  1  0.43507200  0.20608200  0.41308200  1
  H  H17  1  0.61401500  0.31291400  0.64874500  1
  H  H18  1  0.41728900  0.70509600  0.55775200  1
  H  H19  1  0.54718000  0.78966000  0.42029800  1
  H  H20  1  0.56623800  0.23029300  0.21560700  1
  H  H21  1  0.56810600  0.33046100  0.28737000  1
  H  H22  1  0.42410100  0.62328800  0.19627700  1
  H  H23  1  0.40562400  0.70155700  0.10549700  1
  H  H24  1  0.63427500  0.90442900  0.83133600  1
  H  H25  1  0.61874100  0.79205400  0.76393600  1
  H  H26  1  0.54378400  0.37869700  0.81666100  1
  H  H27  1  0.53067100  0.28169900  0.89277000  1
  H  H28  1  0.56939600  0.71626700  0.51188300  1
  H  H29  1  0.41518300  0.60688400  0.48283800  1
  H  H30  1  0.59732100  0.38490500  0.55300700  1
  H  H31  1  0.44346900  0.30702300  0.49057700  1
  H  H32  1  0.99534900  0.01557300  0.26012900  1
  H  H33  1  0.93090900  0.92476200  0.33402000  1
  H  H34  1  0.99439800  0.91216500  0.32272600  1
  H  H35  1  0.91192800  0.83507700  0.29582800  1
  C  C1  1  0.11744500  0.94321600  0.88238800  1
  C  C2  1  0.19333700  0.99451600  0.00038700  1
  C  C3  1  0.27930600  0.95941200  0.95411000  1
  C  C4  1  0.33345100  0.97599900  0.93917800  1
  C  C5  1  0.28571900  0.01283400  0.83394600  1
  C  C6  1  0.23624000  0.00469900  0.85352600  1
  C  C7  1  0.23104200  0.97580800  0.91255700  1
  C  C8  1  0.08310900  0.97224800  0.96649100  1
  C  C9  1  0.07017500  0.94901500  0.89781900  1
  C  C10  1  0.00991000  0.93167400  0.84471600  1
  C  C11  1  0.14417400  0.99180000  0.01845600  1
  C  C12  1  0.33454000  0.99842700  0.87617500  1
  C  C13  1  0.66041400  0.03989500  0.10517300  1
  C  C14  1  0.93606000  0.98379700  0.94584600  1
  C  C15  1  0.99589800  0.99061200  0.06843900  1
  C  C16  1  0.94295400  0.99104200  0.01533900  1
  C  C17  1  0.88790100  0.99452800  0.89505400  1
  C  C18  1  0.84723400  0.01082900  0.91332400  1
  C  C19  1  0.85063800  0.01165400  0.98129700  1
  C  C20  1  0.89713800  0.99959900  0.03181800  1
  C  C21  1  0.89768700  0.99682100  0.09866900  1
  C  C22  1  0.84844300  0.00186100  0.11178400  1
  C  C23  1  0.80859000  0.02636700  0.99892900  1
  C  C24  1  0.69238100  0.99525600  0.02698800  1
  C  C25  1  0.64627100  0.00689100  0.03857700  1
  C  C26  1  0.72437900  0.07000300  0.15626700  1
  C  C27  1  0.77272400  0.06642900  0.14139600  1
  C  C28  1  0.75669500  0.02620800  0.07751300  1
  C  C29  1  0.97845800  0.96775800  0.92906300  1
  C  C30  1  0.03579700  0.97707000  0.98287700  1
  C  C31  1  0.04645900  0.99236000  0.05287300  1
  C  C32  1  0.96523400  0.94302700  0.85977400  1
  C  C33  1  0.15679700  0.01210600  0.08803100  1
  C  C34  1  0.99681500  0.98829500  0.13575100  1
  C  C35  1  0.94701000  0.98793400  0.15024300  1
  C  C36  1  0.10791000  0.01025300  0.10538300  1
  C  C37  1  0.60800200  0.03621200  0.12497300  1
  C  C38  1  0.45332800  0.85105400  0.15203600  1
  C  C39  1  0.39427800  0.98614200  0.99682600  1
  C  C40  1  0.48563000  0.08313300  0.21410800  1
  C  C41  1  0.53518800  0.94052900  0.78971700  1
  C  C42  1  0.58681500  0.99185800  0.97707300  1
  C  C43  1  0.54390900  0.16244200  0.85844600  1
  C  C44  1  0.38777300  0.00995000  0.85461700  1
  C  C45  1  0.50706800  0.61612500  0.42933500  1
  C  C46  1  0.53813100  0.69057000  0.45677000  1
  C  C47  1  0.45187200  0.63338000  0.53636400  1
  C  C48  1  0.50316900  0.61923500  0.57051100  1
  C  C49  1  0.51488300  0.57025200  0.54019300  1
  C  C50  1  0.50869800  0.56308000  0.47042800  1
  C  C51  1  0.52858900  0.52317900  0.58114100  1
  C  C52  1  0.53055700  0.46419400  0.55393600  1
  C  C53  1  0.51646500  0.45183700  0.48156400  1
  C  C54  1  0.50856900  0.50296400  0.44215500  1
  C  C55  1  0.54957600  0.42293500  0.60180200  1
  C  C56  1  0.58099000  0.38482100  0.59468500  1
  C  C57  1  0.46666100  0.31799400  0.45374600  1
  C  C58  1  0.50413200  0.38750300  0.44449500  1
  C  C59  1  0.46117700  0.26326500  0.41077800  1
  C  C60  1  0.49422400  0.28968500  0.36760600  1
  C  C61  1  0.57160200  0.35730900  0.69875900  1
  C  C62  1  0.59155300  0.34671500  0.64771900  1
  C  C63  1  0.45232000  0.68546200  0.57740900  1
  C  C64  1  0.50451300  0.71272800  0.64318400  1
  C  C65  1  0.48958500  0.68965800  0.33874000  1
  C  C66  1  0.52713900  0.73109800  0.40655200  1
  C  C67  1  0.50035700  0.24541500  0.32406400  1
  C  C68  1  0.57323200  0.32123300  0.75497000  1
  C  C69  1  0.52128200  0.77259400  0.69022700  1
  C  C70  1  0.47084400  0.71918200  0.28007200  1
  C  C71  1  0.49957900  0.14960600  0.25538800  1
  C  C72  1  0.53938800  0.21906100  0.24883000  1
  C  C73  1  0.53955200  0.27293500  0.28698800  1
  C  C74  1  0.43830500  0.68010800  0.21119500  1
  C  C75  1  0.42808600  0.72215300  0.16201200  1
  C  C76  1  0.45112800  0.79339700  0.19242500  1
  C  C77  1  0.53720200  0.88138800  0.75562600  1
  C  C78  1  0.59034800  0.86980900  0.78430100  1
  C  C79  1  0.58115900  0.80819200  0.74834300  1
  C  C80  1  0.55434100  0.33503400  0.81001500  1
  C  C81  1  0.54803300  0.28324800  0.85165100  1
  C  C82  1  0.56066600  0.23039500  0.83171600  1
  C  C83  1  0.92178300  0.91217700  0.22762400  1
  C  C84  1  0.94101900  0.89501300  0.29965000  1
  S  S1  1  0.53090900  0.38718300  0.37499800  1
  S  S2  1  0.53968800  0.41945300  0.68396000  1
  S  S3  1  0.55346500  0.66838100  0.66029300  1
  S  S4  1  0.46804200  0.59481400  0.33399700  1
  S  S5  1  0.45937600  0.14721200  0.31215400  1
  S  S6  1  0.48813600  0.81282400  0.28713400  1
  S  S7  1  0.47025800  0.81418900  0.67891700  1
  S  S8  1  0.58608900  0.24356900  0.75970500  1
  N  N1  1  0.17954700  0.96930900  0.93271600  1
  N  N2  1  0.80586200  0.01861100  0.06272700  1
  N  N3  1  0.95011700  0.98226400  0.21927800  1
  O  O1  1  0.10115400  0.91156300  0.81657600  1
  O  O2  1  0.77141800  0.05020600  0.95241900  1
  O  O3  1  0.25554600  0.02573200  0.05023400  1
  O  O4  1  0.84177600  0.98840200  0.17266400  1
  O  O5  1  0.54666200  0.00769700  0.07753400  1
  O  O6  1  0.44424100  0.84046700  0.08551700  1
  O  O7  1  0.62066500  0.05085300  0.19222800  1
  O  O8  1  0.46985100  0.91558200  0.18423300  1
  O  O9  1  0.39293700  0.94217200  0.04224100  1
  O  O10  1  0.44964500  0.04718400  0.01018300  1
  O  O11  1  0.52208000  0.08634300  0.18043100  1
  O  O12  1  0.43444400  0.02038700  0.20812700  1
  O  O13  1  0.47959700  0.93122000  0.79009700  1
  O  O14  1  0.59096500  0.99900100  0.82975500  1
  O  O15  1  0.57951800  0.04763200  0.95526800  1
  O  O16  1  0.54697600  0.92544300  0.93805700  1
  O  O17  1  0.40029200  0.05315400  0.80999500  1
  O  O18  1  0.53322400  0.10443700  0.82005400  1
  O  O19  1  0.42225700  0.97636200  0.87926400  1
  O  O20  1  0.53318900  0.15729000  0.91627400  1
  O  O21  1  0.88036200  0.86274500  0.17629400  1
