# generated using pymatgen
data_ZnH8C20I4N3O4
_symmetry_space_group_name_H-M   'P 1'
_cell_length_a   15.29697300
_cell_length_b   14.00037600
_cell_length_c   19.32005900
_cell_angle_alpha   90.00000000
_cell_angle_beta   90.00143200
_cell_angle_gamma   90.00000000
_symmetry_Int_Tables_number   1
_chemical_formula_structural   ZnH8C20I4N3O4
_chemical_formula_sum   'Zn2 H16 C40 I8 N6 O8'
_cell_volume   4137.64901349
_cell_formula_units_Z   2
loop_
 _symmetry_equiv_pos_site_id
 _symmetry_equiv_pos_as_xyz
  1  'x, y, z'
loop_
 _atom_site_type_symbol
 _atom_site_label
 _atom_site_symmetry_multiplicity
 _atom_site_fract_x
 _atom_site_fract_y
 _atom_site_fract_z
 _atom_site_occupancy
  Zn  Zn1  1  0.50002500  0.60848500  0.49998000  1
  Zn  Zn2  1  0.49999500  0.39141200  0.49999300  1
  H  H1  1  0.50559400  0.65257400  0.27915800  1
  H  H2  1  0.49863600  0.34704700  0.72064300  1
  H  H3  1  0.50069800  0.65272600  0.72080300  1
  H  H4  1  0.49505600  0.34707700  0.27935600  1
  H  H5  1  0.06064000  0.55635400  0.60274600  1
  H  H6  1  0.93953400  0.44415200  0.60277600  1
  H  H7  1  0.93940200  0.55643400  0.39728500  1
  H  H8  1  0.06047400  0.44419900  0.39721600  1
  H  H9  1  0.55090800  0.06552600  0.39703100  1
  H  H10  1  0.55206800  0.93434600  0.60259200  1
  H  H11  1  0.44909100  0.06551300  0.60294700  1
  H  H12  1  0.44793000  0.93435000  0.39738000  1
  H  H13  1  0.55054600  0.23954300  0.39873000  1
  H  H14  1  0.55167400  0.76031200  0.60088600  1
  H  H15  1  0.44946600  0.23952700  0.60126600  1
  H  H16  1  0.44836200  0.76031100  0.39906900  1
  C  C1  1  0.32823600  0.49995400  0.49994300  1
  C  C2  1  0.67178400  0.49996200  0.50003300  1
  C  C3  1  0.50010500  0.49992800  0.36440000  1
  C  C4  1  0.49991100  0.49994900  0.63557600  1
  C  C5  1  0.50285700  0.58496600  0.25227600  1
  C  C6  1  0.49939500  0.41465500  0.74760000  1
  C  C7  1  0.49990500  0.58506400  0.74769400  1
  C  C8  1  0.49781800  0.41461800  0.25239000  1
  C  C9  1  0.50283000  0.58497600  0.18090200  1
  C  C10  1  0.49944000  0.41442500  0.81897000  1
  C  C11  1  0.49965900  0.58512200  0.81907000  1
  C  C12  1  0.49796200  0.41439200  0.18101800  1
  C  C13  1  0.50037000  0.49963500  0.14490700  1
  C  C14  1  0.49954300  0.49972700  0.85511000  1
  C  C15  1  0.50024600  0.49984700  0.28845500  1
  C  C16  1  0.49975600  0.49990000  0.71152300  1
  C  C17  1  0.49970900  0.49961500  0.93087400  1
  C  C18  1  0.50013100  0.49956200  0.06917100  1
  C  C19  1  0.09483100  0.53089000  0.55740800  1
  C  C20  1  0.90528000  0.46955100  0.55744900  1
  C  C21  1  0.90520400  0.53093300  0.44261000  1
  C  C22  1  0.09473500  0.46957800  0.44254600  1
  C  C23  1  0.18539500  0.53173300  0.55722400  1
  C  C24  1  0.81471800  0.46841000  0.55727300  1
  C  C25  1  0.81464000  0.53176900  0.44278000  1
  C  C26  1  0.18529500  0.46844300  0.44271200  1
  C  C27  1  0.23157800  0.50001100  0.49996500  1
  C  C28  1  0.76844400  0.49999500  0.50001900  1
  C  C29  1  0.04847400  0.50030200  0.49998300  1
  C  C30  1  0.95155000  0.50030500  0.50002700  1
  C  C31  1  0.52742600  0.10243700  0.44250100  1
  C  C32  1  0.52810100  0.89744300  0.55727700  1
  C  C33  1  0.47257400  0.10243000  0.55748100  1
  C  C34  1  0.47190400  0.89744400  0.44269200  1
  C  C35  1  0.52764700  0.20084200  0.44356000  1
  C  C36  1  0.52831200  0.79904000  0.55621400  1
  C  C37  1  0.47236200  0.20083400  0.55643100  1
  C  C38  1  0.47171300  0.79904000  0.44374600  1
  C  C39  1  0.49999800  0.05228100  0.49998900  1
  C  C40  1  0.49999900  0.94759600  0.49998600  1
  I  I1  1  0.51176200  0.71692200  0.12878500  1
  I  I2  1  0.49393600  0.28190600  0.87066400  1
  I  I3  1  0.50496500  0.71753800  0.87091700  1
  I  I4  1  0.48918600  0.28227900  0.12910200  1
  I  I5  1  0.25104900  0.57820800  0.64695100  1
  I  I6  1  0.74922200  0.42173500  0.64701000  1
  I  I7  1  0.74902300  0.57833500  0.35306300  1
  I  I8  1  0.25077600  0.42177400  0.35296800  1
  N  N1  1  0.43072000  0.53396200  0.03437700  1
  N  N2  1  0.56911100  0.46519800  0.96568100  1
  N  N3  1  0.43050300  0.53396900  0.96595000  1
  N  N4  1  0.56931600  0.46514900  0.03410800  1
  N  N5  1  0.50000300  0.24853000  0.49999700  1
  N  N6  1  0.50001600  0.75136300  0.49997900  1
  O  O1  1  0.36963300  0.58227700  0.50002000  1
  O  O2  1  0.63039100  0.41762600  0.50011300  1
  O  O3  1  0.63041800  0.58229900  0.49994200  1
  O  O4  1  0.36959700  0.41760300  0.49987400  1
  O  O5  1  0.50004900  0.58221800  0.39685200  1
  O  O6  1  0.49986200  0.41768100  0.60311600  1
  O  O7  1  0.50003900  0.58222600  0.60311000  1
  O  O8  1  0.50008600  0.41766900  0.39687000  1
