# generated using pymatgen
data_ZnH36C34N7O8
_symmetry_space_group_name_H-M   'P 1'
_cell_length_a   16.12687700
_cell_length_b   14.96996100
_cell_length_c   19.33960200
_cell_angle_alpha   90.00000000
_cell_angle_beta   89.99531700
_cell_angle_gamma   90.00000000
_symmetry_Int_Tables_number   1
_chemical_formula_structural   ZnH36C34N7O8
_chemical_formula_sum   'Zn2 H72 C68 N14 O16'
_cell_volume   4668.94193956
_cell_formula_units_Z   2
loop_
 _symmetry_equiv_pos_site_id
 _symmetry_equiv_pos_as_xyz
  1  'x, y, z'
loop_
 _atom_site_type_symbol
 _atom_site_label
 _atom_site_symmetry_multiplicity
 _atom_site_fract_x
 _atom_site_fract_y
 _atom_site_fract_z
 _atom_site_occupancy
  Zn  Zn1  1  0.49730800  0.59947900  0.50441200  1
  Zn  Zn2  1  0.50063400  0.39625700  0.50440700  1
  H  H1  1  0.49942200  0.63967100  0.28514000  1
  H  H2  1  0.50169000  0.35597100  0.72375900  1
  H  H3  1  0.49599800  0.63975200  0.72390900  1
  H  H4  1  0.49588600  0.35593000  0.28498200  1
  H  H5  1  0.07818500  0.63801000  0.50881400  1
  H  H6  1  0.91971600  0.35745200  0.50006500  1
  H  H7  1  0.92563900  0.64176300  0.50884600  1
  H  H8  1  0.07229100  0.35368900  0.50005900  1
  H  H9  1  0.36961400  0.63642200  0.13741200  1
  H  H10  1  0.41496300  0.71469200  0.07716800  1
  H  H11  1  0.38348800  0.74426800  0.23230800  1
  H  H12  1  0.32913500  0.79356400  0.16113600  1
  H  H13  1  0.50802900  0.78764600  0.26037700  1
  H  H14  1  0.56669600  0.85986600  0.20635800  1
  H  H15  1  0.60854400  0.69700100  0.19676100  1
  H  H16  1  0.58449900  0.75295500  0.11719700  1
  H  H17  1  0.39441900  0.29290600  0.80823700  1
  H  H18  1  0.41626700  0.23887300  0.88901400  1
  H  H19  1  0.50360500  0.20757800  0.74969800  1
  H  H20  1  0.44375200  0.13266100  0.80063400  1
  H  H21  1  0.62439200  0.25552300  0.78369000  1
  H  H22  1  0.67473300  0.20946400  0.85810500  1
  H  H23  1  0.62689200  0.36528300  0.87760400  1
  H  H24  1  0.58036000  0.28610400  0.93649500  1
  H  H25  1  0.60226500  0.70180800  0.81122800  1
  H  H26  1  0.57792100  0.75561800  0.89163700  1
  H  H27  1  0.49556000  0.78784500  0.75047400  1
  H  H28  1  0.55430300  0.86239100  0.80264500  1
  H  H29  1  0.37298400  0.74177700  0.78100100  1
  H  H30  1  0.32096100  0.78740800  0.85474700  1
  H  H31  1  0.36696400  0.63062800  0.87383000  1
  H  H32  1  0.41140000  0.70869500  0.93466600  1
  H  H33  1  0.62263500  0.35588900  0.13768400  1
  H  H34  1  0.57528600  0.28076700  0.07618400  1
  H  H35  1  0.60773100  0.24568700  0.23053500  1
  H  H36  1  0.65855700  0.19615300  0.15774700  1
  H  H37  1  0.48193700  0.20837600  0.25923400  1
  H  H38  1  0.41998400  0.13815300  0.20609700  1
  H  H39  1  0.38264300  0.30201900  0.19721200  1
  H  H40  1  0.40433700  0.24616700  0.11706300  1
  H  H41  1  0.31289300  0.11449500  0.54853400  1
  H  H42  1  0.25930500  0.04931800  0.48333800  1
  H  H43  1  0.28322400  0.25271600  0.48275500  1
  H  H44  1  0.18936300  0.19259500  0.50045500  1
  H  H45  1  0.33998700  0.25117700  0.37738100  1
  H  H46  1  0.29180900  0.19137600  0.30763300  1
  H  H47  1  0.41542100  0.11007900  0.35110700  1
  H  H48  1  0.31965000  0.04847200  0.36434600  1
  H  H49  1  0.55568600  0.86851200  0.64696800  1
  H  H50  1  0.64783000  0.93588200  0.65762300  1
  H  H51  1  0.64108700  0.73428600  0.62715400  1
  H  H52  1  0.66990700  0.78709300  0.70685500  1
  H  H53  1  0.72008300  0.74825400  0.53275300  1
  H  H54  1  0.81645700  0.80831900  0.53583800  1
  H  H55  1  0.70921400  0.89745200  0.47528900  1
  H  H56  1  0.74285700  0.94850700  0.55631100  1
  H  H57  1  0.66629300  0.11092700  0.44479000  1
  H  H58  1  0.75659100  0.07831800  0.49252000  1
  H  H59  1  0.66971800  0.25860300  0.49231200  1
  H  H60  1  0.77403900  0.23053500  0.47257200  1
  H  H61  1  0.62480400  0.26492600  0.59703600  1
  H  H62  1  0.68913200  0.23977200  0.66882500  1
  H  H63  1  0.58134600  0.12055800  0.63850100  1
  H  H64  1  0.68690700  0.08604600  0.65185800  1
  H  H65  1  0.41301500  0.81260000  0.38694900  1
  H  H66  1  0.39304300  0.91541400  0.34170000  1
  H  H67  1  0.28129300  0.76032700  0.37326600  1
  H  H68  1  0.28012500  0.83812600  0.30255300  1
  H  H69  1  0.19935400  0.78600500  0.46659800  1
  H  H70  1  0.17691400  0.89994200  0.48869600  1
  H  H71  1  0.33184500  0.79997800  0.50358700  1
  H  H72  1  0.30049000  0.90455900  0.54250200  1
  C  C1  1  0.33696800  0.49408800  0.50454500  1
  C  C2  1  0.66098000  0.50166800  0.50432200  1
  C  C3  1  0.49870100  0.49780500  0.36899100  1
  C  C4  1  0.49909200  0.49791500  0.63985300  1
  C  C5  1  0.49943300  0.57747000  0.25722100  1
  C  C6  1  0.49921900  0.41813600  0.75167900  1
  C  C7  1  0.49793500  0.57750600  0.75175200  1
  C  C8  1  0.49565000  0.41823300  0.25717600  1
  C  C9  1  0.49949500  0.57811100  0.18574500  1
  C  C10  1  0.49785000  0.41748600  0.82318000  1
  C  C11  1  0.49793700  0.57797300  0.82324600  1
  C  C12  1  0.49404400  0.41775300  0.18571900  1
  C  C13  1  0.49658400  0.49794500  0.14970700  1
  C  C14  1  0.49758000  0.49772000  0.85915400  1
  C  C15  1  0.49806000  0.49782200  0.29311100  1
  C  C16  1  0.49884700  0.49785800  0.71578000  1
  C  C17  1  0.49712100  0.49782600  0.93517400  1
  C  C18  1  0.49655100  0.49801700  0.07362900  1
  C  C19  1  0.95786700  0.57849100  0.50690900  1
  C  C20  1  0.04005900  0.41696100  0.50199300  1
  C  C21  1  0.04333800  0.57637000  0.50690400  1
  C  C22  1  0.95457900  0.41908300  0.50198800  1
  C  C23  1  0.91351700  0.49983300  0.50444000  1
  C  C24  1  0.08441000  0.49562600  0.50446100  1
  C  C25  1  0.82459800  0.50181700  0.50441300  1
  C  C26  1  0.17333400  0.49369600  0.50448500  1
  C  C27  1  0.24803000  0.49311200  0.50451700  1
  C  C28  1  0.74990800  0.50252600  0.50437100  1
  C  C29  1  0.42987700  0.95643300  0.47448300  1
  C  C30  1  0.57210600  0.03934200  0.52747700  1
  C  C31  1  0.56489200  0.94660200  0.52815100  1
  C  C32  1  0.43582900  0.04911300  0.47652800  1
  C  C33  1  0.49481300  0.90620900  0.50181700  1
  C  C34  1  0.50588700  0.08949000  0.50274600  1
  C  C35  1  0.49392200  0.81028000  0.50320100  1
  C  C36  1  0.50589300  0.18541600  0.50393300  1
  C  C37  1  0.41504200  0.69151600  0.13162900  1
  C  C38  1  0.39024300  0.76784700  0.17827800  1
  C  C39  1  0.52035200  0.80516000  0.20572000  1
  C  C40  1  0.55765700  0.72710300  0.16604600  1
  C  C41  1  0.44474200  0.26568800  0.84112800  1
  C  C42  1  0.48780700  0.18939600  0.80360400  1
  C  C43  1  0.61424100  0.23238000  0.83742800  1
  C  C44  1  0.58323700  0.30832700  0.88185200  1
  C  C45  1  0.55101700  0.72928800  0.84296900  1
  C  C46  1  0.50978100  0.80600200  0.80464900  1
  C  C47  1  0.38184300  0.76406900  0.83516600  1
  C  C48  1  0.41068800  0.68726900  0.87978000  1
  C  C49  1  0.57580400  0.30234100  0.13103300  1
  C  C50  1  0.59879000  0.22387000  0.17626800  1
  C  C51  1  0.46792600  0.19122600  0.20481500  1
  C  C52  1  0.43233000  0.27064800  0.16588200  1
  C  C53  1  0.29732900  0.10949200  0.49282500  1
  C  C54  1  0.24815100  0.19092500  0.47074200  1
  C  C55  1  0.30485800  0.18988800  0.36391900  1
  C  C56  1  0.35602100  0.10772900  0.37986300  1
  C  C57  1  0.62115100  0.87726500  0.63090500  1
  C  C58  1  0.67047100  0.79453900  0.64983400  1
  C  C59  1  0.75171800  0.80733300  0.55514700  1
  C  C60  1  0.70888800  0.89228000  0.53248600  1
  C  C61  1  0.69830200  0.11725700  0.49528400  1
  C  C62  1  0.72127400  0.21401200  0.50704200  1
  C  C63  1  0.67426300  0.21946500  0.61515100  1
  C  C64  1  0.64496400  0.12330600  0.61684900  1
  C  C65  1  0.36918000  0.86891200  0.38159200  1
  C  C66  1  0.28594100  0.83208600  0.35947000  1
  C  C67  1  0.22104800  0.85595600  0.46088700  1
  C  C68  1  0.30614200  0.86717900  0.49323000  1
  N  N1  1  0.44742800  0.44128500  0.03846100  1
  N  N2  1  0.54619800  0.55459400  0.97031900  1
  N  N3  1  0.44772200  0.44116100  0.97012000  1
  N  N4  1  0.54593800  0.55466000  0.03864900  1
  N  N5  1  0.50373500  0.26269000  0.50439000  1
  N  N6  1  0.49440000  0.73302100  0.50429700  1
  N  N7  1  0.49657400  0.66005400  0.14928600  1
  N  N8  1  0.50193300  0.33574000  0.85987600  1
  N  N9  1  0.49272600  0.65958600  0.85997700  1
  N  N10  1  0.49510900  0.33584900  0.14919000  1
  N  N11  1  0.37203400  0.10655000  0.45273700  1
  N  N12  1  0.62529200  0.88904900  0.55745900  1
  N  N13  1  0.64647600  0.08108700  0.54961700  1
  N  N14  1  0.35805600  0.91575400  0.44590600  1
  O  O1  1  0.37434800  0.57185500  0.50452100  1
  O  O2  1  0.62354500  0.42404400  0.50429800  1
  O  O3  1  0.62137500  0.57813600  0.50433600  1
  O  O4  1  0.37655800  0.41753500  0.50452100  1
  O  O5  1  0.49779100  0.57482300  0.40141300  1
  O  O6  1  0.50012100  0.42085800  0.60742100  1
  O  O7  1  0.49800400  0.57499800  0.60744500  1
  O  O8  1  0.49984900  0.42078000  0.40139100  1
  O  O9  1  0.44858800  0.83644000  0.17328000  1
  O  O10  1  0.55810400  0.16142800  0.83987200  1
  O  O11  1  0.43851600  0.83440000  0.83936700  1
  O  O12  1  0.53804000  0.15772200  0.17122400  1
  O  O13  1  0.22948100  0.18640800  0.39998600  1
  O  O14  1  0.75292200  0.80267200  0.62755400  1
  O  O15  1  0.74595400  0.22737700  0.57533200  1
  O  O16  1  0.22237500  0.88099400  0.39102000  1
