# generated using pymatgen
data_Cu2H37C46N2ClO8
_symmetry_space_group_name_H-M   'P 1'
_cell_length_a   14.43958100
_cell_length_b   15.85833100
_cell_length_c   17.39538300
_cell_angle_alpha   90.00687200
_cell_angle_beta   86.24037700
_cell_angle_gamma   89.92676200
_symmetry_Int_Tables_number   1
_chemical_formula_structural   Cu2H37C46N2ClO8
_chemical_formula_sum   'Cu2 H37 C46 N2 Cl1 O8'
_cell_volume   3974.75220846
_cell_formula_units_Z   1
loop_
 _symmetry_equiv_pos_site_id
 _symmetry_equiv_pos_as_xyz
  1  'x, y, z'
loop_
 _atom_site_type_symbol
 _atom_site_label
 _atom_site_symmetry_multiplicity
 _atom_site_fract_x
 _atom_site_fract_y
 _atom_site_fract_z
 _atom_site_occupancy
  Cu  Cu1  1  0.41180300  0.48850400  0.49554700  1
  Cu  Cu2  1  0.59719100  0.48753800  0.49355200  1
  H  H1  1  0.63794100  0.48645000  0.73556500  1
  H  H2  1  0.37117400  0.48935300  0.25346200  1
  H  H3  1  0.66768200  0.49689200  0.24985200  1
  H  H4  1  0.60332700  0.52364500  0.99168600  1
  H  H5  1  0.33376000  0.47501900  0.87909600  1
  H  H6  1  0.37883800  0.49558700  0.11533700  1
  H  H7  1  0.34143400  0.47951100  0.73933500  1
  H  H8  1  0.40594900  0.45210600  0.99740800  1
  H  H9  1  0.63037700  0.48010000  0.87370000  1
  H  H10  1  0.67544900  0.50098100  0.11009100  1
  H  H11  1  0.41902200  0.06116000  0.39634900  1
  H  H12  1  0.43469200  0.91961600  0.38996500  1
  H  H13  1  0.65404300  0.92175500  0.49086100  1
  H  H14  1  0.60604800  0.91308200  0.39785400  1
  H  H15  1  0.59156700  0.05449700  0.38926200  1
  H  H16  1  0.65332900  0.06317900  0.47593500  1
  H  H17  1  0.42640500  0.92157000  0.60417400  1
  H  H18  1  0.55054100  0.91484900  0.61082100  1
  H  H19  1  0.43959100  0.06326200  0.60948700  1
  H  H20  1  0.35874500  0.91254800  0.47647800  1
  H  H21  1  0.35577100  0.05422300  0.48924700  1
  H  H22  1  0.56475900  0.05642400  0.60344500  1
  H  H23  1  0.08499200  0.35345700  0.48088600  1
  H  H24  1  0.92987600  0.35331800  0.48471700  1
  H  H25  1  0.91417600  0.53798100  0.61039000  1
  H  H26  1  0.91962600  0.42476000  0.60397900  1
  H  H27  1  0.07522700  0.43195400  0.60727500  1
  H  H28  1  0.07068100  0.54572300  0.60669100  1
  H  H29  1  0.93639200  0.62074700  0.50052000  1
  H  H30  1  0.09074900  0.56671500  0.39280200  1
  H  H31  1  0.93240600  0.40564400  0.39399300  1
  H  H32  1  0.09054600  0.41183800  0.39164300  1
  H  H33  1  0.08774600  0.62347900  0.48191600  1
  H  H34  1  0.99164900  0.50489600  0.31097600  1
  H  H35  1  0.92074000  0.54725800  0.19429800  1
  H  H36  1  0.75964200  0.73218500  0.31976100  1
  H  H37  1  0.82860500  0.69029000  0.43806100  1
  C  C1  1  0.50565200  0.64984200  0.49601700  1
  C  C2  1  0.49547500  0.48614800  0.64266100  1
  C  C3  1  0.50335100  0.32619800  0.49305900  1
  C  C4  1  0.51354200  0.48992000  0.34644200  1
  C  C5  1  0.49028700  0.48423000  0.72714100  1
  C  C6  1  0.57049700  0.48479800  0.76633300  1
  C  C7  1  0.56594200  0.48223800  0.84573400  1
  C  C8  1  0.48069000  0.47965600  0.88719200  1
  C  C9  1  0.40082100  0.47788500  0.84772900  1
  C  C10  1  0.40531600  0.48055700  0.76837000  1
  C  C11  1  0.44325600  0.49355800  0.14333000  1
  C  C12  1  0.43863800  0.49108000  0.22273000  1
  C  C13  1  0.60381400  0.49561200  0.22078900  1
  C  C14  1  0.60836800  0.49809500  0.14142300  1
  C  C15  1  0.52853600  0.49617100  0.10191300  1
  C  C16  1  0.47118200  0.47562900  0.97204900  1
  C  C17  1  0.53809500  0.50011900  0.01705000  1
  C  C18  1  0.51880500  0.49182300  0.26196800  1
  C  C19  1  0.42461000  0.93955800  0.45104700  1
  C  C20  1  0.59542300  0.94050100  0.45641800  1
  C  C21  1  0.59162200  0.03569200  0.45065700  1
  C  C22  1  0.50311200  0.23572900  0.49300100  1
  C  C23  1  0.50513900  0.90848600  0.49508900  1
  C  C24  1  0.41999200  0.03483800  0.45534600  1
  C  C25  1  0.50394300  0.06754500  0.49389000  1
  C  C26  1  0.50092500  0.03639600  0.57638100  1
  C  C27  1  0.49467800  0.94110400  0.57708800  1
  C  C28  1  0.50333000  0.15976000  0.49327300  1
  C  C29  1  0.50573200  0.81627500  0.49572300  1
  C  C30  1  0.50591700  0.74030800  0.49602800  1
  C  C31  1  0.95582400  0.41013800  0.45307500  1
  C  C32  1  0.94488600  0.48432500  0.57665600  1
  C  C33  1  0.04985500  0.48781900  0.57655700  1
  C  C34  1  0.91701800  0.48828600  0.49424200  1
  C  C35  1  0.06076200  0.41100100  0.45202000  1
  C  C36  1  0.09207900  0.48848400  0.49419900  1
  C  C37  1  0.06114500  0.56692800  0.45308400  1
  C  C38  1  0.95580700  0.57006300  0.45869600  1
  C  C39  1  0.19330500  0.48812500  0.49487500  1
  C  C40  1  0.81576000  0.48817000  0.49399000  1
  C  C41  1  0.91463500  0.59356300  0.38419700  1
  C  C42  1  0.93999800  0.55415500  0.31472900  1
  C  C43  1  0.90045000  0.57829400  0.24812400  1
  C  C44  1  0.83561400  0.64206300  0.24984400  1
  C  C45  1  0.81044700  0.68199100  0.31829100  1
  C  C46  1  0.84991100  0.65817900  0.38499900  1
  N  N1  1  0.27338200  0.48795400  0.49535600  1
  N  N2  1  0.73567200  0.48807800  0.49376500  1
  Cl  Cl1  1  0.78589700  0.67280800  0.16508000  1
  O  O1  1  0.42598300  0.61095400  0.49384400  1
  O  O2  1  0.58502500  0.61014800  0.49762500  1
  O  O3  1  0.41812400  0.48413000  0.60728900  1
  O  O4  1  0.57738100  0.48927300  0.60567200  1
  O  O5  1  0.42397400  0.36589400  0.49147300  1
  O  O6  1  0.58301200  0.36508900  0.49525000  1
  O  O7  1  0.43162300  0.48677100  0.38342500  1
  O  O8  1  0.59087900  0.49192400  0.38181400  1
