# generated using pymatgen
data_CuH4C9(NO2)2
_symmetry_space_group_name_H-M   'P 1'
_cell_length_a   14.04166000
_cell_length_b   11.14700200
_cell_length_c   9.72745100
_cell_angle_alpha   111.73210300
_cell_angle_beta   94.95690800
_cell_angle_gamma   90.95409400
_symmetry_Int_Tables_number   1
_chemical_formula_structural   CuH4C9(NO2)2
_chemical_formula_sum   'Cu2 H8 C18 N4 O8'
_cell_volume   1407.11063517
_cell_formula_units_Z   2
loop_
 _symmetry_equiv_pos_site_id
 _symmetry_equiv_pos_as_xyz
  1  'x, y, z'
loop_
 _atom_site_type_symbol
 _atom_site_label
 _atom_site_symmetry_multiplicity
 _atom_site_fract_x
 _atom_site_fract_y
 _atom_site_fract_z
 _atom_site_occupancy
  Cu  Cu1  1  0.51775900  0.51897300  0.64402400  1
  Cu  Cu2  1  0.48807700  0.47194100  0.35264500  1
  H  H1  1  0.00895100  0.49503000  0.65551300  1
  H  H2  1  0.99621400  0.50536100  0.34488000  1
  H  H3  1  0.48887700  0.86141300  0.36491300  1
  H  H4  1  0.51960100  0.13098000  0.63109400  1
  H  H5  1  0.52055800  0.94597600  0.70406900  1
  H  H6  1  0.47914700  0.04624400  0.29304400  1
  H  H7  1  0.45226300  0.40102700  0.84189700  1
  H  H8  1  0.57356900  0.56461700  0.14757400  1
  C  C1  1  0.49798200  0.25139600  0.44091300  1
  C  C2  1  0.50669300  0.74009000  0.55578600  1
  C  C3  1  0.32137400  0.49603800  0.51652900  1
  C  C4  1  0.68412300  0.49683300  0.48098000  1
  C  C5  1  0.78566700  0.49970700  0.47155500  1
  C  C6  1  0.22002200  0.49725300  0.52751800  1
  C  C7  1  0.97144900  0.50246600  0.44598300  1
  C  C8  1  0.03404100  0.49840100  0.55460500  1
  C  C9  1  0.51464700  0.50149600  0.07754900  1
  C  C10  1  0.49803300  0.48186800  0.91756700  1
  C  C11  1  0.13514500  0.49796400  0.53878200  1
  C  C12  1  0.87056300  0.50130600  0.46111400  1
  C  C13  1  0.49339000  0.11209600  0.40770700  1
  C  C14  1  0.50957400  0.87979200  0.58898400  1
  C  C15  1  0.50539300  0.06603700  0.51610300  1
  C  C16  1  0.50000400  0.92614200  0.48038800  1
  C  C17  1  0.59602800  0.66064400  0.95717500  1
  C  C18  1  0.38005300  0.37517000  0.05489700  1
  N  N1  1  0.46421100  0.43845700  0.13555200  1
  N  N2  1  0.54127400  0.55303100  0.86136100  1
  N  N3  1  0.64185700  0.75058400  0.03708200  1
  N  N4  1  0.30954500  0.32251200  0.98765600  1
  O  O1  1  0.50976800  0.33059000  0.57989100  1
  O  O2  1  0.48991500  0.66070900  0.41702500  1
  O  O3  1  0.48338100  0.29096900  0.33024500  1
  O  O4  1  0.51608800  0.70042800  0.66734900  1
  O  O5  1  0.37865700  0.51919600  0.63816200  1
  O  O6  1  0.62694500  0.48010000  0.36106200  1
  O  O7  1  0.35230500  0.47978600  0.38775700  1
  O  O8  1  0.65316900  0.51975100  0.61079900  1
