# generated using pymatgen
data_ZnH13C16NO5
_symmetry_space_group_name_H-M   'P 1'
_cell_length_a   9.12688000
_cell_length_b   8.53995000
_cell_length_c   15.12302500
_cell_angle_alpha   90.00000000
_cell_angle_beta   91.00352100
_cell_angle_gamma   90.00000000
_symmetry_Int_Tables_number   1
_chemical_formula_structural   ZnH13C16NO5
_chemical_formula_sum   'Zn2 H26 C32 N2 O10'
_cell_volume   1178.55463904
_cell_formula_units_Z   2
loop_
 _symmetry_equiv_pos_site_id
 _symmetry_equiv_pos_as_xyz
  1  'x, y, z'
loop_
 _atom_site_type_symbol
 _atom_site_label
 _atom_site_symmetry_multiplicity
 _atom_site_fract_x
 _atom_site_fract_y
 _atom_site_fract_z
 _atom_site_occupancy
  Zn  Zn1  1  0.83608300  0.49956400  0.50095300  1
  Zn  Zn2  1  0.16405500  0.49979300  0.49897400  1
  H  H1  1  0.04912300  0.99868300  0.56304100  1
  H  H2  1  0.95156600  0.00037500  0.43707000  1
  H  H3  1  0.97959000  0.25120600  0.79889900  1
  H  H4  1  0.01514200  0.25126000  0.20046200  1
  H  H5  1  0.98378600  0.74846600  0.79968600  1
  H  H6  1  0.02048500  0.74853600  0.20092500  1
  H  H7  1  0.85501000  0.79843600  0.92201300  1
  H  H8  1  0.14414500  0.20161100  0.07806900  1
  H  H9  1  0.86897500  0.79680000  0.08215800  1
  H  H10  1  0.13039900  0.20314200  0.91792000  1
  H  H11  1  0.58893500  0.45958100  0.36536600  1
  H  H12  1  0.41115900  0.45890000  0.63442000  1
  H  H13  1  0.62932800  0.65602300  0.38765700  1
  H  H14  1  0.37095300  0.65559500  0.61241700  1
  H  H15  1  0.36006900  0.54802000  0.36431000  1
  H  H16  1  0.64010300  0.54718600  0.63564000  1
  H  H17  1  0.63600200  0.25664600  0.46565800  1
  H  H18  1  0.36400700  0.25650900  0.53368100  1
  H  H19  1  0.39903400  0.30038800  0.42031600  1
  H  H20  1  0.60102000  0.29975000  0.57913600  1
  H  H21  1  0.46310500  0.79109900  0.29838900  1
  H  H22  1  0.50968800  0.95076900  0.37275400  1
  H  H23  1  0.32323000  0.92569500  0.33308400  1
  H  H24  1  0.53792200  0.78963500  0.70206600  1
  H  H25  1  0.49010700  0.94944500  0.62806900  1
  H  H26  1  0.67700900  0.92507200  0.66718400  1
  C  C1  1  0.00722300  0.13908200  0.67461400  1
  C  C2  1  0.99357100  0.13960400  0.32507300  1
  C  C3  1  0.99011300  0.14057900  0.76495500  1
  C  C4  1  0.01081800  0.14045900  0.23468900  1
  C  C5  1  0.98811600  0.00020700  0.81127200  1
  C  C6  1  0.01144200  0.99954100  0.18873200  1
  C  C7  1  0.98850100  0.85917700  0.76538900  1
  C  C8  1  0.00998200  0.85907400  0.23495700  1
  C  C9  1  0.00622900  0.85977100  0.67502600  1
  C  C10  1  0.99322400  0.86033200  0.32531700  1
  C  C11  1  0.02536600  0.99916100  0.63202200  1
  C  C12  1  0.97502300  0.00009800  0.36804500  1
  C  C13  1  0.92066700  0.88613900  0.95551600  1
  C  C14  1  0.07855300  0.11388000  0.04453300  1
  C  C15  1  0.92920100  0.88486100  0.04663300  1
  C  C16  1  0.07007400  0.11512500  0.95341300  1
  C  C17  1  0.00834900  0.99851200  0.09171400  1
  C  C18  1  0.99096000  0.00143800  0.90831300  1
  C  C19  1  0.00378300  0.71731000  0.62146400  1
  C  C20  1  0.99621800  0.71816600  0.37902600  1
  C  C21  1  0.99634200  0.28190900  0.37870200  1
  C  C22  1  0.00393100  0.28106300  0.62071700  1
  C  C23  1  0.57694900  0.55275200  0.41581700  1
  C  C24  1  0.42323300  0.55235900  0.58414800  1
  C  C25  1  0.41556200  0.58824700  0.42606700  1
  C  C26  1  0.58462600  0.58773500  0.57395000  1
  C  C27  1  0.58258500  0.34091800  0.51032500  1
  C  C28  1  0.41745200  0.34109100  0.48922100  1
  C  C29  1  0.39219000  0.76256700  0.43212900  1
  C  C30  1  0.42458800  0.86349600  0.35424100  1
  C  C31  1  0.60796300  0.76208500  0.56814500  1
  C  C32  1  0.57572800  0.86252700  0.64623600  1
  N  N1  1  0.64254500  0.49853300  0.49950500  1
  N  N2  1  0.35759300  0.49872400  0.50037600  1
  O  O1  1  0.12753900  0.66914300  0.58872700  1
  O  O2  1  0.87258300  0.66954100  0.41160100  1
  O  O3  1  0.87635100  0.66184800  0.59521200  1
  O  O4  1  0.12375000  0.66272800  0.40508100  1
  O  O5  1  0.87128100  0.33153400  0.41017100  1
  O  O6  1  0.12890400  0.33112500  0.58937500  1
  O  O7  1  0.12492100  0.33549100  0.40567700  1
  O  O8  1  0.87521800  0.33461100  0.59389100  1
  O  O9  1  0.33215600  0.82161100  0.49514100  1
  O  O10  1  0.66769200  0.82155000  0.50515400  1
