# generated using pymatgen
data_ZnH13C24NO5
_symmetry_space_group_name_H-M   'P 1'
_cell_length_a   10.76697900
_cell_length_b   14.85194200
_cell_length_c   15.98194100
_cell_angle_alpha   86.03069800
_cell_angle_beta   90.01165000
_cell_angle_gamma   103.41737800
_symmetry_Int_Tables_number   1
_chemical_formula_structural   ZnH13C24NO5
_chemical_formula_sum   'Zn2 H26 C48 N2 O10'
_cell_volume   2479.63075279
_cell_formula_units_Z   2
loop_
 _symmetry_equiv_pos_site_id
 _symmetry_equiv_pos_as_xyz
  1  'x, y, z'
loop_
 _atom_site_type_symbol
 _atom_site_label
 _atom_site_symmetry_multiplicity
 _atom_site_fract_x
 _atom_site_fract_y
 _atom_site_fract_z
 _atom_site_occupancy
  Zn  Zn1  1  0.46804600  0.39923700  0.47801200  1
  Zn  Zn2  1  0.53195400  0.60076200  0.52198800  1
  H  H1  1  0.08792200  0.53305800  0.63751400  1
  H  H2  1  0.91207800  0.46694200  0.36248700  1
  H  H3  1  0.88432000  0.38309200  0.60344500  1
  H  H4  1  0.11568100  0.61690700  0.39655500  1
  H  H5  1  0.02652300  0.34851700  0.46605600  1
  H  H6  1  0.97347700  0.65148200  0.53394400  1
  H  H7  1  0.37646100  0.25735000  0.02181000  1
  H  H8  1  0.62354000  0.74265000  0.97819000  1
  H  H9  1  0.48604900  0.44950100  0.21243300  1
  H  H10  1  0.51395100  0.55049900  0.78756700  1
  H  H11  1  0.56744800  0.72942400  0.27213300  1
  H  H12  1  0.43255300  0.27057600  0.72786700  1
  H  H13  1  0.40188000  0.36273900  0.12344300  1
  H  H14  1  0.59812000  0.63726100  0.87655800  1
  H  H15  1  0.73135200  0.02391200  0.66035600  1
  H  H16  1  0.26864800  0.97608700  0.33964400  1
  H  H17  1  0.55177200  0.23357300  0.53637900  1
  H  H18  1  0.44822800  0.76642700  0.46362100  1
  H  H19  1  0.29440400  0.29011600  0.35761900  1
  H  H20  1  0.70559600  0.70988400  0.64238100  1
  H  H21  1  0.75852000  0.87115500  0.67916200  1
  H  H22  1  0.24148000  0.12884500  0.32083800  1
  H  H23  1  0.63708600  0.13739100  0.59507600  1
  H  H24  1  0.36291400  0.86260900  0.40492400  1
  H  H25  1  0.36276100  0.14442800  0.83195100  1
  H  H26  1  0.63723900  0.85557200  0.16804900  1
  C  C1  1  0.48329800  0.44561400  0.65996600  1
  C  C2  1  0.51670200  0.55438600  0.34003400  1
  C  C3  1  0.74291600  0.50056800  0.49973000  1
  C  C4  1  0.25708400  0.49943100  0.50027000  1
  C  C5  1  0.93848300  0.43613900  0.55645100  1
  C  C6  1  0.06151700  0.56386100  0.44355000  1
  C  C7  1  0.04637800  0.51811200  0.57506400  1
  C  C8  1  0.95362200  0.48188800  0.42493600  1
  C  C9  1  0.11899200  0.49940500  0.50010500  1
  C  C10  1  0.88100800  0.50059400  0.49989600  1
  C  C11  1  0.01335900  0.41740800  0.48148700  1
  C  C12  1  0.98664100  0.58259200  0.51851300  1
  C  C13  1  0.47438900  0.41482400  0.74967500  1
  C  C14  1  0.52561200  0.58517500  0.25032600  1
  C  C15  1  0.43525800  0.29173900  0.85763200  1
  C  C16  1  0.56474200  0.70826000  0.14236800  1
  C  C17  1  0.44586700  0.32163900  0.77402700  1
  C  C18  1  0.55413300  0.67836100  0.22597300  1
  C  C19  1  0.49618700  0.47883700  0.80987900  1
  C  C20  1  0.50381300  0.52116300  0.19012100  1
  C  C21  1  0.48785700  0.45079900  0.89535400  1
  C  C22  1  0.51214300  0.54920100  0.10464600  1
  C  C23  1  0.45019800  0.35641600  0.91850300  1
  C  C24  1  0.54980200  0.64358400  0.08149700  1
  C  C25  1  0.51226700  0.51502200  0.95787400  1
  C  C26  1  0.48773300  0.48497700  0.04212600  1
  C  C27  1  0.43558200  0.39123900  0.06174900  1
  C  C28  1  0.56441800  0.60876100  0.93825100  1
  C  C29  1  0.41995100  0.32839000  0.00160200  1
  C  C30  1  0.58004900  0.67161000  0.99839900  1
  C  C31  1  0.68927200  0.85024700  0.63106500  1
  C  C32  1  0.31072800  0.14975300  0.36893500  1
  C  C33  1  0.65974900  0.75972400  0.61052100  1
  C  C34  1  0.34025100  0.24027600  0.38947900  1
  C  C35  1  0.51534900  0.79398600  0.51027300  1
  C  C36  1  0.48465100  0.20601400  0.48972700  1
  C  C37  1  0.54213400  0.88713200  0.52901900  1
  C  C38  1  0.45786600  0.11286700  0.47098200  1
  C  C39  1  0.63072100  0.91372700  0.59049500  1
  C  C40  1  0.36927900  0.08627300  0.40950500  1
  C  C41  1  0.48385400  0.95395600  0.48874700  1
  C  C42  1  0.51614600  0.04604400  0.51125300  1
  C  C43  1  0.60608800  0.06904700  0.57356700  1
  C  C44  1  0.39391200  0.93095300  0.42643300  1
  C  C45  1  0.66193000  0.00366400  0.61221800  1
  C  C46  1  0.33807000  0.99633600  0.38778200  1
  C  C47  1  0.41140900  0.19077300  0.87731300  1
  C  C48  1  0.58859200  0.80922700  0.12268700  1
  N  N1  1  0.57391600  0.73323400  0.55087700  1
  N  N2  1  0.42608400  0.26676500  0.44912300  1
  O  O1  1  0.46297700  0.38228600  0.60495400  1
  O  O2  1  0.53702300  0.61771400  0.39504700  1
  O  O3  1  0.51156300  0.53501500  0.63827300  1
  O  O4  1  0.48843700  0.46498400  0.36172800  1
  O  O5  1  0.66093500  0.42399100  0.48308500  1
  O  O6  1  0.33906500  0.57600900  0.51691500  1
  O  O7  1  0.70947400  0.57694000  0.51646000  1
  O  O8  1  0.29052600  0.42306000  0.48354000  1
  O  O9  1  0.46025300  0.15836600  0.93752900  1
  O  O10  1  0.53974700  0.84163300  0.06247100  1
