# generated using pymatgen
data_ZnH4C12I2NO4
_symmetry_space_group_name_H-M   'P 1'
_cell_length_a   11.40007700
_cell_length_b   8.52472700
_cell_length_c   10.97461200
_cell_angle_alpha   90.00000000
_cell_angle_beta   96.60264300
_cell_angle_gamma   90.00000000
_symmetry_Int_Tables_number   1
_chemical_formula_structural   ZnH4C12I2NO4
_chemical_formula_sum   'Zn2 H8 C24 I4 N2 O8'
_cell_volume   1059.46684463
_cell_formula_units_Z   2
loop_
 _symmetry_equiv_pos_site_id
 _symmetry_equiv_pos_as_xyz
  1  'x, y, z'
loop_
 _atom_site_type_symbol
 _atom_site_label
 _atom_site_symmetry_multiplicity
 _atom_site_fract_x
 _atom_site_fract_y
 _atom_site_fract_z
 _atom_site_occupancy
  Zn  Zn1  1  0.13189800  0.50000000  0.51124100  1
  Zn  Zn2  1  0.86810200  0.50000000  0.48875900  1
  H  H1  1  0.98701500  0.25360200  0.90592100  1
  H  H2  1  0.01298400  0.74639800  0.09407900  1
  H  H3  1  0.01298400  0.25360200  0.09407900  1
  H  H4  1  0.98701500  0.74639800  0.90592100  1
  H  H5  1  0.51249400  0.50000000  0.74998000  1
  H  H6  1  0.48750500  0.50000000  0.25002000  1
  H  H7  1  0.04075500  0.00000000  0.59024100  1
  H  H8  1  0.95924500  0.00000000  0.40975800  1
  C  C1  1  0.00867200  0.13904500  0.74179700  1
  C  C2  1  0.99132700  0.86095500  0.25820300  1
  C  C3  1  0.99132700  0.13904500  0.25820300  1
  C  C4  1  0.00867200  0.86095500  0.74179700  1
  C  C5  1  0.99725200  0.14050500  0.86546700  1
  C  C6  1  0.00274800  0.85949500  0.13453300  1
  C  C7  1  0.00274800  0.14050500  0.13453300  1
  C  C8  1  0.99725200  0.85949500  0.86546700  1
  C  C9  1  0.99987100  0.00000000  0.93180300  1
  C  C10  1  0.00012800  0.00000000  0.06819600  1
  C  C11  1  0.46919900  0.50000000  0.44235900  1
  C  C12  1  0.53080000  0.50000000  0.55764100  1
  C  C13  1  0.34682100  0.50000000  0.64152600  1
  C  C14  1  0.65317800  0.50000000  0.35847400  1
  C  C15  1  0.02344200  0.00000000  0.68397200  1
  C  C16  1  0.97655800  0.00000000  0.31602700  1
  C  C17  1  0.46834300  0.50000000  0.65767600  1
  C  C18  1  0.53165700  0.50000000  0.34232300  1
  C  C19  1  0.00426300  0.28152000  0.66737500  1
  C  C20  1  0.99573600  0.71848000  0.33262500  1
  C  C21  1  0.99573600  0.28152000  0.33262500  1
  C  C22  1  0.00426300  0.71848000  0.66737500  1
  C  C23  1  0.34652400  0.50000000  0.42817600  1
  C  C24  1  0.65347500  0.50000000  0.57182400  1
  I  I1  1  0.74819200  0.50000000  0.74905100  1
  I  I2  1  0.25180700  0.50000000  0.25094900  1
  I  I3  1  0.73905300  0.50000000  0.19814600  1
  I  I4  1  0.26094700  0.50000000  0.80185400  1
  N  N1  1  0.71313900  0.50000000  0.47236900  1
  N  N2  1  0.28686000  0.50000000  0.52763000  1
  O  O1  1  0.90071700  0.33080000  0.61655600  1
  O  O2  1  0.09928200  0.66920000  0.38344400  1
  O  O3  1  0.09928200  0.33080000  0.38344400  1
  O  O4  1  0.90071700  0.66920000  0.61655600  1
  O  O5  1  0.10440300  0.33595600  0.63702900  1
  O  O6  1  0.89559700  0.66404400  0.36297100  1
  O  O7  1  0.89559700  0.33595600  0.36297100  1
  O  O8  1  0.10440300  0.66404400  0.63702900  1
