# generated using pymatgen
data_ZnH20C27NO7
_symmetry_space_group_name_H-M   'P 1'
_cell_length_a   11.44695200
_cell_length_b   19.43351700
_cell_length_c   18.22249500
_cell_angle_alpha   89.98913200
_cell_angle_beta   102.39949400
_cell_angle_gamma   90.00710100
_symmetry_Int_Tables_number   1
_chemical_formula_structural   ZnH20C27NO7
_chemical_formula_sum   'Zn2 H40 C54 N2 O14'
_cell_volume   3959.12123574
_cell_formula_units_Z   2
loop_
 _symmetry_equiv_pos_site_id
 _symmetry_equiv_pos_as_xyz
  1  'x, y, z'
loop_
 _atom_site_type_symbol
 _atom_site_label
 _atom_site_symmetry_multiplicity
 _atom_site_fract_x
 _atom_site_fract_y
 _atom_site_fract_z
 _atom_site_occupancy
  Zn  Zn1  1  0.48365500  0.50063500  0.58000200  1
  Zn  Zn2  1  0.46800500  0.50196400  0.41130200  1
  H  H1  1  0.88352200  0.52174500  0.59122400  1
  H  H2  1  0.06563200  0.50318000  0.39793000  1
  H  H3  1  0.59426200  0.71626800  0.42042500  1
  H  H4  1  0.61455900  0.28602100  0.59661600  1
  H  H5  1  0.61138500  0.84077100  0.42550700  1
  H  H6  1  0.62964000  0.16137900  0.59491200  1
  H  H7  1  0.36722700  0.84746700  0.57336100  1
  H  H8  1  0.35381900  0.15551300  0.39493800  1
  H  H9  1  0.36217200  0.72213100  0.57463700  1
  H  H10  1  0.34975400  0.28079700  0.39264300  1
  H  H11  1  0.50913100  0.06832000  0.61306100  1
  H  H12  1  0.48689600  0.93426700  0.38284700  1
  H  H13  1  0.38292000  0.58697900  0.68529000  1
  H  H14  1  0.35241100  0.41495500  0.27767400  1
  H  H15  1  0.37679400  0.58306700  0.81816200  1
  H  H16  1  0.35337500  0.41547600  0.14359500  1
  H  H17  1  0.59550700  0.40929600  0.70780000  1
  H  H18  1  0.56381300  0.59268800  0.31137700  1
  H  H19  1  0.28788400  0.49453500  0.89785100  1
  H  H20  1  0.65836000  0.49834300  0.09310500  1
  H  H21  1  0.27718900  0.50167000  0.03012300  1
  H  H22  1  0.66929000  0.49313600  0.96081000  1
  H  H23  1  0.91398900  0.36326700  0.43926400  1
  H  H24  1  0.91871400  0.38810300  0.34413800  1
  H  H25  1  0.77666300  0.37027600  0.36870400  1
  H  H26  1  0.04601800  0.38540200  0.59463100  1
  H  H27  1  0.04109100  0.43575900  0.67756000  1
  H  H28  1  0.18347400  0.40912000  0.65905400  1
  H  H29  1  0.76455300  0.39242100  0.80858800  1
  H  H30  1  0.71058800  0.30550700  0.81627300  1
  H  H31  1  0.78370700  0.35213500  0.89926600  1
  H  H32  1  0.74954300  0.61718100  0.24058100  1
  H  H33  1  0.64887300  0.68321300  0.26152600  1
  H  H34  1  0.71491900  0.69195400  0.18100400  1
  H  H35  1  0.68595000  0.88020300  0.62253300  1
  H  H36  1  0.60041900  0.83835200  0.68299600  1
  H  H37  1  0.69807300  0.90952000  0.71759100  1
  H  H38  1  0.66929300  0.12121800  0.40962600  1
  H  H39  1  0.57209000  0.16365000  0.33075200  1
  H  H40  1  0.66394500  0.09191100  0.31524100  1
  C  C1  1  0.47802300  0.36674200  0.49411700  1
  C  C2  1  0.47400200  0.63587400  0.49721300  1
  C  C3  1  0.24150400  0.50006400  0.47154000  1
  C  C4  1  0.70999900  0.50231900  0.51980500  1
  C  C5  1  0.10943500  0.49938300  0.45663500  1
  C  C6  1  0.84165600  0.50584600  0.53482400  1
  C  C7  1  0.04249200  0.49373700  0.50899500  1
  C  C8  1  0.91002000  0.49020900  0.48535800  1
  C  C9  1  0.54487900  0.74499200  0.45453300  1
  C  C10  1  0.55783000  0.25743400  0.55184300  1
  C  C11  1  0.55398900  0.81568500  0.45728100  1
  C  C12  1  0.56576600  0.18668400  0.55090100  1
  C  C13  1  0.49255400  0.85358500  0.50111000  1
  C  C14  1  0.49468600  0.14898300  0.49383600  1
  C  C15  1  0.42078600  0.81924000  0.54149600  1
  C  C16  1  0.41461900  0.18355900  0.43818700  1
  C  C17  1  0.41672600  0.74825800  0.54170700  1
  C  C18  1  0.41124300  0.25453200  0.43715400  1
  C  C19  1  0.47816300  0.71100700  0.49780400  1
  C  C20  1  0.48229100  0.29161100  0.49427100  1
  C  C21  1  0.51208600  0.96827500  0.56702800  1
  C  C22  1  0.50054900  0.03422400  0.43056300  1
  C  C23  1  0.50649000  0.03915800  0.56227700  1
  C  C24  1  0.49408600  0.96339500  0.43409900  1
  C  C25  1  0.50123800  0.07307400  0.49485700  1
  C  C26  1  0.50024600  0.92946400  0.50160500  1
  C  C27  1  0.43051900  0.54678400  0.72043600  1
  C  C28  1  0.39912700  0.45528800  0.25487400  1
  C  C29  1  0.42589300  0.54401100  0.79518500  1
  C  C30  1  0.39885500  0.45601300  0.17925000  1
  C  C31  1  0.48453500  0.49237500  0.84053400  1
  C  C32  1  0.46017800  0.50650300  0.14974400  1
  C  C33  1  0.54866400  0.44369000  0.80937400  1
  C  C34  1  0.51862600  0.55782200  0.19712100  1
  C  C35  1  0.55080600  0.44838000  0.73375600  1
  C  C36  1  0.51844900  0.55417700  0.27305800  1
  C  C37  1  0.36966200  0.49542300  0.94052800  1
  C  C38  1  0.57668300  0.49773500  0.05034100  1
  C  C39  1  0.36352700  0.49910700  0.01519200  1
  C  C40  1  0.58283800  0.49389700  0.97569600  1
  C  C41  1  0.46699600  0.50158200  0.07036600  1
  C  C42  1  0.47924600  0.49251700  0.92036100  1
  C  C43  1  0.85669000  0.46599400  0.40901500  1
  C  C44  1  0.86726800  0.39222700  0.38904500  1
  C  C45  1  0.09731600  0.49078800  0.58975300  1
  C  C46  1  0.09147800  0.42616300  0.63294500  1
  C  C47  1  0.60493700  0.38383100  0.85271800  1
  C  C48  1  0.72302200  0.35692600  0.84321200  1
  C  C49  1  0.57555800  0.61743000  0.16815400  1
  C  C50  1  0.67847400  0.65449600  0.21619600  1
  C  C51  1  0.53526700  0.93762100  0.64264800  1
  C  C52  1  0.63592400  0.88816200  0.66760400  1
  C  C53  1  0.51117000  0.06475200  0.35834400  1
  C  C54  1  0.61008200  0.11360900  0.35353600  1
  N  N1  1  0.49191000  0.49912800  0.69077500  1
  N  N2  1  0.45967500  0.50361700  0.30052200  1
  O  O1  1  0.48492700  0.39841000  0.55843900  1
  O  O2  1  0.46954300  0.60418600  0.43321100  1
  O  O3  1  0.46987700  0.39915400  0.43005600  1
  O  O4  1  0.47906500  0.60342600  0.56091600  1
  O  O5  1  0.30416400  0.49923800  0.54081600  1
  O  O6  1  0.64757100  0.50199300  0.45042000  1
  O  O7  1  0.29154700  0.50147700  0.41302500  1
  O  O8  1  0.66005200  0.50267300  0.57833800  1
  O  O9  1  0.81017600  0.50686100  0.36071300  1
  O  O10  1  0.14234000  0.54225600  0.62235000  1
  O  O11  1  0.55352900  0.35421900  0.89566300  1
  O  O12  1  0.53706400  0.63845400  0.10449900  1
  O  O13  1  0.47987900  0.95828400  0.68843600  1
  O  O14  1  0.44617100  0.04445500  0.30040000  1
