# generated using pymatgen
data_FeH6C13NO4
_symmetry_space_group_name_H-M   'P 1'
_cell_length_a   9.20202800
_cell_length_b   11.05987600
_cell_length_c   8.61000700
_cell_angle_alpha   90.00000000
_cell_angle_beta   89.97791000
_cell_angle_gamma   90.00000000
_symmetry_Int_Tables_number   1
_chemical_formula_structural   FeH6C13NO4
_chemical_formula_sum   'Fe2 H12 C26 N2 O8'
_cell_volume   876.26866238
_cell_formula_units_Z   2
loop_
 _symmetry_equiv_pos_site_id
 _symmetry_equiv_pos_as_xyz
  1  'x, y, z'
loop_
 _atom_site_type_symbol
 _atom_site_label
 _atom_site_symmetry_multiplicity
 _atom_site_fract_x
 _atom_site_fract_y
 _atom_site_fract_z
 _atom_site_occupancy
  Fe  Fe1  1  0.15809500  0.00000000  0.00000700  1
  Fe  Fe2  1  0.84190500  0.00000000  0.99999300  1
  H  H1  1  0.00000000  0.09369000  0.50000000  1
  H  H2  1  0.00000000  0.90631000  0.50000000  1
  H  H3  1  0.04991000  0.39030900  0.88291100  1
  H  H4  1  0.95009000  0.60969100  0.11708900  1
  H  H5  1  0.95009000  0.39030900  0.11708900  1
  H  H6  1  0.04991000  0.60969100  0.88291100  1
  H  H7  1  0.59420200  0.00000000  0.74428200  1
  H  H8  1  0.40579800  0.00000000  0.25571800  1
  H  H9  1  0.40494800  0.17243600  0.87327000  1
  H  H10  1  0.59505200  0.82756400  0.12673000  1
  H  H11  1  0.59505200  0.17243600  0.12673000  1
  H  H12  1  0.40494800  0.82756400  0.87327000  1
  C  C1  1  0.99319500  0.82401400  0.21952900  1
  C  C2  1  0.00680500  0.17598600  0.78047100  1
  C  C3  1  0.00680500  0.82401400  0.78047100  1
  C  C4  1  0.99319500  0.17598600  0.21952900  1
  C  C5  1  0.44896700  0.09133700  0.93253800  1
  C  C6  1  0.55103300  0.90866300  0.06746200  1
  C  C7  1  0.55103300  0.09133700  0.06746200  1
  C  C8  1  0.44896700  0.90866300  0.93253800  1
  C  C9  1  0.55020000  0.00000000  0.86421200  1
  C  C10  1  0.44980000  0.00000000  0.13578800  1
  C  C11  1  0.00000000  0.43741400  0.50000000  1
  C  C12  1  0.00000000  0.56258600  0.50000000  1
  C  C13  1  0.00000000  0.18997600  0.50000000  1
  C  C14  1  0.00000000  0.81002400  0.50000000  1
  C  C15  1  0.00772500  0.24995000  0.63893900  1
  C  C16  1  0.99227500  0.75005000  0.36106100  1
  C  C17  1  0.99227500  0.24995000  0.36106100  1
  C  C18  1  0.00772500  0.75005000  0.63893900  1
  C  C19  1  0.01247300  0.37494600  0.63900500  1
  C  C20  1  0.98752700  0.62505400  0.36099500  1
  C  C21  1  0.98752700  0.37494600  0.36099500  1
  C  C22  1  0.01247300  0.62505400  0.63900500  1
  C  C23  1  0.03137400  0.43778400  0.77566900  1
  C  C24  1  0.96862600  0.56221600  0.22433100  1
  C  C25  1  0.96862600  0.43778400  0.22433100  1
  C  C26  1  0.03137400  0.56221600  0.77566900  1
  N  N1  1  0.64694800  0.00000000  0.99914400  1
  N  N2  1  0.35305200  0.00000000  0.00085600  1
  O  O1  1  0.87196000  0.87460700  0.17258100  1
  O  O2  1  0.12804000  0.12539300  0.82741900  1
  O  O3  1  0.12804000  0.87460700  0.82741900  1
  O  O4  1  0.87196000  0.12539300  0.17258100  1
  O  O5  1  0.11838200  0.85991100  0.16243100  1
  O  O6  1  0.88161700  0.14008900  0.83756900  1
  O  O7  1  0.88161700  0.85991100  0.83756900  1
  O  O8  1  0.11838200  0.14008900  0.16243100  1
