# generated using pymatgen
data_ZnH12C27NO6
_symmetry_space_group_name_H-M   'P 1'
_cell_length_a   8.52544100
_cell_length_b   13.04443100
_cell_length_c   17.47393800
_cell_angle_alpha   90.61106800
_cell_angle_beta   93.31801000
_cell_angle_gamma   86.46480300
_symmetry_Int_Tables_number   1
_chemical_formula_structural   ZnH12C27NO6
_chemical_formula_sum   'Zn2 H24 C54 N2 O12'
_cell_volume   1936.27009016
_cell_formula_units_Z   2
loop_
 _symmetry_equiv_pos_site_id
 _symmetry_equiv_pos_as_xyz
  1  'x, y, z'
loop_
 _atom_site_type_symbol
 _atom_site_label
 _atom_site_symmetry_multiplicity
 _atom_site_fract_x
 _atom_site_fract_y
 _atom_site_fract_z
 _atom_site_occupancy
  Zn  Zn1  1  0.54938300  0.50951300  0.91422300  1
  Zn  Zn2  1  0.56774500  0.49958400  0.08508200  1
  H  H1  1  0.63446000  0.81691300  0.00215200  1
  H  H2  1  0.60229700  0.00209300  0.99826500  1
  H  H3  1  0.04677700  0.43241700  0.97422100  1
  H  H4  1  0.34999500  0.16558500  0.00486900  1
  H  H5  1  0.24581300  0.00798700  0.00717700  1
  H  H6  1  0.70725700  0.16504300  0.99830000  1
  H  H7  1  0.27459800  0.85297600  0.98985200  1
  H  H8  1  0.06556100  0.57702000  0.02630400  1
  H  H9  1  0.54619900  0.67359200  0.80608400  1
  H  H10  1  0.54704500  0.76270400  0.68706600  1
  H  H11  1  0.54312400  0.85131700  0.56926000  1
  H  H12  1  0.56056700  0.15618600  0.56714900  1
  H  H13  1  0.56620600  0.15606500  0.42980100  1
  H  H14  1  0.57775000  0.75049800  0.30753700  1
  H  H15  1  0.56931000  0.24478000  0.31151400  1
  H  H16  1  0.57308300  0.33510100  0.19232600  1
  H  H17  1  0.53621300  0.35373900  0.80996900  1
  H  H18  1  0.57659000  0.65691300  0.19187100  1
  H  H19  1  0.66863500  0.12814600  0.85531300  1
  H  H20  1  0.78171600  0.06643600  0.78179100  1
  H  H21  1  0.57069300  0.06196100  0.77702600  1
  H  H22  1  0.33373100  0.98072900  0.26975700  1
  H  H23  1  0.52566300  0.01504600  0.30754600  1
  H  H24  1  0.35425100  0.04111800  0.36312700  1
  C  C1  1  0.01965700  0.86853500  0.00105700  1
  C  C2  1  0.88723000  0.81150200  0.00315200  1
  C  C3  1  0.73837400  0.86010800  0.00104700  1
  C  C4  1  0.71955000  0.96534600  0.99917600  1
  C  C5  1  0.84876700  0.02360200  0.99982000  1
  C  C6  1  0.99933500  0.97617400  0.00067400  1
  C  C7  1  0.82543100  0.12977600  0.99943800  1
  C  C8  1  0.95203000  0.19036200  0.99805700  1
  C  C9  1  0.10231900  0.14344000  0.00023800  1
  C  C10  1  0.12578200  0.03820300  0.00304700  1
  C  C11  1  0.93264900  0.29680700  0.99268200  1
  C  C12  1  0.06260000  0.35152200  0.98407500  1
  C  C13  1  0.21152800  0.30559600  0.99094300  1
  C  C14  1  0.23214100  0.20145600  0.00006900  1
  C  C15  1  0.16795300  0.81588100  0.99818800  1
  C  C16  1  0.18294000  0.71057100  0.00640900  1
  C  C17  1  0.05217400  0.65794400  0.01625400  1
  C  C18  1  0.90474900  0.70567000  0.00903900  1
  C  C19  1  0.34491200  0.36984500  0.99375600  1
  C  C20  1  0.33318900  0.64989300  0.00317600  1
  C  C21  1  0.77158600  0.64022100  0.00573700  1
  C  C22  1  0.78248000  0.35790300  0.99598700  1
  C  C23  1  0.54416800  0.60148200  0.77508600  1
  C  C24  1  0.53987200  0.42227600  0.77647500  1
  C  C25  1  0.54796500  0.69027600  0.65640300  1
  C  C26  1  0.54607800  0.59978300  0.69614800  1
  C  C27  1  0.54684200  0.50742800  0.65703400  1
  C  C28  1  0.54490900  0.41735100  0.69735100  1
  C  C29  1  0.54550000  0.32392300  0.65835200  1
  C  C30  1  0.54847800  0.77930000  0.53807500  1
  C  C31  1  0.54998100  0.68847700  0.57755200  1
  C  C32  1  0.55082700  0.59632800  0.53828700  1
  C  C33  1  0.54592100  0.77932000  0.45907200  1
  C  C34  1  0.55368200  0.68628900  0.41927400  1
  C  C35  1  0.54946000  0.50547800  0.57813600  1
  C  C36  1  0.55113400  0.41289700  0.53916800  1
  C  C37  1  0.54932200  0.32187500  0.57896500  1
  C  C38  1  0.55608400  0.22945000  0.53887300  1
  C  C39  1  0.55412800  0.59508100  0.45935700  1
  C  C40  1  0.55869300  0.50218900  0.42059900  1
  C  C41  1  0.55661100  0.41145800  0.46028800  1
  C  C42  1  0.56078700  0.31921000  0.42089800  1
  C  C43  1  0.56088300  0.22855100  0.46031300  1
  C  C44  1  0.56582300  0.68247700  0.34046400  1
  C  C45  1  0.56962000  0.58950500  0.30218800  1
  C  C46  1  0.56532100  0.49980400  0.34198900  1
  C  C47  1  0.56883000  0.40781200  0.30262300  1
  C  C48  1  0.56629500  0.31724800  0.34214800  1
  C  C49  1  0.57621900  0.58622900  0.22352800  1
  C  C50  1  0.57371300  0.40694800  0.22371500  1
  C  C51  1  0.54222400  0.22753300  0.70065300  1
  C  C52  1  0.66980400  0.11032500  0.79318300  1
  C  C53  1  0.52849100  0.87923100  0.42043000  1
  C  C54  1  0.41140300  0.98671900  0.32255500  1
  N  N1  1  0.54054300  0.51318100  0.81376500  1
  N  N2  1  0.57688100  0.49581900  0.18552000  1
  O  O1  1  0.40063700  0.39948200  0.06132800  1
  O  O2  1  0.39087900  0.40418700  0.92907500  1
  O  O3  1  0.37711000  0.61716100  0.93570200  1
  O  O4  1  0.39718400  0.61234600  0.06791000  1
  O  O5  1  0.71648100  0.60972700  0.93813600  1
  O  O6  1  0.72575300  0.60526000  0.07023000  1
  O  O7  1  0.73977900  0.39179300  0.06341800  1
  O  O8  1  0.71934700  0.39635700  0.93142900  1
  O  O9  1  0.43337800  0.17216300  0.68782100  1
  O  O10  1  0.66060600  0.20065100  0.75279700  1
  O  O11  1  0.58469800  0.95376300  0.45153600  1
  O  O12  1  0.43590100  0.89186600  0.35566700  1
