# generated using pymatgen
data_Fe2H25C51NO17
_symmetry_space_group_name_H-M   'P 1'
_cell_length_a   14.16198200
_cell_length_b   15.95766600
_cell_length_c   13.27023700
_cell_angle_alpha   94.47009500
_cell_angle_beta   93.12526800
_cell_angle_gamma   65.41957200
_symmetry_Int_Tables_number   1
_chemical_formula_structural   Fe2H25C51NO17
_chemical_formula_sum   'Fe2 H25 C51 N1 O17'
_cell_volume   2718.09432205
_cell_formula_units_Z   1
loop_
 _symmetry_equiv_pos_site_id
 _symmetry_equiv_pos_as_xyz
  1  'x, y, z'
loop_
 _atom_site_type_symbol
 _atom_site_label
 _atom_site_symmetry_multiplicity
 _atom_site_fract_x
 _atom_site_fract_y
 _atom_site_fract_z
 _atom_site_occupancy
  Fe  Fe1  1  0.49462600  0.00026700  0.22542100  1
  Fe  Fe2  1  0.49785500  0.01420700  0.78139500  1
  H  H1  1  0.84882400  0.01651000  0.20963500  1
  H  H2  1  0.78914500  0.03643100  0.84332300  1
  H  H3  1  0.94937500  0.04597600  0.82540200  1
  H  H4  1  0.11380100  0.04668100  0.80384300  1
  H  H5  1  0.19342300  0.01395700  0.16655200  1
  H  H6  1  0.00297200  0.14868600  0.27061400  1
  H  H7  1  0.05315400  0.08373400  0.44663900  1
  H  H8  1  0.09601700  0.90430600  0.42854200  1
  H  H9  1  0.06958500  0.86289900  0.23288900  1
  H  H10  1  0.44787900  0.12842100  0.49436600  1
  H  H11  1  0.19420700  0.32887100  0.34248300  1
  H  H12  1  0.21516400  0.34829900  0.66516800  1
  H  H13  1  0.16213600  0.51366900  0.60296400  1
  H  H14  1  0.00308800  0.65478300  0.59993400  1
  H  H15  1  0.85675900  0.51524200  0.40629800  1
  H  H16  1  0.01779900  0.37538900  0.40481200  1
  H  H17  1  0.80833800  0.68014200  0.34585500  1
  H  H18  1  0.57271400  0.90308800  0.50873500  1
  H  H19  1  0.77367000  0.57250400  0.66879200  1
  H  H20  1  0.84309500  0.50625700  0.83145200  1
  H  H21  1  0.00481500  0.55942300  0.10779400  1
  H  H22  1  0.92905000  0.67517100  0.07046300  1
  H  H23  1  0.05414100  0.60504500  0.01351000  1
  H  H24  1  0.94224300  0.72356300  0.90591600  1
  H  H25  1  0.87446900  0.78721100  0.74472900  1
  C  C1  1  0.83723800  0.01978200  0.12892700  1
  C  C2  1  0.74676600  0.01714500  0.08679200  1
  C  C3  1  0.73043000  0.02181800  0.98212500  1
  C  C4  1  0.80202600  0.03293000  0.92421100  1
  C  C5  1  0.89293100  0.03305000  0.96671900  1
  C  C6  1  0.91216000  0.02467000  0.06915700  1
  C  C7  1  0.96530700  0.03944600  0.90568900  1
  C  C8  1  0.05858100  0.03588300  0.94621500  1
  C  C9  1  0.07941800  0.02613500  0.04831600  1
  C  C10  1  0.00588500  0.02149900  0.11061300  1
  C  C11  1  0.13144300  0.04051100  0.88388200  1
  C  C12  1  0.22671900  0.03511700  0.92234500  1
  C  C13  1  0.24716100  0.02584900  0.02596800  1
  C  C14  1  0.17442600  0.02031500  0.08696600  1
  C  C15  1  0.05001000  0.04439900  0.37742400  1
  C  C16  1  0.07229800  0.95129800  0.36831200  1
  C  C17  1  0.05862500  0.92985600  0.26736000  1
  C  C18  1  0.02840500  0.01090700  0.21920800  1
  C  C19  1  0.67055400  0.01266300  0.15603800  1
  C  C20  1  0.63527400  0.84062600  0.32305900  1
  C  C21  1  0.34124900  0.02586500  0.07746200  1
  C  C22  1  0.36055700  0.16814800  0.31687600  1
  C  C23  1  0.64979500  0.86669800  0.68636200  1
  C  C24  1  0.64401000  0.00907000  0.92768400  1
  C  C25  1  0.38215800  0.18219000  0.68160500  1
  C  C26  1  0.30430600  0.03503400  0.85173700  1
  C  C27  1  0.32781500  0.22655000  0.40978500  1
  C  C28  1  0.23564100  0.30415900  0.41249900  1
  C  C29  1  0.19774100  0.35082100  0.50393400  1
  C  C30  1  0.24885400  0.31546000  0.59359600  1
  C  C31  1  0.33788000  0.23387200  0.59092200  1
  C  C32  1  0.37942100  0.19275700  0.49853500  1
  C  C33  1  0.09490200  0.51322100  0.56066100  1
  C  C34  1  0.00462100  0.59291600  0.55930200  1
  C  C35  1  0.91743900  0.59389900  0.50595700  1
  C  C36  1  0.92377400  0.51558500  0.44911300  1
  C  C37  1  0.01494700  0.43647600  0.44840100  1
  C  C38  1  0.10051700  0.43454200  0.50532300  1
  C  C39  1  0.77266400  0.71368600  0.41647300  1
  C  C40  1  0.68221700  0.79382900  0.41592300  1
  C  C41  1  0.63961700  0.83752600  0.50658800  1
  C  C42  1  0.68681600  0.80443700  0.59692800  1
  C  C43  1  0.77639600  0.72373600  0.59873100  1
  C  C44  1  0.81955000  0.67765100  0.50755100  1
  C  C45  1  0.81890900  0.68450600  0.69627700  1
  C  C46  1  0.81100500  0.60534200  0.72103400  1
  C  C47  1  0.84987400  0.56819500  0.81262900  1
  C  C48  1  0.89723400  0.60939000  0.88057400  1
  C  C49  1  0.98266500  0.60457100  0.04325500  1
  C  C50  1  0.90549800  0.68889900  0.85564200  1
  C  C51  1  0.86636000  0.72600400  0.76396600  1
  N  N1  1  0.02345000  0.08016900  0.28628200  1
  O  O1  1  0.58768100  0.00225600  0.12057800  1
  O  O2  1  0.69091000  0.82679100  0.24257700  1
  O  O3  1  0.68505700  0.01997400  0.25428500  1
  O  O4  1  0.54131300  0.90730400  0.32874700  1
  O  O5  1  0.38154300  0.97274600  0.15339800  1
  O  O6  1  0.37221900  0.09071100  0.06219400  1
  O  O7  1  0.46049300  0.12330000  0.30000900  1
  O  O8  1  0.29416600  0.14007600  0.26999900  1
  O  O9  1  0.55776100  0.88412600  0.72053600  1
  O  O10  1  0.68760100  0.92880200  0.70492000  1
  O  O11  1  0.59102600  0.06500100  0.85731400  1
  O  O12  1  0.63315900  0.93192000  0.93450900  1
  O  O13  1  0.27645000  0.05809500  0.75843800  1
  O  O14  1  0.44873900  0.09575200  0.66704500  1
  O  O15  1  0.40228400  0.00733700  0.88069200  1
  O  O16  1  0.34672800  0.21628500  0.77195200  1
  O  O17  1  0.93411400  0.57041700  0.96937900  1
