# generated using pymatgen
data_VH12(C3O)5
_symmetry_space_group_name_H-M   'P 1'
_cell_length_a   19.79010000
_cell_length_b   6.81800000
_cell_length_c   16.92070100
_cell_angle_alpha   90.00000000
_cell_angle_beta   108.14530900
_cell_angle_gamma   90.00000000
_symmetry_Int_Tables_number   1
_chemical_formula_structural   VH12(C3O)5
_chemical_formula_sum   'V4 H48 C60 O20'
_cell_volume   2169.55289711
_cell_formula_units_Z   4
loop_
 _symmetry_equiv_pos_site_id
 _symmetry_equiv_pos_as_xyz
  1  'x, y, z'
loop_
 _atom_site_type_symbol
 _atom_site_label
 _atom_site_symmetry_multiplicity
 _atom_site_fract_x
 _atom_site_fract_y
 _atom_site_fract_z
 _atom_site_occupancy
  V  V1  1  0.49606200  0.99672500  0.48530600  1
  V  V2  1  0.50393900  0.49672500  0.51469300  1
  V  V3  1  0.00221500  0.35171800  0.01401100  1
  V  V4  1  0.99778300  0.85171900  0.98598900  1
  H  H1  1  0.80843300  0.45121300  0.82748100  1
  H  H2  1  0.19156700  0.95121300  0.17251900  1
  H  H3  1  0.79627900  0.01572100  0.78355500  1
  H  H4  1  0.20372200  0.51572100  0.21644500  1
  H  H5  1  0.69312600  0.48307800  0.71146800  1
  H  H6  1  0.30687400  0.98307600  0.28853200  1
  H  H7  1  0.70555100  0.04037400  0.69222500  1
  H  H8  1  0.29444900  0.54037300  0.30777500  1
  H  H9  1  0.32549800  0.92966600  0.58617100  1
  H  H10  1  0.67450200  0.42966600  0.41382900  1
  H  H11  1  0.35423700  0.61247700  0.80340200  1
  H  H12  1  0.64576300  0.11247700  0.19659800  1
  H  H13  1  0.26796800  0.59884500  0.88021700  1
  H  H14  1  0.73203200  0.09884500  0.11978300  1
  H  H15  1  0.17390600  0.43375800  0.91477700  1
  H  H16  1  0.82609400  0.93375800  0.08522300  1
  H  H17  1  0.10222200  0.87651200  0.80679100  1
  H  H18  1  0.89777800  0.37651100  0.19321000  1
  H  H19  1  0.23421300  0.76016600  0.62384100  1
  H  H20  1  0.76578700  0.26016500  0.37616000  1
  H  H21  1  0.11010300  0.30508600  0.69222500  1
  H  H22  1  0.04383400  0.42953300  0.60877900  1
  H  H23  1  0.10911600  0.27281500  0.58565400  1
  H  H24  1  0.13838700  0.62568600  0.57886600  1
  H  H25  1  0.20513800  0.49987500  0.66169700  1
  H  H26  1  0.14754500  0.62012300  0.76361400  1
  H  H27  1  0.08101200  0.74572100  0.68099300  1
  H  H28  1  0.88989800  0.80508600  0.30777600  1
  H  H29  1  0.95616600  0.92953200  0.39122100  1
  H  H30  1  0.89088400  0.77281600  0.41434600  1
  H  H31  1  0.86161300  0.12568600  0.42113400  1
  H  H32  1  0.79486300  0.99987500  0.33830400  1
  H  H33  1  0.85245500  0.12012400  0.23638600  1
  H  H34  1  0.91898800  0.24572200  0.31900700  1
  H  H35  1  0.47587500  0.85582400  0.77639500  1
  H  H36  1  0.51055200  0.78622700  0.69321900  1
  H  H37  1  0.44499000  0.97938300  0.67705600  1
  H  H38  1  0.39098800  0.66666667  0.61015400  1
  H  H39  1  0.35609000  0.73755000  0.69318000  1
  H  H40  1  0.44548100  0.51719800  0.79023800  1
  H  H41  1  0.47665600  0.44173000  0.70696500  1
  H  H42  1  0.52412500  0.35582500  0.22360600  1
  H  H43  1  0.48944800  0.28622700  0.30678000  1
  H  H44  1  0.55501000  0.47938300  0.32294400  1
  H  H45  1  0.60901200  0.16664400  0.38984600  1
  H  H46  1  0.64391000  0.23755000  0.30682000  1
  H  H47  1  0.55451900  0.01719900  0.20976200  1
  H  H48  1  0.52334400  0.94173100  0.29303500  1
  C  C1  1  0.58000500  0.71490300  0.41173300  1
  C  C2  1  0.41999600  0.21490300  0.58826800  1
  C  C3  1  0.38470000  0.71181300  0.38743500  1
  C  C4  1  0.61530100  0.21181300  0.61256600  1
  C  C5  1  0.78499800  0.31997000  0.79388300  1
  C  C6  1  0.21500100  0.81996900  0.20611700  1
  C  C7  1  0.81854500  0.14878000  0.81613600  1
  C  C8  1  0.18145500  0.64878200  0.18386400  1
  C  C9  1  0.71684900  0.33873700  0.72525200  1
  C  C10  1  0.28315100  0.83873800  0.27474800  1
  C  C11  1  0.68331100  0.18632300  0.67992000  1
  C  C12  1  0.31669000  0.68632500  0.32007900  1
  C  C13  1  0.32524800  0.04455900  0.63011200  1
  C  C14  1  0.67475300  0.54455900  0.36988700  1
  C  C15  1  0.37187100  0.20092500  0.64001400  1
  C  C16  1  0.62812800  0.70092300  0.35998600  1
  C  C17  1  0.37152400  0.34506900  0.69802500  1
  C  C18  1  0.62847600  0.84507000  0.30197400  1
  C  C19  1  0.32184700  0.33910200  0.74072000  1
  C  C20  1  0.67815200  0.83910300  0.25928000  1
  C  C21  1  0.27536900  0.18333500  0.73001000  1
  C  C22  1  0.72463100  0.68333400  0.26999000  1
  C  C23  1  0.27786300  0.03471600  0.67565300  1
  C  C24  1  0.72213700  0.53471800  0.32434700  1
  C  C25  1  0.31901600  0.48788600  0.79519000  1
  C  C26  1  0.68098300  0.98788700  0.20481000  1
  C  C27  1  0.26999400  0.48115500  0.83819700  1
  C  C28  1  0.73000700  0.98115200  0.16180300  1
  C  C29  1  0.22421000  0.32391500  0.82848200  1
  C  C30  1  0.77579100  0.82391500  0.17151700  1
  C  C31  1  0.22738000  0.17432900  0.77480200  1
  C  C32  1  0.77262100  0.67433000  0.22519800  1
  C  C33  1  0.18282400  0.01491800  0.76647200  1
  C  C34  1  0.81717600  0.51491800  0.23352800  1
  C  C35  1  0.18536100  0.86600300  0.71209800  1
  C  C36  1  0.81464000  0.36600200  0.28790200  1
  C  C37  1  0.23243900  0.87655700  0.66647700  1
  C  C38  1  0.76756100  0.37655600  0.33352300  1
  C  C39  1  0.17589900  0.31578100  0.87288100  1
  C  C40  1  0.82410000  0.81578000  0.12711900  1
  C  C41  1  0.13204700  0.15422900  0.86605900  1
  C  C42  1  0.86795400  0.65423100  0.13394000  1
  C  C43  1  0.13616500  0.00349700  0.81283600  1
  C  C44  1  0.86383500  0.50349800  0.18716400  1
  C  C45  1  0.11390600  0.63442300  0.11495100  1
  C  C46  1  0.88609600  0.13442400  0.88505000  1
  C  C47  1  0.91714100  0.63857700  0.08389500  1
  C  C48  1  0.08285800  0.13857700  0.91610500  1
  C  C49  1  0.13698800  0.69461000  0.70269300  1
  C  C50  1  0.14927200  0.55186500  0.63996900  1
  C  C51  1  0.09976500  0.37822900  0.63106400  1
  C  C52  1  0.86301300  0.19461000  0.29730700  1
  C  C53  1  0.85072900  0.05186400  0.36003200  1
  C  C54  1  0.90023500  0.87822900  0.36893600  1
  C  C55  1  0.42921000  0.49453200  0.72201100  1
  C  C56  1  0.40397700  0.68681800  0.67829400  1
  C  C57  1  0.46271700  0.83718400  0.70815900  1
  C  C58  1  0.57079000  0.99453200  0.27799000  1
  C  C59  1  0.59602300  0.18681900  0.32170600  1
  C  C60  1  0.53728300  0.33718400  0.29184100  1
  O  O1  1  0.41417100  0.54615700  0.42503700  1
  O  O2  1  0.58583000  0.04615800  0.57496200  1
  O  O3  1  0.55326200  0.89286600  0.41649600  1
  O  O4  1  0.44673800  0.39286800  0.58350400  1
  O  O5  1  0.41165800  0.89323500  0.39863600  1
  O  O6  1  0.58834200  0.39323400  0.60136500  1
  O  O7  1  0.43469600  0.04673900  0.55594500  1
  O  O8  1  0.56530400  0.54674000  0.44405200  1
  O  O9  1  0.51101700  0.72891300  0.55010500  1
  O  O10  1  0.48898300  0.22891300  0.44989600  1
  O  O11  1  0.93434400  0.80634400  0.05360900  1
  O  O12  1  0.06565600  0.30634500  0.94639000  1
  O  O13  1  0.08542500  0.45507100  0.10235400  1
  O  O14  1  0.91457500  0.95507300  0.89764600  1
  O  O15  1  0.94306600  0.45925100  0.07982700  1
  O  O16  1  0.05693500  0.95925300  0.92017300  1
  O  O17  1  0.91372200  0.30246300  0.92228900  1
  O  O18  1  0.08627800  0.80246500  0.07771000  1
  O  O19  1  0.99214900  0.62049600  0.94985300  1
  O  O20  1  0.00785200  0.12049600  0.05014800  1
