# generated using pymatgen
data_Zn2H15C35N3O8
_symmetry_space_group_name_H-M   'P 1'
_cell_length_a   10.91595900
_cell_length_b   10.93854900
_cell_length_c   13.39435200
_cell_angle_alpha   90.00000000
_cell_angle_beta   90.40723100
_cell_angle_gamma   90.00000000
_symmetry_Int_Tables_number   1
_chemical_formula_structural   Zn2H15C35N3O8
_chemical_formula_sum   'Zn2 H15 C35 N3 O8'
_cell_volume   1599.30888728
_cell_formula_units_Z   1
loop_
 _symmetry_equiv_pos_site_id
 _symmetry_equiv_pos_as_xyz
  1  'x, y, z'
loop_
 _atom_site_type_symbol
 _atom_site_label
 _atom_site_symmetry_multiplicity
 _atom_site_fract_x
 _atom_site_fract_y
 _atom_site_fract_z
 _atom_site_occupancy
  Zn  Zn1  1  0.98325900  0.00000000  0.10936400  1
  Zn  Zn2  1  0.01173600  0.00000000  0.89002100  1
  H  H1  1  0.20743900  0.00000000  0.74945500  1
  H  H2  1  0.79415000  0.00000000  0.26221800  1
  H  H3  1  0.69922900  0.00000000  0.42191200  1
  H  H4  1  0.21132600  0.00000000  0.57128100  1
  H  H5  1  0.20167100  0.00000000  0.41545400  1
  H  H6  1  0.82249600  0.00000000  0.74813700  1
  H  H7  1  0.17789900  0.00000000  0.23972700  1
  H  H8  1  0.40354000  0.19387100  0.98291600  1
  H  H9  1  0.40354000  0.80612900  0.98291600  1
  H  H10  1  0.59139400  0.19386800  0.01601900  1
  H  H11  1  0.59139400  0.80613200  0.01601900  1
  H  H12  1  0.08675400  0.39318100  0.05294100  1
  H  H13  1  0.08675400  0.60681900  0.05294100  1
  H  H14  1  0.90820500  0.39319500  0.94612400  1
  H  H15  1  0.90820500  0.60680500  0.94612400  1
  C  C1  1  0.16558600  0.17376200  0.01044900  1
  C  C2  1  0.16558600  0.82623800  0.01044900  1
  C  C3  1  0.82939400  0.17381400  0.98860300  1
  C  C4  1  0.82939400  0.82618600  0.98860300  1
  C  C5  1  0.90801300  0.00000000  0.70803100  1
  C  C6  1  0.12162400  0.00000000  0.70871700  1
  C  C7  1  0.12264600  0.00000000  0.60570400  1
  C  C8  1  0.01310100  0.00000000  0.55176200  1
  C  C9  1  0.90522400  0.00000000  0.60511200  1
  C  C10  1  0.10935700  0.00000000  0.38694600  1
  C  C11  1  0.00678100  0.00000000  0.44730400  1
  C  C12  1  0.89304800  0.00000000  0.40097900  1
  C  C13  1  0.78830500  0.00000000  0.45769400  1
  C  C14  1  0.09628800  0.00000000  0.28479900  1
  C  C15  1  0.88335600  0.00000000  0.29776500  1
  C  C16  1  0.24083000  0.28378200  0.01856300  1
  C  C17  1  0.24083000  0.71621800  0.01856300  1
  C  C18  1  0.18411300  0.39224600  0.03933500  1
  C  C19  1  0.18411300  0.60775400  0.03933500  1
  C  C20  1  0.24789200  0.50000000  0.03243500  1
  C  C21  1  0.36497400  0.28145700  0.00142800  1
  C  C22  1  0.36497400  0.71854300  0.00142800  1
  C  C23  1  0.43387800  0.38919100  0.00504700  1
  C  C24  1  0.43387800  0.61080900  0.00504700  1
  C  C25  1  0.37255400  0.50000000  0.01444400  1
  C  C26  1  0.62996100  0.28145700  0.99751600  1
  C  C27  1  0.62996100  0.71854300  0.99751600  1
  C  C28  1  0.56105300  0.38919000  0.99388600  1
  C  C29  1  0.56105300  0.61081000  0.99388600  1
  C  C30  1  0.62237900  0.50000000  0.98450400  1
  C  C31  1  0.75411600  0.28379600  0.98043300  1
  C  C32  1  0.75411600  0.71620400  0.98043300  1
  C  C33  1  0.81083600  0.39225700  0.95968500  1
  C  C34  1  0.81083600  0.60774300  0.95968500  1
  C  C35  1  0.74704800  0.50000000  0.96655400  1
  N  N1  1  0.01515800  0.00000000  0.75842600  1
  N  N2  1  0.79609100  0.00000000  0.55781400  1
  N  N3  1  0.98475800  0.00000000  0.24128000  1
  O  O1  1  0.13692000  0.12992600  0.92212300  1
  O  O2  1  0.13692000  0.87007400  0.92212300  1
  O  O3  1  0.11005200  0.13250000  0.09011700  1
  O  O4  1  0.11005200  0.86750000  0.09011700  1
  O  O5  1  0.85819500  0.13021800  0.07710400  1
  O  O6  1  0.85819500  0.86978200  0.07710400  1
  O  O7  1  0.88469100  0.13238600  0.90875300  1
  O  O8  1  0.88469100  0.86761400  0.90875300  1
