# generated using pymatgen
data_Zn4H30C48O13
_symmetry_space_group_name_H-M   'P 1'
_cell_length_a   19.38587700
_cell_length_b   27.61356800
_cell_length_c   19.44407000
_cell_angle_alpha   72.86255300
_cell_angle_beta   89.73209100
_cell_angle_gamma   72.08103600
_symmetry_Int_Tables_number   1
_chemical_formula_structural   Zn4H30C48O13
_chemical_formula_sum   'Zn8 H60 C96 O26'
_cell_volume   9421.63708589
_cell_formula_units_Z   2
loop_
 _symmetry_equiv_pos_site_id
 _symmetry_equiv_pos_as_xyz
  1  'x, y, z'
loop_
 _atom_site_type_symbol
 _atom_site_label
 _atom_site_symmetry_multiplicity
 _atom_site_fract_x
 _atom_site_fract_y
 _atom_site_fract_z
 _atom_site_occupancy
  Zn  Zn1  1  0.54585200  0.44649800  0.49213500  1
  Zn  Zn2  1  0.52965600  0.49169700  0.61959500  1
  Zn  Zn3  1  0.39576900  0.51698200  0.51568800  1
  Zn  Zn4  1  0.46048500  0.40398000  0.62197800  1
  Zn  Zn5  1  0.83258100  0.92180400  0.27968300  1
  Zn  Zn6  1  0.88080700  0.98576600  0.13823100  1
  Zn  Zn7  1  0.71870400  0.99061300  0.14477500  1
  Zn  Zn8  1  0.78689400  0.04389700  0.23406800  1
  H  H1  1  0.74826500  0.47767700  0.65822300  1
  H  H2  1  0.17874500  0.52699300  0.51283900  1
  H  H3  1  0.25528100  0.38589000  0.69521100  1
  H  H4  1  0.99588800  0.42917500  0.66843900  1
  H  H5  1  0.88929000  0.44733400  0.45564200  1
  H  H6  1  0.05677300  0.52239400  0.52067200  1
  H  H7  1  0.76286600  0.44883400  0.45347500  1
  H  H8  1  0.98596300  0.47257100  0.50356400  1
  H  H9  1  0.87382900  0.47566600  0.66046500  1
  H  H10  1  0.13115000  0.38173600  0.70313600  1
  H  H11  1  0.07990500  0.87662400  0.13472300  1
  H  H12  1  0.33951000  0.51600800  0.28461000  1
  H  H13  1  0.49038000  0.59806100  0.29491800  1
  H  H14  1  0.27816300  0.73038200  0.15287700  1
  H  H15  1  0.11097000  0.70204200  0.31383500  1
  H  H16  1  0.25869600  0.59582200  0.19814700  1
  H  H17  1  0.01229200  0.77942700  0.31995000  1
  H  H18  1  0.20446900  0.65919200  0.25683600  1
  H  H19  1  0.17703300  0.79962900  0.12788900  1
  H  H20  1  0.40776600  0.67929200  0.21137500  1
  H  H21  1  0.42507600  0.29421600  0.51676400  1
  H  H22  1  0.60930400  0.19728600  0.13056900  1
  H  H23  1  0.51667600  0.07404200  0.22071900  1
  H  H24  1  0.41886900  0.22656300  0.32835000  1
  H  H25  1  0.64130800  0.23414700  0.39287400  1
  H  H26  1  0.53718700  0.24994100  0.20119200  1
  H  H27  1  0.64140200  0.28983600  0.46879300  1
  H  H28  1  0.58546600  0.19100000  0.33583700  1
  H  H29  1  0.42370300  0.23956100  0.43889300  1
  H  H30  1  0.44570000  0.12621600  0.29352700  1
  H  H31  1  0.62118900  0.44199200  0.81881700  1
  H  H32  1  0.87547600  0.16516300  0.20992700  1
  H  H33  1  0.94343000  0.11886400  0.02258500  1
  H  H34  1  0.81445100  0.31082900  0.94162400  1
  H  H35  1  0.62654500  0.26002200  0.95435200  1
  H  H36  1  0.82652600  0.25718300  0.13513800  1
  H  H37  1  0.54033700  0.31002700  0.84681100  1
  H  H38  1  0.72170200  0.25702600  0.04435600  1
  H  H39  1  0.70791600  0.39118000  0.92296500  1
  H  H40  1  0.89736200  0.21181600  0.94906600  1
  H  H41  1  0.34448900  0.68200200  0.45224600  1
  H  H42  1  0.71418700  0.82520400  0.38396700  1
  H  H43  1  0.57655000  0.89830800  0.18513500  1
  H  H44  1  0.46409700  0.78387000  0.34483300  1
  H  H45  1  0.51706400  0.72905600  0.58349900  1
  H  H46  1  0.62439500  0.78632200  0.43951700  1
  H  H47  1  0.49200400  0.64590200  0.63702600  1
  H  H48  1  0.51216800  0.80483600  0.48044500  1
  H  H49  1  0.36909600  0.76507600  0.39961800  1
  H  H50  1  0.48596800  0.85861400  0.24181100  1
  H  H51  1  0.68266700  0.00158100  0.91594700  1
  H  H52  1  0.86145200  0.89564500  0.51122600  1
  H  H53  1  0.75243900  0.06452300  0.43362600  1
  H  H54  1  0.72749000  0.01833300  0.68226400  1
  H  H55  1  0.92372900  0.93392900  0.83385400  1
  H  H56  1  0.84195300  0.89695100  0.63436500  1
  H  H57  1  0.91513900  0.94767700  0.95129300  1
  H  H58  1  0.86808900  0.92410400  0.72899000  1
  H  H59  1  0.69177400  0.98840100  0.79717700  1
  H  H60  1  0.73269800  0.06543200  0.55626800  1
  C  C1  1  0.30058100  0.45854700  0.59461100  1
  C  C2  1  0.53520200  0.40617700  0.75308700  1
  C  C3  1  0.52804700  0.33943600  0.52667600  1
  C  C4  1  0.66989300  0.46563700  0.55426800  1
  C  C5  1  0.44082800  0.52060200  0.37020600  1
  C  C6  1  0.42613000  0.60082700  0.56445300  1
  C  C7  1  0.63531300  0.09330500  0.16630000  1
  C  C8  1  0.89577000  0.08535900  0.15327100  1
  C  C9  1  0.81559800  0.97987700  0.38822500  1
  C  C10  1  0.97505000  0.87905800  0.22616600  1
  C  C11  1  0.70164700  0.89411600  0.25073100  1
  C  C12  1  0.79504200  0.98357200  0.01369300  1
  C  C13  1  0.74657400  0.46319500  0.55578600  1
  C  C14  1  0.77884000  0.47043800  0.61363100  1
  C  C15  1  0.85079800  0.46848200  0.61542400  1
  C  C16  1  0.89116200  0.45990800  0.55879400  1
  C  C17  1  0.85857800  0.45336600  0.50065400  1
  C  C18  1  0.78705600  0.45417300  0.49952500  1
  C  C19  1  0.09991400  0.49164000  0.55874200  1
  C  C20  1  0.16944100  0.49471700  0.55504800  1
  C  C21  1  0.21191300  0.41602800  0.65672500  1
  C  C22  1  0.14177000  0.41362600  0.66126100  1
  C  C23  1  0.08578900  0.45057800  0.61121600  1
  C  C24  1  0.96638200  0.46138100  0.55630600  1
  C  C25  1  0.01172500  0.44681300  0.61584200  1
  C  C26  1  0.22613800  0.45654800  0.60324900  1
  C  C27  1  0.03939300  0.83368200  0.22830000  1
  C  C28  1  0.08689200  0.83862400  0.17527300  1
  C  C29  1  0.14264100  0.79453600  0.17143100  1
  C  C30  1  0.15146100  0.74499300  0.22100000  1
  C  C31  1  0.10470500  0.74049200  0.27461200  1
  C  C32  1  0.04903300  0.78445700  0.27844400  1
  C  C33  1  0.31151100  0.59594200  0.21556100  1
  C  C34  1  0.35786600  0.55028700  0.26341800  1
  C  C35  1  0.44270100  0.59607800  0.26874600  1
  C  C36  1  0.39548100  0.64229500  0.22194000  1
  C  C37  1  0.32695100  0.64330100  0.20142300  1
  C  C38  1  0.20822500  0.69590000  0.21951100  1
  C  C39  1  0.26741600  0.69419700  0.18324200  1
  C  C40  1  0.42043100  0.55170700  0.29470900  1
  C  C41  1  0.53369700  0.29512900  0.49846800  1
  C  C42  1  0.47365700  0.27931400  0.49174500  1
  C  C43  1  0.47245400  0.24925000  0.44634400  1
  C  C44  1  0.53224800  0.23399800  0.40913000  1
  C  C45  1  0.59418800  0.24592800  0.42145600  1
  C  C46  1  0.59443100  0.27726700  0.46455900  1
  C  C47  1  0.52816300  0.21310900  0.20167000  1
  C  C48  1  0.56831900  0.18365100  0.16087200  1
  C  C49  1  0.51602500  0.11480100  0.21095900  1
  C  C50  1  0.47644500  0.14405500  0.25292800  1
  C  C51  1  0.48715100  0.19128900  0.25222200  1
  C  C52  1  0.53269900  0.20834900  0.35287500  1
  C  C53  1  0.47383700  0.21024300  0.31533100  1
  C  C54  1  0.56670700  0.13270900  0.16977200  1
  C  C55  1  0.57469400  0.37938100  0.82487100  1
  C  C56  1  0.62028500  0.40243500  0.84847800  1
  C  C57  1  0.67031600  0.37353800  0.90736800  1
  C  C58  1  0.67366800  0.32198200  0.94445700  1
  C  C59  1  0.62394100  0.30054400  0.92511200  1
  C  C60  1  0.57532400  0.32875200  0.86447200  1
  C  C61  1  0.85728900  0.22741100  0.11122400  1
  C  C62  1  0.88502700  0.17501600  0.15342300  1
  C  C63  1  0.92383100  0.14917500  0.04910500  1
  C  C64  1  0.89760100  0.20198600  0.00716000  1
  C  C65  1  0.85808300  0.24000000  0.03739700  1
  C  C66  1  0.73241800  0.28818900  0.00100100  1
  C  C67  1  0.80132600  0.28651000  0.99147400  1
  C  C68  1  0.91061800  0.13544800  0.12097500  1
  C  C69  1  0.41785500  0.65751500  0.54762700  1
  C  C70  1  0.37996200  0.69296300  0.48325600  1
  C  C71  1  0.39507700  0.73986200  0.45261100  1
  C  C72  1  0.44759000  0.75139200  0.48681400  1
  C  C73  1  0.47641400  0.72008300  0.55609800  1
  C  C74  1  0.46227300  0.67283900  0.58628500  1
  C  C75  1  0.61244100  0.81170900  0.38401200  1
  C  C76  1  0.66450500  0.83277100  0.35180700  1
  C  C77  1  0.58764100  0.87349500  0.24097400  1
  C  C78  1  0.53610100  0.85148600  0.27299000  1
  C  C79  1  0.54711000  0.82218600  0.34522800  1
  C  C80  1  0.48270600  0.79025300  0.44829200  1
  C  C81  1  0.49213700  0.79853500  0.37807800  1
  C  C82  1  0.65174800  0.86469300  0.28060500  1
  C  C83  1  0.79810500  0.97637600  0.94176800  1
  C  C84  1  0.73581300  0.98708500  0.89804200  1
  C  C85  1  0.74112700  0.98003500  0.83036400  1
  C  C86  1  0.80886500  0.96112000  0.80669800  1
  C  C87  1  0.87060200  0.94900800  0.85146300  1
  C  C88  1  0.86543700  0.95729100  0.91791100  1
  C  C89  1  0.82343500  0.93418700  0.59077900  1
  C  C90  1  0.83418600  0.93329000  0.52070000  1
  C  C91  1  0.77345700  0.02742600  0.47715000  1
  C  C92  1  0.76161000  0.02807600  0.54674600  1
  C  C93  1  0.78684200  0.98178600  0.60407200  1
  C  C94  1  0.81802100  0.95290800  0.73537300  1
  C  C95  1  0.77236400  0.98499800  0.67726900  1
  C  C96  1  0.80940900  0.98000800  0.46347600  1
  O  O1  1  0.48307500  0.46431100  0.56267200  1
  O  O2  1  0.64294400  0.44873900  0.50734000  1
  O  O3  1  0.48400800  0.56616200  0.60632100  1
  O  O4  1  0.39013000  0.52942400  0.41409200  1
  O  O5  1  0.62921100  0.48436500  0.60076500  1
  O  O6  1  0.50879100  0.49224800  0.39482500  1
  O  O7  1  0.38665800  0.58600700  0.52490300  1
  O  O8  1  0.30974500  0.50043800  0.54680000  1
  O  O9  1  0.48818300  0.34574900  0.58048500  1
  O  O10  1  0.35678500  0.41754000  0.63045200  1
  O  O11  1  0.55554800  0.37618300  0.48970500  1
  O  O12  1  0.53918600  0.45380500  0.71927200  1
  O  O13  1  0.50869700  0.37967100  0.71933500  1
  O  O14  1  0.80449400  0.98511500  0.19906600  1
  O  O15  1  0.92554000  0.87259900  0.27166200  1
  O  O16  1  0.85521000  0.98304100  0.04512100  1
  O  O17  1  0.67974300  0.93444100  0.19079800  1
  O  O18  1  0.96440200  0.92379500  0.17317100  1
  O  O19  1  0.76218100  0.88481400  0.28989800  1
  O  O20  1  0.73506000  0.98741800  0.04705700  1
  O  O21  1  0.63789600  0.05418400  0.13972400  1
  O  O22  1  0.79363000  0.02593700  0.33686700  1
  O  O23  1  0.69162400  0.09297500  0.20373100  1
  O  O24  1  0.83647100  0.93458400  0.37248700  1
  O  O25  1  0.91152500  0.04826900  0.12071800  1
  O  O26  1  0.84871000  0.08588400  0.20184200  1
