# generated using pymatgen
data_Fe2H21C40NO18
_symmetry_space_group_name_H-M   'P 1'
_cell_length_a   14.10873800
_cell_length_b   10.20112100
_cell_length_c   13.10498000
_cell_angle_alpha   82.94741300
_cell_angle_beta   93.15127100
_cell_angle_gamma   113.54095400
_symmetry_Int_Tables_number   1
_chemical_formula_structural   Fe2H21C40NO18
_chemical_formula_sum   'Fe2 H21 C40 N1 O18'
_cell_volume   1716.04018754
_cell_formula_units_Z   1
loop_
 _symmetry_equiv_pos_site_id
 _symmetry_equiv_pos_as_xyz
  1  'x, y, z'
loop_
 _atom_site_type_symbol
 _atom_site_label
 _atom_site_symmetry_multiplicity
 _atom_site_fract_x
 _atom_site_fract_y
 _atom_site_fract_z
 _atom_site_occupancy
  Fe  Fe1  1  0.49060900  0.99525500  0.22883700  1
  Fe  Fe2  1  0.49124600  0.98617600  0.77346900  1
  H  H1  1  0.86299300  0.04627000  0.20107600  1
  H  H2  1  0.80205500  0.00784800  0.83231600  1
  H  H3  1  0.96551900  0.00531900  0.81416700  1
  H  H4  1  0.20916400  0.05082700  0.15911900  1
  H  H5  1  0.04391400  0.85478400  0.26799800  1
  H  H6  1  0.08601500  0.95599100  0.44289500  1
  H  H7  1  0.09658400  0.22441000  0.41763100  1
  H  H8  1  0.05946100  0.28240300  0.21855300  1
  H  H9  1  0.47496700  0.81716600  0.52410400  1
  H  H10  1  0.48765100  0.49829200  0.29636800  1
  H  H11  1  0.58726200  0.20757000  0.47871500  1
  H  H12  1  0.43860500  0.30009900  0.78848800  1
  H  H13  1  0.39020400  0.43404000  0.74063100  1
  H  H14  1  0.46760900  0.56676200  0.89234700  1
  H  H15  1  0.38210000  0.38279200  0.93138600  1
  H  H16  1  0.52066000  0.43493200  0.93656600  1
  H  H17  1  0.05164800  0.76762400  0.85580800  1
  H  H18  1  0.14387200  0.78728800  0.75861000  1
  H  H19  1  0.02333200  0.82493100  0.62307400  1
  H  H20  1  0.96730900  0.65225400  0.69957900  1
  H  H21  1  0.92972500  0.79639200  0.72141600  1
  C  C1  1  0.85148900  0.04071000  0.11964800  1
  C  C2  1  0.75612000  0.02858000  0.07854900  1
  C  C3  1  0.73859400  0.01727600  0.97343600  1
  C  C4  1  0.81665000  0.01972600  0.91318900  1
  C  C5  1  0.90969800  0.02585000  0.95582900  1
  C  C6  1  0.92832900  0.03812700  0.05912700  1
  C  C7  1  0.98226500  0.01459100  0.89494300  1
  C  C8  1  0.07418600  0.01376000  0.93692000  1
  C  C9  1  0.09451200  0.02934400  0.03987700  1
  C  C10  1  0.02209100  0.04275400  0.10133900  1
  C  C11  1  0.14535900  0.99687800  0.87596200  1
  C  C12  1  0.24079400  0.00483700  0.91609000  1
  C  C13  1  0.26112700  0.02317100  0.01965300  1
  C  C14  1  0.18808300  0.03325600  0.08017400  1
  C  C15  1  0.07444000  0.01334400  0.37159300  1
  C  C16  1  0.08004000  0.15264900  0.35873300  1
  C  C17  1  0.06081400  0.18265300  0.25601700  1
  C  C18  1  0.04425000  0.06025700  0.21061000  1
  C  C19  1  0.67793000  0.02851900  0.14926500  1
  C  C20  1  0.49589800  0.74608900  0.34529500  1
  C  C21  1  0.35765500  0.03196300  0.07107300  1
  C  C22  1  0.52181300  0.26118100  0.29373700  1
  C  C23  1  0.51351500  0.74879700  0.71082900  1
  C  C24  1  0.63803200  0.99099400  0.92334000  1
  C  C25  1  0.56229300  0.26460700  0.65467100  1
  C  C26  1  0.31813200  0.99716900  0.84766500  1
  C  C27  1  0.49730100  0.66112600  0.44438400  1
  C  C28  1  0.48724500  0.71854400  0.53067400  1
  C  C29  1  0.50510100  0.66339200  0.62655200  1
  C  C30  1  0.52911500  0.54373400  0.63974900  1
  C  C31  1  0.53844900  0.48033800  0.55334600  1
  C  C32  1  0.51948000  0.53843400  0.45530400  1
  C  C33  1  0.51564400  0.46791800  0.36983600  1
  C  C34  1  0.54208700  0.35130400  0.37799800  1
  C  C35  1  0.57094300  0.30313400  0.47189800  1
  C  C36  1  0.56461300  0.35987300  0.56031400  1
  C  C37  1  0.45404200  0.41556000  0.78437300  1
  C  C38  1  0.45633800  0.45280500  0.89319900  1
  C  C39  1  0.08161800  0.81994200  0.77829700  1
  C  C40  1  0.99471300  0.77026500  0.70044500  1
  N  N1  1  0.05256900  0.95780200  0.28106000  1
  O  O1  1  0.58401500  0.00833400  0.11727800  1
  O  O2  1  0.55774900  0.75679800  0.27075900  1
  O  O3  1  0.70128500  0.04384900  0.24662600  1
  O  O4  1  0.45060400  0.83681300  0.34242900  1
  O  O5  1  0.35230600  0.96507900  0.16416000  1
  O  O6  1  0.44721700  0.12149600  0.03246300  1
  O  O7  1  0.57203900  0.17703000  0.29253700  1
  O  O8  1  0.43781000  0.23797400  0.23789400  1
  O  O9  1  0.43858700  0.79133600  0.72290200  1
  O  O10  1  0.60579700  0.81913400  0.74797300  1
  O  O11  1  0.63305000  0.06761000  0.83642100  1
  O  O12  1  0.55751400  0.87383000  0.95339300  1
  O  O13  1  0.31706200  0.04019300  0.74923300  1
  O  O14  1  0.50607300  0.12680000  0.65070700  1
  O  O15  1  0.39073600  0.95312500  0.88333900  1
  O  O16  1  0.62504200  0.30933300  0.73236600  1
  O  O17  1  0.54987200  0.49753500  0.73762100  1
  O  O18  1  0.12009800  0.96970100  0.77606000  1
