# generated using pymatgen
data_FeH7C24NO10F
_symmetry_space_group_name_H-M   'P 1'
_cell_length_a   12.45501400
_cell_length_b   18.32073000
_cell_length_c   13.04300300
_cell_angle_alpha   105.99272600
_cell_angle_beta   80.65435900
_cell_angle_gamma   82.18978300
_symmetry_Int_Tables_number   1
_chemical_formula_structural   FeH7C24NO10F
_chemical_formula_sum   'Fe2 H14 C48 N2 O20 F2'
_cell_volume   2771.39061717
_cell_formula_units_Z   2
loop_
 _symmetry_equiv_pos_site_id
 _symmetry_equiv_pos_as_xyz
  1  'x, y, z'
loop_
 _atom_site_type_symbol
 _atom_site_label
 _atom_site_symmetry_multiplicity
 _atom_site_fract_x
 _atom_site_fract_y
 _atom_site_fract_z
 _atom_site_occupancy
  Fe  Fe1  1  0.51710900  0.02461800  0.27712800  1
  Fe  Fe2  1  0.50951200  0.00861900  0.73029300  1
  H  H1  1  0.64441400  0.04177000  0.98503100  1
  H  H2  1  0.94031100  0.97373100  0.74655700  1
  H  H3  1  0.40146100  0.93499500  0.99923400  1
  H  H4  1  0.09974500  0.00641000  0.23324900  1
  H  H5  1  0.93266500  0.01939700  0.18148300  1
  H  H6  1  0.69314000  0.51940300  0.60796700  1
  H  H7  1  0.80044200  0.42032400  0.65934500  1
  H  H8  1  0.26574600  0.48810200  0.40075000  1
  H  H9  1  0.15837800  0.58605500  0.34754400  1
  H  H10  1  0.27073900  0.23670100  0.44944600  1
  H  H11  1  0.13392800  0.36286200  0.78227000  1
  H  H12  1  0.70845200  0.77817200  0.55984000  1
  H  H13  1  0.71793300  0.74120200  0.17106300  1
  H  H14  1  0.80931500  0.63897500  0.22827400  1
  C  C1  1  0.79154300  0.02334300  0.04671100  1
  C  C2  1  0.73390300  0.03074500  0.96710500  1
  C  C3  1  0.78745100  0.01219300  0.86018200  1
  C  C4  1  0.90068200  0.99021600  0.83178600  1
  C  C5  1  0.96145500  0.98913000  0.91142900  1
  C  C6  1  0.90743500  0.00456300  0.01889100  1
  C  C7  1  0.07617100  0.97065000  0.88159500  1
  C  C8  1  0.14020500  0.96612300  0.95872400  1
  C  C9  1  0.08506300  0.98337800  0.06673400  1
  C  C10  1  0.97080500  0.00273900  0.09606900  1
  C  C11  1  0.25700600  0.94889300  0.93430000  1
  C  C12  1  0.31198100  0.94660400  0.01746600  1
  C  C13  1  0.25687200  0.96978500  0.12444800  1
  C  C14  1  0.14330400  0.98738900  0.14896200  1
  C  C15  1  0.72410500  0.02500200  0.15180700  1
  C  C16  1  0.61112200  0.88203800  0.29094200  1
  C  C17  1  0.32046400  0.98996200  0.20958400  1
  C  C18  1  0.38527500  0.11596600  0.47847800  1
  C  C19  1  0.61011900  0.90355500  0.53048000  1
  C  C20  1  0.72050800  0.00100100  0.77750800  1
  C  C21  1  0.36708500  0.13060900  0.71497300  1
  C  C22  1  0.32972600  0.95323500  0.83568100  1
  C  C23  1  0.93832300  0.62790000  0.39785800  1
  C  C24  1  0.77455200  0.60524800  0.49047900  1
  C  C25  1  0.83486100  0.54830400  0.52072800  1
  C  C26  1  0.94870600  0.53163100  0.48897000  1
  C  C27  1  0.00089200  0.57168200  0.42730200  1
  C  C28  1  0.78232900  0.50771700  0.58207700  1
  C  C29  1  0.84362900  0.45111800  0.61133900  1
  C  C30  1  0.95800900  0.43492800  0.58002800  1
  C  C31  1  0.01012900  0.47530100  0.51887900  1
  C  C32  1  0.12398200  0.45911800  0.48789700  1
  C  C33  1  0.17653400  0.49953000  0.42626900  1
  C  C34  1  0.11521700  0.55545800  0.39588900  1
  C  C35  1  0.02064800  0.37850400  0.60916700  1
  C  C36  1  0.18449900  0.40305300  0.51947600  1
  C  C37  1  0.26492800  0.24273500  0.53507200  1
  C  C38  1  0.32086600  0.18431100  0.56578900  1
  C  C39  1  0.30958300  0.19045400  0.67629000  1
  C  C40  1  0.24223800  0.25567800  0.75302100  1
  C  C41  1  0.18588900  0.31266600  0.72096400  1
  C  C42  1  0.19575000  0.30619200  0.61201800  1
  C  C43  1  0.70770500  0.77012200  0.47470600  1
  C  C44  1  0.65791000  0.83057500  0.44372300  1
  C  C45  1  0.66132200  0.82130000  0.33290900  1
  C  C46  1  0.71391100  0.75098800  0.25723800  1
  C  C47  1  0.76595700  0.69238200  0.28918200  1
  C  C48  1  0.76429600  0.70197500  0.39780500  1
  N  N1  1  0.82681900  0.64378700  0.42957700  1
  N  N2  1  0.13241900  0.36367200  0.57928800  1
  O  O1  1  0.61973300  0.06060300  0.17748900  1
  O  O2  1  0.61298900  0.86596700  0.18616400  1
  O  O3  1  0.75698700  0.97604600  0.20225600  1
  O  O4  1  0.57039600  0.95284800  0.35504900  1
  O  O5  1  0.42739000  0.96178100  0.18548200  1
  O  O6  1  0.27724600  0.04881900  0.29687200  1
  O  O7  1  0.44329100  0.12514700  0.39081000  1
  O  O8  1  0.37340600  0.04635000  0.48106900  1
  O  O9  1  0.54301500  0.90338100  0.61938400  1
  O  O10  1  0.65101800  0.96577200  0.52933300  1
  O  O11  1  0.63216400  0.05374100  0.79149900  1
  O  O12  1  0.72808700  0.93055800  0.71379500  1
  O  O13  1  0.32495100  0.91392200  0.73644900  1
  O  O14  1  0.45962000  0.08403700  0.65641600  1
  O  O15  1  0.41074700  0.99117100  0.85282700  1
  O  O16  1  0.32631600  0.12437200  0.81070100  1
  O  O17  1  0.98881500  0.66816100  0.33917600  1
  O  O18  1  0.66337700  0.62138700  0.51995600  1
  O  O19  1  0.96982400  0.33708700  0.66565900  1
  O  O20  1  0.29580200  0.38898100  0.49273700  1
  F  F1  1  0.23192700  0.26573700  0.86132600  1
  F  F2  1  0.12286900  0.95710200  0.77556600  1
