# generated using pymatgen
data_Fe2H18C39(NO4)4
_symmetry_space_group_name_H-M   'P 1'
_cell_length_a   9.40771200
_cell_length_b   16.78315900
_cell_length_c   15.24982900
_cell_angle_alpha   110.35813400
_cell_angle_beta   94.22960900
_cell_angle_gamma   78.42855000
_symmetry_Int_Tables_number   1
_chemical_formula_structural   Fe2H18C39(NO4)4
_chemical_formula_sum   'Fe2 H18 C39 N4 O16'
_cell_volume   2211.51028662
_cell_formula_units_Z   1
loop_
 _symmetry_equiv_pos_site_id
 _symmetry_equiv_pos_as_xyz
  1  'x, y, z'
loop_
 _atom_site_type_symbol
 _atom_site_label
 _atom_site_symmetry_multiplicity
 _atom_site_fract_x
 _atom_site_fract_y
 _atom_site_fract_z
 _atom_site_occupancy
  Fe  Fe1  1  0.47670600  0.98193300  0.32288800  1
  Fe  Fe2  1  0.56072600  0.01749400  0.66040700  1
  H  H1  1  0.01542600  0.98556800  0.29308500  1
  H  H2  1  0.69693400  0.00085000  0.08318900  1
  H  H3  1  0.01906700  0.02649500  0.69427600  1
  H  H4  1  0.33691400  0.00933200  0.90397500  1
  H  H5  1  0.27233300  0.99654200  0.04122100  1
  H  H6  1  0.76129100  0.01392000  0.94522400  1
  H  H7  1  0.19640700  0.27410700  0.42042500  1
  H  H8  1  0.23728200  0.45908800  0.69244300  1
  H  H9  1  0.38197000  0.34616500  0.74248400  1
  H  H10  1  0.80649000  0.54002300  0.30383400  1
  H  H11  1  0.85570100  0.73254000  0.56536200  1
  H  H12  1  0.65656600  0.68036400  0.17548300  1
  H  H13  1  0.63972500  0.50623400  0.18821600  1
  H  H14  1  0.79770300  0.53366000  0.14999600  1
  H  H15  1  0.62971800  0.53861500  0.08709200  1
  H  H16  1  0.44040900  0.62814700  0.27724600  1
  H  H17  1  0.41393700  0.63468200  0.16120000  1
  H  H18  1  0.42216900  0.73081400  0.25996900  1
  C  C1  1  0.09160600  0.99513000  0.16984800  1
  C  C2  1  0.98629500  0.98924500  0.22455700  1
  C  C3  1  0.84426100  0.99162500  0.19428100  1
  C  C4  1  0.80798000  0.99863100  0.10755500  1
  C  C5  1  0.91319200  0.00260700  0.05127000  1
  C  C6  1  0.05550000  0.00051700  0.08164800  1
  C  C7  1  0.87448200  0.00869700  0.96431200  1
  C  C8  1  0.97811100  0.01058800  0.90521900  1
  C  C9  1  0.12036100  0.00829400  0.93564500  1
  C  C10  1  0.15909100  0.00198300  0.02239100  1
  C  C11  1  0.94231500  0.01630600  0.81705600  1
  C  C12  1  0.04773200  0.02300300  0.76292900  1
  C  C13  1  0.18990400  0.01984300  0.79324400  1
  C  C14  1  0.22588700  0.01196000  0.87953100  1
  C  C15  1  0.73295200  0.98848500  0.25494700  1
  C  C16  1  0.61778700  0.82732100  0.33649300  1
  C  C17  1  0.23743400  0.99891700  0.20996200  1
  C  C18  1  0.34717200  0.13914200  0.44923900  1
  C  C19  1  0.70053600  0.86483800  0.53140500  1
  C  C20  1  0.79790300  0.00937000  0.77552900  1
  C  C21  1  0.44911100  0.17730500  0.64708200  1
  C  C22  1  0.30225500  0.02214600  0.73286300  1
  C  C23  1  0.32368300  0.22654800  0.51824000  1
  C  C24  1  0.23785400  0.29097500  0.49120400  1
  C  C25  1  0.20562500  0.37488000  0.55273500  1
  C  C26  1  0.26067500  0.39409100  0.64261100  1
  C  C27  1  0.34363000  0.32963400  0.67098500  1
  C  C28  1  0.37529300  0.24521300  0.60989100  1
  C  C29  1  0.93856400  0.56299400  0.46686500  1
  C  C30  1  0.11189200  0.44196000  0.52261800  1
  C  C31  1  0.78615100  0.60731000  0.34632400  1
  C  C32  1  0.70336400  0.66979500  0.31321400  1
  C  C33  1  0.68077800  0.75647600  0.37231800  1
  C  C34  1  0.73046000  0.77669900  0.46437300  1
  C  C35  1  0.81458700  0.71400700  0.49448600  1
  C  C36  1  0.84524500  0.62947000  0.43532400  1
  C  C37  1  0.63007300  0.64385400  0.21782400  1
  C  C38  1  0.67800200  0.54941800  0.15791300  1
  C  C39  1  0.46653000  0.66070800  0.23007200  1
  N  N1  1  0.07920800  0.52400800  0.58181900  1
  N  N2  1  0.99376700  0.58381100  0.55421700  1
  N  N3  1  0.97148300  0.48096900  0.40785400  1
  N  N4  1  0.05682400  0.42127000  0.43537600  1
  O  O1  1  0.59960300  0.98430800  0.22429900  1
  O  O2  1  0.65942100  0.82526300  0.25549000  1
  O  O3  1  0.76625600  0.98954600  0.34039700  1
  O  O4  1  0.53060800  0.89668800  0.38814600  1
  O  O5  1  0.28926600  0.95151900  0.26186100  1
  O  O6  1  0.30574000  0.05895300  0.20723500  1
  O  O7  1  0.47865400  0.09916300  0.41911200  1
  O  O8  1  0.23484000  0.10429900  0.41104100  1
  O  O9  1  0.56996400  0.89769000  0.56723200  1
  O  O10  1  0.80742600  0.90681500  0.56369800  1
  O  O11  1  0.74311200  0.05542900  0.72269300  1
  O  O12  1  0.73412300  0.94746700  0.77807600  1
  O  O13  1  0.26711800  0.03051000  0.65120500  1
  O  O14  1  0.49958100  0.09879200  0.59094400  1
  O  O15  1  0.43896600  0.01404900  0.75900800  1
  O  O16  1  0.45547700  0.19368800  0.73778700  1
