# generated using pymatgen
data_Fe2H23C50N3O17
_symmetry_space_group_name_H-M   'P 1'
_cell_length_a   17.72414800
_cell_length_b   9.41785100
_cell_length_c   17.03254800
_cell_angle_alpha   89.20885200
_cell_angle_beta   78.37024400
_cell_angle_gamma   106.81529800
_symmetry_Int_Tables_number   1
_chemical_formula_structural   Fe2H23C50N3O17
_chemical_formula_sum   'Fe2 H23 C50 N3 O17'
_cell_volume   2657.79420873
_cell_formula_units_Z   1
loop_
 _symmetry_equiv_pos_site_id
 _symmetry_equiv_pos_as_xyz
  1  'x, y, z'
loop_
 _atom_site_type_symbol
 _atom_site_label
 _atom_site_symmetry_multiplicity
 _atom_site_fract_x
 _atom_site_fract_y
 _atom_site_fract_z
 _atom_site_occupancy
  Fe  Fe1  1  0.51058400  0.02109100  0.14691300  1
  Fe  Fe2  1  0.49871000  0.98107600  0.85428700  1
  H  H1  1  0.24478900  0.08016300  0.19591100  1
  H  H2  1  0.11470500  0.10891100  0.23074700  1
  H  H3  1  0.22535400  0.83917900  0.88402300  1
  H  H4  1  0.99086600  0.10560700  0.19978000  1
  H  H5  1  0.10460100  0.83484400  0.84856800  1
  H  H6  1  0.89585300  0.13995900  0.16076900  1
  H  H7  1  0.02561800  0.91553800  0.80081200  1
  H  H8  1  0.77639300  0.13296400  0.12441300  1
  H  H9  1  0.90586500  0.91814500  0.76549500  1
  H  H10  1  0.50059100  0.24490600  0.63010800  1
  H  H11  1  0.50576000  0.69921600  0.59426000  1
  H  H12  1  0.49693800  0.74987600  0.37256100  1
  H  H13  1  0.49214300  0.29565300  0.40863000  1
  H  H14  1  0.49516600  0.52072300  0.82682200  1
  H  H15  1  0.50491300  0.47470900  0.17570900  1
  H  H16  1  0.79335100  0.16512600  0.74236800  1
  H  H17  1  0.69132200  0.04583700  0.74724500  1
  H  H18  1  0.84168000  0.03399700  0.62600600  1
  H  H19  1  0.76358000  0.10812800  0.60790500  1
  H  H20  1  0.81685600  0.79101200  0.65450900  1
  H  H21  1  0.71777200  0.66411900  0.66220200  1
  H  H22  1  0.74999800  0.71238800  0.79695300  1
  H  H23  1  0.66460600  0.77137800  0.78267800  1
  C  C1  1  0.23407000  0.04489800  0.13796600  1
  C  C2  1  0.10436000  0.07775800  0.17209200  1
  C  C3  1  0.29466500  0.01353000  0.08369600  1
  C  C4  1  0.28288800  0.97435500  0.00769600  1
  C  C5  1  0.16216400  0.03979800  0.11774100  1
  C  C6  1  0.14787500  0.99622000  0.04408300  1
  C  C7  1  0.20673500  0.95586000  0.99071800  1
  C  C8  1  0.18732400  0.89327200  0.92194900  1
  C  C9  1  0.03294500  0.07733600  0.15265400  1
  C  C10  1  0.01795800  0.04006200  0.07712300  1
  C  C11  1  0.07546800  0.99533600  0.02355200  1
  C  C12  1  0.06128700  0.95045100  0.94938400  1
  C  C13  1  0.11592500  0.89044200  0.90160600  1
  C  C14  1  0.88850800  0.09285100  0.10480600  1
  C  C15  1  0.94633400  0.04290700  0.05493200  1
  C  C16  1  0.93321400  0.00138500  0.97970800  1
  C  C17  1  0.99162500  0.96000100  0.92592800  1
  C  C18  1  0.98035500  0.93441200  0.84834900  1
  C  C19  1  0.81701200  0.08721800  0.08412100  1
  C  C20  1  0.80072100  0.03362800  0.01251300  1
  C  C21  1  0.86130400  0.00136500  0.95800000  1
  C  C22  1  0.84971700  0.96869300  0.88179000  1
  C  C23  1  0.72541800  0.01567700  0.99450900  1
  C  C24  1  0.71504200  0.98825300  0.91683800  1
  C  C25  1  0.91073300  0.93929300  0.82668500  1
  C  C26  1  0.77854200  0.96855200  0.85957800  1
  C  C27  1  0.65518600  0.00755400  0.05977500  1
  C  C28  1  0.49996100  0.74751500  0.21261200  1
  C  C29  1  0.37296500  0.04370200  0.10557000  1
  C  C30  1  0.49802600  0.23029300  0.25875900  1
  C  C31  1  0.50347000  0.76669600  0.74351600  1
  C  C32  1  0.63460300  0.95828900  0.89925200  1
  C  C33  1  0.49944600  0.24763500  0.78960100  1
  C  C34  1  0.35252500  0.97750200  0.94219800  1
  C  C35  1  0.49861600  0.36898400  0.73469300  1
  C  C36  1  0.50030800  0.35057000  0.65391700  1
  C  C37  1  0.50121300  0.46679800  0.60262800  1
  C  C38  1  0.50300900  0.60401900  0.63210500  1
  C  C39  1  0.49965300  0.62148200  0.71272100  1
  C  C40  1  0.49624200  0.50403900  0.76403600  1
  C  C41  1  0.49743500  0.64425200  0.34881400  1
  C  C42  1  0.49974000  0.62588800  0.26791600  1
  C  C43  1  0.50268900  0.49114800  0.23868000  1
  C  C44  1  0.49932800  0.37401800  0.29010000  1
  C  C45  1  0.49482300  0.39090000  0.37085600  1
  C  C46  1  0.49608700  0.52792800  0.40032700  1
  C  C47  1  0.75588400  0.05299900  0.73237600  1
  C  C48  1  0.77653100  0.02356100  0.64470500  1
  C  C49  1  0.75147800  0.77759500  0.67447700  1
  C  C50  1  0.73060300  0.79328100  0.76405700  1
  N  N1  1  0.50065100  0.44261700  0.52087000  1
  N  N2  1  0.49640100  0.55212600  0.48212500  1
  N  N3  1  0.77212100  0.94181800  0.77908600  1
  O  O1  1  0.59414900  0.04972300  0.04676000  1
  O  O2  1  0.50073300  0.72589700  0.13653100  1
  O  O3  1  0.65109800  0.94868900  0.13132300  1
  O  O4  1  0.50220100  0.87969100  0.23770300  1
  O  O5  1  0.40340900  0.93527700  0.11729400  1
  O  O6  1  0.40983700  0.17957600  0.12021400  1
  O  O7  1  0.53897400  0.22584500  0.18602500  1
  O  O8  1  0.45136600  0.10725200  0.30062100  1
  O  O9  1  0.46767200  0.77423600  0.81800600  1
  O  O10  1  0.54748200  0.88826000  0.69877200  1
  O  O11  1  0.60829300  0.06760600  0.87876300  1
  O  O12  1  0.58554400  0.82200600  0.91123100  1
  O  O13  1  0.35245200  0.01850100  0.86829800  1
  O  O14  1  0.50387200  0.11912700  0.76323000  1
  O  O15  1  0.41870500  0.95695700  0.95685000  1
  O  O16  1  0.49512700  0.26692400  0.86636000  1
  O  O17  1  0.72910500  0.88188100  0.63197000  1
