# generated using pymatgen
data_Zn2H42C43(NO4)2
_symmetry_space_group_name_H-M   'P 1'
_cell_length_a   11.88628300
_cell_length_b   13.09079400
_cell_length_c   15.97574300
_cell_angle_alpha   89.99049800
_cell_angle_beta   85.83271100
_cell_angle_gamma   91.19098000
_symmetry_Int_Tables_number   1
_chemical_formula_structural   Zn2H42C43(NO4)2
_chemical_formula_sum   'Zn2 H42 C43 N2 O8'
_cell_volume   2478.72835740
_cell_formula_units_Z   1
loop_
 _symmetry_equiv_pos_site_id
 _symmetry_equiv_pos_as_xyz
  1  'x, y, z'
loop_
 _atom_site_type_symbol
 _atom_site_label
 _atom_site_symmetry_multiplicity
 _atom_site_fract_x
 _atom_site_fract_y
 _atom_site_fract_z
 _atom_site_occupancy
  Zn  Zn1  1  0.36770000  0.50394900  0.50133900  1
  Zn  Zn2  1  0.62338400  0.48745000  0.48733500  1
  H  H1  1  0.39689800  0.63367800  0.06083200  1
  H  H2  1  0.36865100  0.62267300  0.92553900  1
  H  H3  1  0.67588800  0.53387800  0.91928300  1
  H  H4  1  0.59032700  0.63963100  0.06872900  1
  H  H5  1  0.67212500  0.52636600  0.05797300  1
  H  H6  1  0.43493500  0.34947700  0.92363000  1
  H  H7  1  0.58618400  0.36426100  0.91683900  1
  H  H8  1  0.43821000  0.34053900  0.06617800  1
  H  H9  1  0.31730300  0.49464400  0.92950500  1
  H  H10  1  0.58692300  0.36258400  0.05662600  1
  H  H11  1  0.64139400  0.16445900  0.48617100  1
  H  H12  1  0.28377000  0.18039300  0.50728300  1
  H  H13  1  0.26835300  0.99525800  0.50773600  1
  H  H14  1  0.70596100  0.80337200  0.48139100  1
  H  H15  1  0.35077900  0.83358200  0.50245300  1
  H  H16  1  0.17907900  0.40179900  0.41862100  1
  H  H17  1  0.20056900  0.62909200  0.60298800  1
  H  H18  1  0.99649200  0.34742500  0.37401500  1
  H  H19  1  0.99459500  0.64399600  0.61463200  1
  H  H20  1  0.79051100  0.36229800  0.38569100  1
  H  H21  1  0.81200900  0.58961200  0.57004100  1
  H  H22  1  0.17546700  0.35478400  0.18277100  1
  H  H23  1  0.07154600  0.44743400  0.15770700  1
  H  H24  1  0.07469900  0.32406100  0.10679000  1
  H  H25  1  0.15678500  0.45312700  0.01043900  1
  H  H26  1  0.26437200  0.36780400  0.03936800  1
  H  H27  1  0.28148600  0.51139600  0.16204800  1
  H  H28  1  0.21557200  0.58770800  0.08981800  1
  H  H29  1  0.97845400  0.04531700  0.40919200  1
  H  H30  1  0.97962300  0.04468800  0.52256900  1
  H  H31  1  0.04484900  0.94275600  0.46156300  1
  H  H32  1  0.86114100  0.88726300  0.52952700  1
  H  H33  1  0.86005600  0.88776000  0.41530500  1
  H  H34  1  0.77299100  0.05750800  0.42146900  1
  H  H35  1  0.77403500  0.05700300  0.53468300  1
  H  H36  1  0.63302800  0.86595500  0.84541200  1
  H  H37  1  0.77187600  0.81088700  0.84508600  1
  H  H38  1  0.70486500  0.82466000  0.74799900  1
  H  H39  1  0.69648100  0.64499000  0.80255100  1
  H  H40  1  0.55912000  0.70023200  0.79180700  1
  H  H41  1  0.52345500  0.72268200  0.93874300  1
  H  H42  1  0.67014400  0.71998800  0.95504200  1
  C  C1  1  0.51586900  0.69541800  0.49257600  1
  C  C2  1  0.49562100  0.49660600  0.65797300  1
  C  C3  1  0.47545200  0.29599000  0.49608100  1
  C  C4  1  0.49545300  0.49491600  0.33070300  1
  C  C5  1  0.38416300  0.54592600  0.95089700  1
  C  C6  1  0.59680200  0.56956000  0.94469200  1
  C  C7  1  0.59387000  0.56258900  0.03998600  1
  C  C8  1  0.49492400  0.49572200  0.24091400  1
  C  C9  1  0.49657200  0.50622100  0.91475100  1
  C  C10  1  0.38534800  0.55154700  0.04613000  1
  C  C11  1  0.49182400  0.49987500  0.07398000  1
  C  C12  1  0.50537000  0.39288800  0.03919900  1
  C  C13  1  0.50632600  0.39654700  0.94444300  1
  C  C14  1  0.49349400  0.49716900  0.16555400  1
  C  C15  1  0.49691400  0.50302900  0.82311100  1
  C  C16  1  0.49621900  0.49945600  0.74773200  1
  C  C17  1  0.46488900  0.18393300  0.49665200  1
  C  C18  1  0.52824400  0.80740100  0.49188000  1
  C  C19  1  0.64869300  0.95854100  0.48516600  1
  C  C20  1  0.63459600  0.85271700  0.48571600  1
  C  C21  1  0.43448100  0.86784100  0.49755900  1
  C  C22  1  0.44659100  0.97281300  0.49714400  1
  C  C23  1  0.55271900  0.01900500  0.49102100  1
  C  C24  1  0.56070300  0.12528300  0.49086100  1
  C  C25  1  0.35992800  0.13646100  0.50271000  1
  C  C26  1  0.35113300  0.03147900  0.50295600  1
  C  C27  1  0.95711800  0.40131600  0.41762600  1
  C  C28  1  0.84133800  0.40976300  0.42420700  1
  C  C29  1  0.85345700  0.53637300  0.52691400  1
  C  C30  1  0.96944000  0.52960500  0.52176500  1
  C  C31  1  0.02164500  0.46179400  0.46690300  1
  C  C32  1  0.13762800  0.45502800  0.46175500  1
  C  C33  1  0.14974500  0.58162800  0.56446900  1
  C  C34  1  0.03396700  0.59008700  0.57103800  1
  C  C35  1  0.27167900  0.52159200  0.09429600  1
  C  C36  1  0.20764400  0.42894600  0.06220200  1
  C  C37  1  0.12717700  0.38618200  0.13211700  1
  C  C38  1  0.76491900  0.00868800  0.47844000  1
  C  C39  1  0.86321900  0.93566900  0.47240000  1
  C  C40  1  0.97359900  0.99631300  0.46602500  1
  C  C41  1  0.60290800  0.68338100  0.92006200  1
  C  C42  1  0.63565400  0.70255200  0.82742700  1
  C  C43  1  0.68992600  0.80794700  0.81599900  1
  N  N1  1  0.19964000  0.51470300  0.51031900  1
  N  N2  1  0.79144500  0.47669800  0.47835200  1
  O  O1  1  0.41397400  0.65389000  0.49836600  1
  O  O2  1  0.60773700  0.64121000  0.48759800  1
  O  O3  1  0.39847800  0.50267400  0.62447600  1
  O  O4  1  0.59250500  0.49012400  0.61370600  1
  O  O5  1  0.38330200  0.35005400  0.50107500  1
  O  O6  1  0.57709000  0.33765000  0.49031300  1
  O  O7  1  0.39859800  0.50141100  0.37497800  1
  O  O8  1  0.59262300  0.48885400  0.36418700  1
