# generated using pymatgen
data_FeH6C20N2O8F
_symmetry_space_group_name_H-M   'P 1'
_cell_length_a   14.35366800
_cell_length_b   9.40142100
_cell_length_c   19.79271900
_cell_angle_alpha   85.74413000
_cell_angle_beta   90.43385500
_cell_angle_gamma   110.18339700
_symmetry_Int_Tables_number   1
_chemical_formula_structural   FeH6C20N2O8F
_chemical_formula_sum   'Fe2 H12 C40 N4 O16 F2'
_cell_volume   2499.53598827
_cell_formula_units_Z   2
loop_
 _symmetry_equiv_pos_site_id
 _symmetry_equiv_pos_as_xyz
  1  'x, y, z'
loop_
 _atom_site_type_symbol
 _atom_site_label
 _atom_site_symmetry_multiplicity
 _atom_site_fract_x
 _atom_site_fract_y
 _atom_site_fract_z
 _atom_site_occupancy
  Fe  Fe1  1  0.48931100  0.98272000  0.09721500  1
  Fe  Fe2  1  0.50317400  0.99987700  0.81081500  1
  H  H1  1  0.12754200  0.85209000  0.83494900  1
  H  H2  1  0.99261900  0.86632000  0.90032000  1
  H  H3  1  0.98531200  0.10307800  0.88876300  1
  H  H4  1  0.25311200  0.03286200  0.10790700  1
  H  H5  1  0.11726700  0.04848900  0.17145700  1
  H  H6  1  0.95401700  0.04393500  0.18055900  1
  H  H7  1  0.79898900  0.02947100  0.13258200  1
  H  H8  1  0.48875300  0.53412400  0.78714500  1
  H  H9  1  0.48592600  0.27598000  0.61848800  1
  H  H10  1  0.49386600  0.73540800  0.58759600  1
  H  H11  1  0.46138500  0.42411500  0.12061500  1
  H  H12  1  0.46204300  0.68043700  0.28956600  1
  C  C1  1  0.23639100  0.93068000  0.91106200  1
  C  C2  1  0.14243100  0.89330800  0.88483900  1
  C  C3  1  0.06567300  0.90858000  0.92138600  1
  C  C4  1  0.91954300  0.06487400  0.92081000  1
  C  C5  1  0.24965400  0.96819800  0.97784300  1
  C  C6  1  0.17257600  0.98733200  0.01406300  1
  C  C7  1  0.08229700  0.97142400  0.98355900  1
  C  C8  1  0.00820300  0.00412400  0.01890400  1
  C  C9  1  0.83238400  0.06822500  0.89221200  1
  C  C10  1  0.74665000  0.02677500  0.93108300  1
  C  C11  1  0.92273600  0.02049400  0.98908200  1
  C  C12  1  0.84198100  0.01011700  0.02986800  1
  C  C13  1  0.75159500  0.00144900  0.00070000  1
  C  C14  1  0.18529100  0.02077800  0.08123300  1
  C  C15  1  0.10781500  0.03036200  0.11817000  1
  C  C16  1  0.01984100  0.02064100  0.08768100  1
  C  C17  1  0.94418500  0.03033100  0.12693100  1
  C  C18  1  0.85448600  0.01828100  0.09912400  1
  C  C19  1  0.66182700  0.96745200  0.04309700  1
  C  C20  1  0.45954400  0.69373800  0.15278300  1
  C  C21  1  0.34552800  0.99589900  0.00999400  1
  C  C22  1  0.45933900  0.17230500  0.18949800  1
  C  C23  1  0.49929300  0.79156400  0.71699700  1
  C  C24  1  0.65082700  0.99943400  0.89791900  1
  C  C25  1  0.49117200  0.26418300  0.75458300  1
  C  C26  1  0.31894700  0.93371300  0.86632900  1
  C  C27  1  0.48844700  0.39135600  0.70764300  1
  C  C28  1  0.48741100  0.38075400  0.63826300  1
  C  C29  1  0.48713500  0.50313600  0.59461900  1
  C  C30  1  0.49178900  0.63769200  0.62072300  1
  C  C31  1  0.49084400  0.64749300  0.68975300  1
  C  C32  1  0.48727200  0.52378200  0.73312100  1
  C  C33  1  0.46562200  0.46561200  0.38719600  1
  C  C34  1  0.48090600  0.49055800  0.52112900  1
  C  C35  1  0.45580400  0.31810600  0.28677600  1
  C  C36  1  0.45810500  0.31047100  0.21774300  1
  C  C37  1  0.46028300  0.43340800  0.17465400  1
  C  C38  1  0.45907100  0.56538800  0.20017500  1
  C  C39  1  0.46038100  0.57566500  0.26970200  1
  C  C40  1  0.45964300  0.45244300  0.31344900  1
  N  N1  1  0.47964500  0.60927800  0.47911900  1
  N  N2  1  0.47230700  0.59714700  0.41297800  1
  N  N3  1  0.46680600  0.34718600  0.42935900  1
  N  N4  1  0.47415400  0.35917800  0.49541300  1
  O  O1  1  0.59775700  0.03617100  0.02852600  1
  O  O2  1  0.45039400  0.67560900  0.08765900  1
  O  O3  1  0.64554500  0.86831700  0.09570900  1
  O  O4  1  0.47661600  0.82942100  0.17409900  1
  O  O5  1  0.36177800  0.88806400  0.04915300  1
  O  O6  1  0.40964600  0.13500900  0.00815200  1
  O  O7  1  0.51635000  0.18343300  0.13648400  1
  O  O8  1  0.40007400  0.03887100  0.21453900  1
  O  O9  1  0.45898600  0.79182600  0.77631100  1
  O  O10  1  0.55373400  0.91980700  0.68454000  1
  O  O11  1  0.64086500  0.08943500  0.84642300  1
  O  O12  1  0.57558200  0.87626400  0.91655000  1
  O  O13  1  0.30356100  0.91989800  0.80131700  1
  O  O14  1  0.50730600  0.14601000  0.73254200  1
  O  O15  1  0.40992600  0.96641600  0.88839500  1
  O  O16  1  0.47921500  0.26940400  0.81989800  1
  F  F1  1  0.45496000  0.19481500  0.32721300  1
  F  F2  1  0.83013700  0.10171500  0.82457000  1
