# generated using pymatgen
data_Zn3H32(C23O6)2
_symmetry_space_group_name_H-M   'P 1'
_cell_length_a   30.37704000
_cell_length_b   30.37764600
_cell_length_c   23.82435300
_cell_angle_alpha   90.00000000
_cell_angle_beta   90.00000000
_cell_angle_gamma   90.00000000
_symmetry_Int_Tables_number   1
_chemical_formula_structural   Zn3H32(C23O6)2
_chemical_formula_sum   'Zn12 H128 C184 O48'
_cell_volume   21984.70716363
_cell_formula_units_Z   4
loop_
 _symmetry_equiv_pos_site_id
 _symmetry_equiv_pos_as_xyz
  1  'x, y, z'
loop_
 _atom_site_type_symbol
 _atom_site_label
 _atom_site_symmetry_multiplicity
 _atom_site_fract_x
 _atom_site_fract_y
 _atom_site_fract_z
 _atom_site_occupancy
  Zn  Zn1  1  0.49960500  0.04947900  0.49984900  1
  Zn  Zn2  1  0.95057800  0.49851600  0.49888100  1
  Zn  Zn3  1  0.49979700  0.94963100  0.50007800  1
  Zn  Zn4  1  0.05036700  0.49800100  0.50133500  1
  Zn  Zn5  1  0.99783000  0.55045300  0.99904900  1
  Zn  Zn6  1  0.44958500  0.99960400  0.99982600  1
  Zn  Zn7  1  0.99859000  0.45065600  0.00153300  1
  Zn  Zn8  1  0.54942900  0.99978200  0.99995500  1
  Zn  Zn9  1  0.99961000  0.99808400  0.56649300  1
  Zn  Zn10  1  0.99992100  0.99826800  0.43942700  1
  Zn  Zn11  1  0.49806500  0.49966100  0.06050500  1
  Zn  Zn12  1  0.49829100  0.49973500  0.93343000  1
  H  H1  1  0.71996600  0.97014500  0.41936500  1
  H  H2  1  0.02880300  0.71833400  0.42058900  1
  H  H3  1  0.27888200  0.02826900  0.42149600  1
  H  H4  1  0.96824300  0.27675100  0.42239900  1
  H  H5  1  0.71971100  0.02906000  0.58174000  1
  H  H6  1  0.03026100  0.27902600  0.58266700  1
  H  H7  1  0.28038100  0.96904000  0.58368700  1
  H  H8  1  0.97157800  0.71833200  0.58395500  1
  H  H9  1  0.21765600  0.47163600  0.91545100  1
  H  H10  1  0.52647800  0.21917300  0.91613500  1
  H  H11  1  0.77889600  0.52799300  0.91822000  1
  H  H12  1  0.46898400  0.78016300  0.91833600  1
  H  H13  1  0.21890700  0.53130100  0.07739000  1
  H  H14  1  0.53073400  0.77905600  0.07900400  1
  H  H15  1  0.77679500  0.46805000  0.07976100  1
  H  H16  1  0.46997400  0.22046700  0.07988200  1
  H  H17  1  0.77968800  0.98309800  0.58842700  1
  H  H18  1  0.01756100  0.77870100  0.58910900  1
  H  H19  1  0.21997400  0.01502900  0.59057900  1
  H  H20  1  0.98459100  0.21837400  0.59111700  1
  H  H21  1  0.78048000  0.01534200  0.41347200  1
  H  H22  1  0.01479600  0.21737300  0.41561500  1
  H  H23  1  0.21903600  0.98158400  0.41604400  1
  H  H24  1  0.98239400  0.77825500  0.41510400  1
  H  H25  1  0.27858600  0.48500100  0.08364600  1
  H  H26  1  0.51608900  0.28063500  0.08411000  1
  H  H27  1  0.71777500  0.51543000  0.08572800  1
  H  H28  1  0.48432000  0.71936200  0.08618200  1
  H  H29  1  0.27841700  0.51666300  0.90852100  1
  H  H30  1  0.51412900  0.71946100  0.91054500  1
  H  H31  1  0.71803800  0.48206100  0.91118500  1
  H  H32  1  0.48033700  0.27934300  0.91030200  1
  H  H33  1  0.85926400  0.98379200  0.58907200  1
  H  H34  1  0.01625400  0.85823100  0.58910400  1
  H  H35  1  0.14039300  0.01366100  0.59160200  1
  H  H36  1  0.98596600  0.13875500  0.59205000  1
  H  H37  1  0.85994600  0.01355700  0.41363200  1
  H  H38  1  0.01381500  0.13791900  0.41607500  1
  H  H39  1  0.13954700  0.98240800  0.41653400  1
  H  H40  1  0.98336500  0.85778400  0.41453500  1
  H  H41  1  0.35810100  0.48562000  0.08360100  1
  H  H42  1  0.51485200  0.36011100  0.08348500  1
  H  H43  1  0.63830900  0.51487900  0.08574200  1
  H  H44  1  0.48486400  0.63986800  0.08617000  1
  H  H45  1  0.35794700  0.51483100  0.90800100  1
  H  H46  1  0.51230900  0.63990600  0.91009200  1
  H  H47  1  0.63841500  0.48368900  0.91064600  1
  H  H48  1  0.48139600  0.35892100  0.90910400  1
  H  H49  1  0.59893000  0.96868800  0.40321300  1
  H  H50  1  0.64646100  0.93537100  0.39145700  1
  H  H51  1  0.63877700  0.03403300  0.35656600  1
  H  H52  1  0.67798800  0.95027000  0.30544600  1
  H  H53  1  0.67744900  0.00723000  0.27550100  1
  H  H54  1  0.03309400  0.59734400  0.40622500  1
  H  H55  1  0.06406600  0.64600500  0.39234100  1
  H  H56  1  0.96520900  0.63365300  0.36066000  1
  H  H57  1  0.04620900  0.67584700  0.30626600  1
  H  H58  1  0.98880600  0.67240600  0.27805300  1
  H  H59  1  0.39986700  0.03259000  0.40556100  1
  H  H60  1  0.35124700  0.06410700  0.39331400  1
  H  H61  1  0.36269400  0.96579600  0.35848700  1
  H  H62  1  0.32043100  0.04801100  0.30723400  1
  H  H63  1  0.32324700  0.99112700  0.27725800  1
  H  H64  1  0.94519600  0.39005300  0.41185200  1
  H  H65  1  0.94913100  0.33839800  0.37664900  1
  H  H66  1  0.03929700  0.37429400  0.38618000  1
  H  H67  1  0.96760200  0.39685600  0.30088000  1
  H  H68  1  0.02867200  0.40426000  0.29363600  1
  H  H69  1  0.59863100  0.03292500  0.59594200  1
  H  H70  1  0.64684200  0.06492700  0.60886700  1
  H  H71  1  0.63623500  0.96630800  0.64269500  1
  H  H72  1  0.67704200  0.04874000  0.69527800  1
  H  H73  1  0.67468500  0.99165400  0.72468700  1
  H  H74  1  0.03539100  0.40030700  0.59380000  1
  H  H75  1  0.06710100  0.35195200  0.60704600  1
  H  H76  1  0.96931600  0.36436800  0.64372800  1
  H  H77  1  0.05223000  0.32326800  0.69468800  1
  H  H78  1  0.99578600  0.32687300  0.72586300  1
  H  H79  1  0.40160200  0.96461200  0.59592100  1
  H  H80  1  0.35313400  0.93330400  0.60982200  1
  H  H81  1  0.36560800  0.03165500  0.64389200  1
  H  H82  1  0.32417800  0.94968700  0.69686300  1
  H  H83  1  0.32777800  0.00663200  0.72651400  1
  H  H84  1  0.96846100  0.59715700  0.59861100  1
  H  H85  1  0.93618900  0.64519300  0.61161100  1
  H  H86  1  0.03497800  0.63532400  0.64500500  1
  H  H87  1  0.95238800  0.67554200  0.69792600  1
  H  H88  1  0.00957900  0.67365500  0.72706100  1
  H  H89  1  0.09641600  0.46939300  0.90169300  1
  H  H90  1  0.14406400  0.43641900  0.88919700  1
  H  H91  1  0.13506500  0.53480800  0.85356900  1
  H  H92  1  0.17438800  0.45110600  0.80242600  1
  H  H93  1  0.17294200  0.50788100  0.77196300  1
  H  H94  1  0.53017000  0.09799700  0.90312200  1
  H  H95  1  0.56175800  0.14622500  0.88883500  1
  H  H96  1  0.46272400  0.13496900  0.85739500  1
  H  H97  1  0.54423800  0.17570600  0.80244700  1
  H  H98  1  0.48676100  0.17289300  0.77437000  1
  H  H99  1  0.90020600  0.53288200  0.90676200  1
  H  H100  1  0.85181400  0.56436500  0.89291100  1
  H  H101  1  0.86426900  0.46616300  0.85812600  1
  H  H102  1  0.82321000  0.54846500  0.80552800  1
  H  H103  1  0.82681100  0.49165300  0.77546000  1
  H  H104  1  0.46598400  0.90135000  0.90472500  1
  H  H105  1  0.43344200  0.85338700  0.89252700  1
  H  H106  1  0.53140900  0.86352000  0.85551800  1
  H  H107  1  0.44770100  0.82334100  0.80548000  1
  H  H108  1  0.50418300  0.82547400  0.77420100  1
  H  H109  1  0.09804100  0.53570500  0.09324000  1
  H  H110  1  0.14667400  0.56714300  0.10562000  1
  H  H111  1  0.13519100  0.46867900  0.13972600  1
  H  H112  1  0.17720200  0.55071400  0.19177500  1
  H  H113  1  0.17439600  0.49368500  0.22130400  1
  H  H114  1  0.53551600  0.90004400  0.09426200  1
  H  H115  1  0.56719100  0.85143900  0.10596600  1
  H  H116  1  0.46936300  0.86301200  0.14288800  1
  H  H117  1  0.55224600  0.82086900  0.19253000  1
  H  H118  1  0.49577000  0.82377700  0.22372500  1
  H  H119  1  0.89030000  0.44479500  0.09011600  1
  H  H120  1  0.83859400  0.44867100  0.12522900  1
  H  H121  1  0.87403200  0.53896600  0.11462100  1
  H  H122  1  0.89680500  0.46805900  0.20089900  1
  H  H123  1  0.90392600  0.52921400  0.20737400  1
  H  H124  1  0.46744100  0.09948000  0.09655800  1
  H  H125  1  0.43498700  0.14748400  0.10899900  1
  H  H126  1  0.53401000  0.13844500  0.14163400  1
  H  H127  1  0.45157000  0.17900600  0.19451000  1
  H  H128  1  0.50892900  0.17768000  0.22315300  1
  C  C1  1  0.58576600  0.00057800  0.49959600  1
  C  C2  1  0.99998800  0.58429700  0.50208700  1
  C  C3  1  0.41366000  0.99852900  0.50049500  1
  C  C4  1  0.00094000  0.41214100  0.49811900  1
  C  C5  1  0.08424100  0.50200000  0.99785500  1
  C  C6  1  0.49848100  0.08575300  0.99989500  1
  C  C7  1  0.91211500  0.49908400  0.00274200  1
  C  C8  1  0.50053200  0.91364600  0.99974700  1
  C  C9  1  0.49997000  0.00053900  0.60965500  1
  C  C10  1  0.99785700  0.49657600  0.60979400  1
  C  C11  1  0.49940500  0.99857400  0.39024500  1
  C  C12  1  0.00307000  0.50030900  0.39045400  1
  C  C13  1  0.00038300  0.50311900  0.10993600  1
  C  C14  1  0.49857300  0.99951500  0.10960300  1
  C  C15  1  0.99639900  0.49799700  0.89060100  1
  C  C16  1  0.50044300  0.99984700  0.89019000  1
  C  C17  1  0.50006500  0.00043100  0.66979300  1
  C  C18  1  0.99716900  0.49631100  0.66999700  1
  C  C19  1  0.49922200  0.99870000  0.33008100  1
  C  C20  1  0.00370700  0.50224600  0.33033600  1
  C  C21  1  0.00227400  0.50374600  0.17005600  1
  C  C22  1  0.49872300  0.99929700  0.16976700  1
  C  C23  1  0.99615900  0.49726600  0.83039900  1
  C  C24  1  0.50031200  0.00001100  0.83005200  1
  C  C25  1  0.50013700  0.00031400  0.72032400  1
  C  C26  1  0.99667400  0.49639400  0.72056700  1
  C  C27  1  0.49906000  0.99886400  0.27953400  1
  C  C28  1  0.00382000  0.50336000  0.27980200  1
  C  C29  1  0.00335300  0.50385000  0.22059100  1
  C  C30  1  0.49887200  0.99909500  0.22031300  1
  C  C31  1  0.99627000  0.49677200  0.77982800  1
  C  C32  1  0.50022400  0.00015500  0.77952100  1
  C  C33  1  0.70254400  0.98390500  0.45477000  1
  C  C34  1  0.01567900  0.70095100  0.45642000  1
  C  C35  1  0.29660100  0.01464500  0.45675100  1
  C  C36  1  0.98229900  0.29480100  0.45707500  1
  C  C37  1  0.70239100  0.01566100  0.54603000  1
  C  C38  1  0.01617600  0.29598900  0.54710200  1
  C  C39  1  0.29744000  0.98266300  0.54790500  1
  C  C40  1  0.98483700  0.70094300  0.54821100  1
  C  C41  1  0.20056100  0.48553500  0.95102800  1
  C  C42  1  0.51351700  0.20206900  0.95227900  1
  C  C43  1  0.79591300  0.51429900  0.95399300  1
  C  C44  1  0.48329200  0.79729100  0.95362400  1
  C  C45  1  0.20126400  0.51772500  0.04204700  1
  C  C46  1  0.51666500  0.79667700  0.04395500  1
  C  C47  1  0.79482300  0.48155600  0.04470900  1
  C  C48  1  0.48309100  0.20279800  0.04427700  1
  C  C49  1  0.65714700  0.98464200  0.45362600  1
  C  C50  1  0.01557800  0.65555800  0.45577400  1
  C  C51  1  0.34199700  0.01451300  0.45540400  1
  C  C52  1  0.98322000  0.34019500  0.45510200  1
  C  C53  1  0.65698100  0.01574600  0.54643800  1
  C  C54  1  0.01658200  0.34141800  0.54649200  1
  C  C55  1  0.34284900  0.98279600  0.54785800  1
  C  C56  1  0.98513100  0.65553400  0.54893900  1
  C  C57  1  0.15514800  0.48612500  0.95068100  1
  C  C58  1  0.51342500  0.15665900  0.95224400  1
  C  C59  1  0.84134700  0.51456400  0.95443300  1
  C  C60  1  0.48379900  0.84269700  0.95324900  1
  C  C61  1  0.15587400  0.51779000  0.04317900  1
  C  C62  1  0.51675800  0.84207800  0.04500100  1
  C  C63  1  0.84022400  0.48223900  0.04642900  1
  C  C64  1  0.48350100  0.15740200  0.04567800  1
  C  C65  1  0.63392100  0.00042000  0.49983200  1
  C  C66  1  0.00038100  0.63242400  0.50236800  1
  C  C67  1  0.36553600  0.99861100  0.50125000  1
  C  C68  1  0.00052200  0.36392300  0.49984500  1
  C  C69  1  0.13237900  0.50211000  0.99713700  1
  C  C70  1  0.49855400  0.13389700  0.99931800  1
  C  C71  1  0.86389900  0.49893100  0.00127300  1
  C  C72  1  0.50039000  0.86551200  0.99932100  1
  C  C73  1  0.72548800  0.99958700  0.50058000  1
  C  C74  1  0.00018300  0.72395100  0.50227000  1
  C  C75  1  0.27401800  0.99860200  0.50265000  1
  C  C76  1  0.99919200  0.27240000  0.50259600  1
  C  C77  1  0.22392700  0.50142400  0.99637200  1
  C  C78  1  0.49824100  0.22544200  0.99794100  1
  C  C79  1  0.77238300  0.49798500  0.99895300  1
  C  C80  1  0.49979100  0.77397100  0.99864200  1
  C  C81  1  0.79685600  0.99075600  0.54994200  1
  C  C82  1  0.00910500  0.79561400  0.55071000  1
  C  C83  1  0.20274000  0.00695000  0.55227900  1
  C  C84  1  0.99190200  0.20112900  0.55257500  1
  C  C85  1  0.79727700  0.00741000  0.45213200  1
  C  C86  1  0.00744700  0.20059100  0.45447100  1
  C  C87  1  0.20222300  0.98956400  0.45468000  1
  C  C88  1  0.99077600  0.79536600  0.45338600  1
  C  C89  1  0.29554000  0.49253600  0.04496900  1
  C  C90  1  0.50750200  0.29734900  0.04561700  1
  C  C91  1  0.70080300  0.50747700  0.04719900  1
  C  C92  1  0.49143000  0.70238300  0.04738900  1
  C  C93  1  0.29544000  0.50887100  0.94706800  1
  C  C94  1  0.50674900  0.70244000  0.94922600  1
  C  C95  1  0.70093400  0.49012700  0.94958700  1
  C  C96  1  0.48885000  0.29664100  0.94840000  1
  C  C97  1  0.84223900  0.99076800  0.55026000  1
  C  C98  1  0.00873500  0.84098100  0.55062300  1
  C  C99  1  0.15735800  0.00653600  0.55279300  1
  C  C100  1  0.99233400  0.15574200  0.55304300  1
  C  C101  1  0.84263200  0.00677500  0.45228900  1
  C  C102  1  0.00729300  0.15524800  0.45479400  1
  C  C103  1  0.15686600  0.98964500  0.45505200  1
  C  C104  1  0.99094900  0.84073200  0.45314000  1
  C  C105  1  0.34090500  0.49249900  0.04488600  1
  C  C106  1  0.50717700  0.34270500  0.04517000  1
  C  C107  1  0.65545800  0.50756400  0.04712500  1
  C  C108  1  0.49134800  0.65702300  0.04731600  1
  C  C109  1  0.34080900  0.50820200  0.94683000  1
  C  C110  1  0.50608300  0.65706300  0.94901500  1
  C  C111  1  0.65554800  0.49070600  0.94936600  1
  C  C112  1  0.48907900  0.34202200  0.94778700  1
  C  C113  1  0.86537400  0.99860700  0.50138300  1
  C  C114  1  0.99980100  0.86379700  0.50179500  1
  C  C115  1  0.13416300  0.99803700  0.50412600  1
  C  C116  1  0.99981800  0.13255900  0.50408600  1
  C  C117  1  0.36379200  0.50020200  0.99578800  1
  C  C118  1  0.49809000  0.36530800  0.99622600  1
  C  C119  1  0.63256000  0.49923600  0.99820600  1
  C  C120  1  0.49856000  0.63410000  0.99811100  1
  C  C121  1  0.77395000  0.99923000  0.50090300  1
  C  C122  1  0.00000600  0.77239200  0.50212800  1
  C  C123  1  0.22557800  0.99838500  0.50323000  1
  C  C124  1  0.99948500  0.22395900  0.50327000  1
  C  C125  1  0.27238100  0.50092400  0.99611600  1
  C  C126  1  0.49818000  0.27389100  0.99729500  1
  C  C127  1  0.72395500  0.49851100  0.99852400  1
  C  C128  1  0.49932300  0.72551900  0.99840000  1
  C  C129  1  0.99973500  0.91202100  0.50162200  1
  C  C130  1  0.08592800  0.99804800  0.50437700  1
  C  C131  1  0.99981400  0.08434100  0.50431100  1
  C  C132  1  0.91359600  0.99832200  0.50149600  1
  C  C133  1  0.49802200  0.41353700  0.99583900  1
  C  C134  1  0.58433500  0.49943600  0.99823900  1
  C  C135  1  0.49837000  0.58587200  0.99814700  1
  C  C136  1  0.41201100  0.49995700  0.99568200  1
  C  C137  1  0.63520700  0.96930400  0.40075600  1
  C  C138  1  0.64752900  0.99950300  0.35393800  1
  C  C139  1  0.66890400  0.98465900  0.30900500  1
  C  C140  1  0.03081100  0.63350400  0.40294200  1
  C  C141  1  0.99926000  0.64388600  0.35682000  1
  C  C142  1  0.01232900  0.66530600  0.31103700  1
  C  C143  1  0.36364800  0.03059500  0.40271900  1
  C  C144  1  0.35263500  0.99996700  0.35582900  1
  C  C145  1  0.33082500  0.01399600  0.31081200  1
  C  C146  1  0.96768000  0.36229800  0.40263000  1
  C  C147  1  0.00630000  0.37760500  0.36938100  1
  C  C148  1  0.00047600  0.39387300  0.31816700  1
  C  C149  1  0.63483900  0.03134400  0.59904600  1
  C  C150  1  0.64585700  0.00058100  0.64579500  1
  C  C151  1  0.66710700  0.01462000  0.69124100  1
  C  C152  1  0.03347100  0.36419100  0.59798000  1
  C  C153  1  0.00351000  0.35432200  0.64597200  1
  C  C154  1  0.01817200  0.33360300  0.69149500  1
  C  C155  1  0.36546500  0.96675100  0.59989900  1
  C  C156  1  0.35549800  0.99752300  0.64701300  1
  C  C157  1  0.33458900  0.98366400  0.69280300  1
  C  C158  1  0.96982300  0.63339100  0.60167400  1
  C  C159  1  0.00064000  0.64468400  0.64825700  1
  C  C160  1  0.98657300  0.66587000  0.69373700  1
  C  C161  1  0.13265100  0.47031000  0.89842700  1
  C  C162  1  0.14409900  0.50034400  0.85108200  1
  C  C163  1  0.16503500  0.48543200  0.80585100  1
  C  C164  1  0.52836400  0.13417100  0.89957100  1
  C  C165  1  0.49690800  0.14470600  0.85339800  1
  C  C166  1  0.51022100  0.16566600  0.80738200  1
  C  C167  1  0.86408800  0.53085800  0.90261500  1
  C  C168  1  0.85422900  0.50032700  0.85520900  1
  C  C169  1  0.83353200  0.51444700  0.80939200  1
  C  C170  1  0.46729100  0.86513800  0.90131000  1
  C  C171  1  0.49702800  0.85410200  0.85350300  1
  C  C172  1  0.48194900  0.83307300  0.80843400  1
  C  C173  1  0.13424200  0.53368200  0.09598500  1
  C  C174  1  0.14521200  0.50284700  0.14267100  1
  C  C175  1  0.16687800  0.51669800  0.18788900  1
  C  C176  1  0.53356200  0.86383700  0.09725000  1
  C  C177  1  0.50356300  0.85294900  0.14484400  1
  C  C178  1  0.51818800  0.83125900  0.18964600  1
  C  C179  1  0.86240500  0.46717700  0.09906400  1
  C  C180  1  0.87747400  0.50612300  0.13186100  1
  C  C181  1  0.89369500  0.50078000  0.18318600  1
  C  C182  1  0.46862300  0.13574700  0.09894400  1
  C  C183  1  0.49965500  0.14771100  0.14502000  1
  C  C184  1  0.48576500  0.16940100  0.19020200  1
  O  O1  1  0.56539000  0.03865000  0.50070500  1
  O  O2  1  0.96175700  0.56419500  0.50201300  1
  O  O3  1  0.43401800  0.96046300  0.49895500  1
  O  O4  1  0.03913200  0.43232400  0.49796300  1
  O  O5  1  0.56520700  0.96258300  0.49862200  1
  O  O6  1  0.96312300  0.43301000  0.49909600  1
  O  O7  1  0.43419900  0.03653200  0.50165900  1
  O  O8  1  0.03787400  0.56350900  0.50144600  1
  O  O9  1  0.06367500  0.53998200  0.99857500  1
  O  O10  1  0.46041100  0.06538200  0.00107900  1
  O  O11  1  0.93274600  0.46116600  0.00165200  1
  O  O12  1  0.53860300  0.93400700  0.99835400  1
  O  O13  1  0.06390300  0.46387200  0.99817400  1
  O  O14  1  0.46254000  0.93419500  0.00117700  1
  O  O15  1  0.93252300  0.53718100  0.00264700  1
  O  O16  1  0.53648200  0.06519800  0.99885400  1
  O  O17  1  0.50100700  0.03861300  0.58375200  1
  O  O18  1  0.96016500  0.49835500  0.58306200  1
  O  O19  1  0.49886300  0.96253200  0.58354400  1
  O  O20  1  0.03619200  0.49567500  0.58443300  1
  O  O21  1  0.49861000  0.96050200  0.41616600  1
  O  O22  1  0.96473400  0.50077200  0.41578600  1
  O  O23  1  0.50031700  0.03657100  0.41637900  1
  O  O24  1  0.04077200  0.49848100  0.41715500  1
  O  O25  1  0.00058300  0.54082700  0.08315100  1
  O  O26  1  0.46049100  0.00067600  0.08373100  1
  O  O27  1  0.99887100  0.46477200  0.08468900  1
  O  O28  1  0.53655200  0.99851100  0.08342300  1
  O  O29  1  0.99616700  0.46029600  0.91741500  1
  O  O30  1  0.46244900  0.00066300  0.91635000  1
  O  O31  1  0.99746500  0.53635700  0.91588000  1
  O  O32  1  0.53853700  0.99892000  0.91604600  1
  O  O33  1  0.00094900  0.93271000  0.54994700  1
  O  O34  1  0.06538100  0.99939800  0.55278600  1
  O  O35  1  0.00040500  0.06385100  0.55276200  1
  O  O36  1  0.93422300  0.99889700  0.54990600  1
  O  O37  1  0.99922900  0.06365200  0.45596200  1
  O  O38  1  0.06527700  0.99682100  0.45603800  1
  O  O39  1  0.99847000  0.93251800  0.45319200  1
  O  O40  1  0.93415400  0.99762400  0.45310800  1
  O  O41  1  0.49927500  0.43426700  0.04411900  1
  O  O42  1  0.56380600  0.50083500  0.04664200  1
  O  O43  1  0.49894100  0.56539500  0.04659600  1
  O  O44  1  0.43266700  0.50053700  0.04405100  1
  O  O45  1  0.49773800  0.56515700  0.94980000  1
  O  O46  1  0.56367800  0.49821100  0.94989200  1
  O  O47  1  0.49676600  0.43399900  0.94736500  1
  O  O48  1  0.43253400  0.49921800  0.94725700  1
