# generated using pymatgen
data_Zn2H18C38N2O9
_symmetry_space_group_name_H-M   'P 1'
_cell_length_a   12.53090600
_cell_length_b   13.72692300
_cell_length_c   14.52426200
_cell_angle_alpha   89.98884200
_cell_angle_beta   103.05621500
_cell_angle_gamma   86.65744900
_symmetry_Int_Tables_number   1
_chemical_formula_structural   Zn2H18C38N2O9
_chemical_formula_sum   'Zn2 H18 C38 N2 O9'
_cell_volume   2429.37525449
_cell_formula_units_Z   1
loop_
 _symmetry_equiv_pos_site_id
 _symmetry_equiv_pos_as_xyz
  1  'x, y, z'
loop_
 _atom_site_type_symbol
 _atom_site_label
 _atom_site_symmetry_multiplicity
 _atom_site_fract_x
 _atom_site_fract_y
 _atom_site_fract_z
 _atom_site_occupancy
  Zn  Zn1  1  0.38010600  0.47930300  0.47802000  1
  Zn  Zn2  1  0.62341000  0.51764200  0.52527400  1
  H  H1  1  0.73484100  0.22930200  0.46322300  1
  H  H2  1  0.72081400  0.89800000  0.41494000  1
  H  H3  1  0.77450300  0.05858200  0.43481300  1
  H  H4  1  0.43315800  0.16448700  0.52579600  1
  H  H5  1  0.27407400  0.76139000  0.54670500  1
  H  H6  1  0.33507600  0.05729800  0.55089800  1
  H  H7  1  0.22194800  0.93029800  0.57014000  1
  H  H8  1  0.59828100  0.77504500  0.42482600  1
  H  H9  1  0.86669900  0.33804900  0.33765900  1
  H  H10  1  0.04011900  0.31767300  0.30715800  1
  H  H11  1  0.19049400  0.54780800  0.55124500  1
  H  H12  1  0.75588800  0.64038700  0.65960800  1
  H  H13  1  0.08121800  0.61323200  0.62577900  1
  H  H14  1  0.94690700  0.68363600  0.70399600  1
  H  H15  1  0.74193900  0.41168300  0.42032600  1
  H  H16  1  0.25362400  0.20756000  0.39668600  1
  H  H17  1  0.36044300  0.21841700  0.33188500  1
  H  H18  1  0.22250000  0.19595900  0.26939900  1
  C  C1  1  0.45252800  0.68697000  0.50081700  1
  C  C2  1  0.50484300  0.48937300  0.68192900  1
  C  C3  1  0.55097800  0.31034200  0.50228500  1
  C  C4  1  0.49837100  0.50880300  0.32125500  1
  C  C5  1  0.50457200  0.49013200  0.78067900  1
  C  C6  1  0.50367900  0.49286200  0.86343200  1
  C  C7  1  0.50217300  0.49751700  0.96025900  1
  C  C8  1  0.50078600  0.50180100  0.04285500  1
  C  C9  1  0.49932700  0.50625600  0.13969900  1
  C  C10  1  0.49851200  0.50864800  0.22247700  1
  C  C11  1  0.69945200  0.08018900  0.45620100  1
  C  C12  1  0.57950900  0.20585100  0.49535000  1
  C  C13  1  0.32619600  0.81695900  0.53275100  1
  C  C14  1  0.29684500  0.91236300  0.54709100  1
  C  C15  1  0.36337000  0.98514300  0.53546800  1
  C  C16  1  0.46028100  0.96417200  0.50560100  1
  C  C17  1  0.48824800  0.86679300  0.48803000  1
  C  C18  1  0.52998200  0.03775500  0.49298400  1
  C  C19  1  0.62601700  0.01163500  0.46470300  1
  C  C20  1  0.64867300  0.91703300  0.44173600  1
  C  C21  1  0.57927500  0.84599400  0.45041400  1
  C  C22  1  0.50698400  0.13697900  0.50671300  1
  C  C23  1  0.67728200  0.17672700  0.47276600  1
  C  C24  1  0.42263300  0.79236800  0.50534600  1
  C  C25  1  0.07134100  0.36879000  0.36186000  1
  C  C26  1  0.81506800  0.60682600  0.62377900  1
  C  C27  1  0.92244400  0.63139400  0.64866900  1
  C  C28  1  0.99881500  0.59049900  0.60316000  1
  C  C29  1  0.96752900  0.52349200  0.53188400  1
  C  C30  1  0.85752700  0.49997100  0.50950100  1
  C  C31  1  0.04180900  0.47936600  0.48186200  1
  C  C32  1  0.00307900  0.41318100  0.41247000  1
  C  C33  1  0.89582300  0.39017900  0.39198600  1
  C  C34  1  0.82419900  0.43301000  0.43970100  1
  C  C35  1  0.15341600  0.49816300  0.49789700  1
  C  C36  1  0.17911700  0.38960600  0.37868000  1
  C  C37  1  0.24527200  0.34105300  0.31906100  1
  C  C38  1  0.27224300  0.23395700  0.33020200  1
  N  N1  1  0.21970200  0.45375300  0.44658400  1
  N  N2  1  0.78325100  0.54198700  0.55510700  1
  O  O1  1  0.37219800  0.62703200  0.48327700  1
  O  O2  1  0.55674100  0.65608400  0.52114800  1
  O  O3  1  0.41164500  0.47715200  0.62114900  1
  O  O4  1  0.59689500  0.50604200  0.65728400  1
  O  O5  1  0.44709700  0.34079200  0.48431100  1
  O  O6  1  0.63079600  0.36992700  0.52045600  1
  O  O7  1  0.40735300  0.49159200  0.34637700  1
  O  O8  1  0.59046000  0.52194800  0.38211100  1
  O  O9  1  0.25670500  0.38235700  0.24792800  1
