# generated using pymatgen
data_Zn2H19C28SN3O8
_symmetry_space_group_name_H-M   'P 1'
_cell_length_a   8.52464000
_cell_length_b   10.69298900
_cell_length_c   14.24582200
_cell_angle_alpha   97.80749600
_cell_angle_beta   90.10274500
_cell_angle_gamma   90.00840500
_symmetry_Int_Tables_number   1
_chemical_formula_structural   Zn2H19C28SN3O8
_chemical_formula_sum   'Zn2 H19 C28 S1 N3 O8'
_cell_volume   1286.52223527
_cell_formula_units_Z   1
loop_
 _symmetry_equiv_pos_site_id
 _symmetry_equiv_pos_as_xyz
  1  'x, y, z'
loop_
 _atom_site_type_symbol
 _atom_site_label
 _atom_site_symmetry_multiplicity
 _atom_site_fract_x
 _atom_site_fract_y
 _atom_site_fract_z
 _atom_site_occupancy
  Zn  Zn1  1  0.49826900  0.49227200  0.10457100  1
  Zn  Zn2  1  0.49791000  0.50548000  0.89642100  1
  H  H1  1  0.60928900  0.89527800  0.01550700  1
  H  H2  1  0.99447900  0.59184900  0.05790800  1
  H  H3  1  0.99458300  0.40670200  0.94339300  1
  H  H4  1  0.25301200  0.90226000  0.99334600  1
  H  H5  1  0.25330000  0.09529400  0.00638700  1
  H  H6  1  0.70051300  0.62809700  0.59693500  1
  H  H7  1  0.73104800  0.56876000  0.43823100  1
  H  H8  1  0.46187100  0.29534400  0.42002500  1
  H  H9  1  0.66402500  0.33868400  0.40246200  1
  H  H10  1  0.70680600  0.39431500  0.56120700  1
  H  H11  1  0.30181600  0.61862700  0.43977100  1
  H  H12  1  0.24947000  0.45400300  0.40981600  1
  H  H13  1  0.26530400  0.58583400  0.59264500  1
  H  H14  1  0.58187900  0.68564300  0.42540700  1
  H  H15  1  0.51450300  0.70433100  0.58140800  1
  H  H16  1  0.27187800  0.41622200  0.56262600  1
  H  H17  1  0.65674500  0.06001300  0.58151900  1
  H  H18  1  0.77199900  0.19768100  0.62496400  1
  H  H19  1  0.72118900  0.16390700  0.49988700  1
  C  C1  1  0.99632500  0.68983200  0.04703300  1
  C  C2  1  0.13687800  0.74657800  0.03265000  1
  C  C3  1  0.14001700  0.86747000  0.01077400  1
  C  C4  1  0.85754900  0.75058700  0.03395500  1
  C  C5  1  0.85960600  0.87556900  0.01682600  1
  C  C6  1  0.00182600  0.93611000  0.00822700  1
  C  C7  1  0.00182700  0.06197300  0.99240100  1
  C  C8  1  0.14011500  0.13033600  0.98941800  1
  C  C9  1  0.13683300  0.25143900  0.96794200  1
  C  C10  1  0.72112100  0.94062900  0.00852200  1
  C  C11  1  0.85983000  0.12330400  0.98448600  1
  C  C12  1  0.85786100  0.24797400  0.96746300  1
  C  C13  1  0.99635600  0.30866000  0.95410900  1
  C  C14  1  0.27807800  0.66945400  0.02284100  1
  C  C15  1  0.27804200  0.32834200  0.97779900  1
  C  C16  1  0.71589000  0.32540700  0.97770700  1
  C  C17  1  0.71624500  0.67213400  0.02360300  1
  C  C18  1  0.60789800  0.59694900  0.45470100  1
  C  C19  1  0.55304700  0.36829500  0.43948700  1
  C  C20  1  0.57953800  0.38514900  0.54560700  1
  C  C21  1  0.49855400  0.49284100  0.41143300  1
  C  C22  1  0.58474200  0.61763000  0.56107200  1
  C  C23  1  0.49813000  0.50504900  0.58957000  1
  C  C24  1  0.33097100  0.50597300  0.55313300  1
  C  C25  1  0.33424700  0.52057900  0.44892200  1
  C  C26  1  0.49792400  0.51107000  0.69277100  1
  C  C27  1  0.49889400  0.48674400  0.30822600  1
  C  C28  1  0.68050600  0.15991300  0.57329900  1
  S  S1  1  0.50095400  0.25039800  0.59522200  1
  N  N1  1  0.72369400  0.06219900  0.99327100  1
  N  N2  1  0.49782200  0.51382200  0.77423700  1
  N  N3  1  0.49898300  0.48394600  0.22675600  1
  O  O1  1  0.32905400  0.63318600  0.93663600  1
  O  O2  1  0.33345200  0.62594300  0.09810900  1
  O  O3  1  0.32929900  0.36456700  0.06404300  1
  O  O4  1  0.33292800  0.37187900  0.90256400  1
  O  O5  1  0.66666667  0.36412600  0.06400400  1
  O  O6  1  0.66193900  0.37112400  0.90299300  1
  O  O7  1  0.66648700  0.63359900  0.93730300  1
  O  O8  1  0.66252900  0.62653700  0.09830100  1
