# generated using pymatgen
data_ZnH8C20BrNO4
_symmetry_space_group_name_H-M   'P 1'
_cell_length_a   13.38511300
_cell_length_b   14.53477200
_cell_length_c   17.44465300
_cell_angle_alpha   90.00000000
_cell_angle_beta   86.57239800
_cell_angle_gamma   90.00000000
_symmetry_Int_Tables_number   1
_chemical_formula_structural   ZnH8C20BrNO4
_chemical_formula_sum   'Zn2 H16 C40 Br2 N2 O8'
_cell_volume   3387.77854721
_cell_formula_units_Z   2
loop_
 _symmetry_equiv_pos_site_id
 _symmetry_equiv_pos_as_xyz
  1  'x, y, z'
loop_
 _atom_site_type_symbol
 _atom_site_label
 _atom_site_symmetry_multiplicity
 _atom_site_fract_x
 _atom_site_fract_y
 _atom_site_fract_z
 _atom_site_occupancy
  Zn  Zn1  1  0.38644100  0.45853200  0.49895800  1
  Zn  Zn2  1  0.61356000  0.45853200  0.50104200  1
  H  H1  1  0.61916000  0.38940700  0.74154000  1
  H  H2  1  0.38084000  0.38940800  0.25846000  1
  H  H3  1  0.61433800  0.45274500  0.99350800  1
  H  H4  1  0.38566300  0.45274600  0.00649200  1
  H  H5  1  0.32916200  0.51930200  0.88938800  1
  H  H6  1  0.67084000  0.51930000  0.11061200  1
  H  H7  1  0.38983200  0.38011000  0.12018700  1
  H  H8  1  0.61016800  0.38010900  0.87981300  1
  H  H9  1  0.57999100  0.64863200  0.31020100  1
  H  H10  1  0.71212400  0.73659900  0.36854600  1
  H  H11  1  0.93164900  0.55330700  0.26894900  1
  H  H12  1  0.79978300  0.46428500  0.21106700  1
  H  H13  1  0.42001300  0.64863300  0.68979900  1
  H  H14  1  0.28788100  0.73660100  0.63145400  1
  H  H15  1  0.06835300  0.55331200  0.73105100  1
  H  H16  1  0.20021800  0.46428800  0.78893300  1
  C  C1  1  0.50000100  0.63833300  0.50000000  1
  C  C2  1  0.50000000  0.27871100  0.50000000  1
  C  C3  1  0.48668200  0.45942500  0.65046800  1
  C  C4  1  0.51331900  0.45942500  0.34953200  1
  C  C5  1  0.47944400  0.46009500  0.73495100  1
  C  C6  1  0.52055700  0.46009500  0.26504900  1
  C  C7  1  0.55559000  0.41970400  0.77325100  1
  C  C8  1  0.44441100  0.41970400  0.22674900  1
  C  C9  1  0.55053300  0.41461300  0.85225200  1
  C  C10  1  0.44946800  0.41461400  0.14774800  1
  C  C11  1  0.46871900  0.45011400  0.89439500  1
  C  C12  1  0.53128200  0.45011300  0.10560500  1
  C  C13  1  0.39213200  0.48965300  0.85645700  1
  C  C14  1  0.60786900  0.48965200  0.14354300  1
  C  C15  1  0.39751900  0.49699800  0.77738400  1
  C  C16  1  0.60248200  0.49699700  0.22261600  1
  C  C17  1  0.45994200  0.44684300  0.97883400  1
  C  C18  1  0.54005900  0.44684300  0.02116600  1
  C  C19  1  0.50000100  0.73702800  0.50000000  1
  C  C20  1  0.50000000  0.17999600  0.50000000  1
  C  C21  1  0.50000100  0.81992100  0.50000000  1
  C  C22  1  0.50000000  0.09709600  0.50000000  1
  C  C23  1  0.50000100  0.91705700  0.50000000  1
  C  C24  1  0.50000100  0.99995800  0.50000000  1
  C  C25  1  0.84940500  0.45862400  0.50119800  1
  C  C26  1  0.15059600  0.45862400  0.49880200  1
  C  C27  1  0.95495900  0.45877000  0.50037700  1
  C  C28  1  0.04504200  0.45877000  0.49962300  1
  C  C29  1  0.68107800  0.54948200  0.25815500  1
  C  C30  1  0.65705900  0.62683500  0.30157000  1
  C  C31  1  0.73128200  0.67659600  0.33412200  1
  C  C32  1  0.82985600  0.64995800  0.32270100  1
  C  C33  1  0.85428400  0.57394000  0.27820200  1
  C  C34  1  0.78012400  0.52410100  0.24557300  1
  C  C35  1  0.31892400  0.54948400  0.74184500  1
  C  C36  1  0.34294400  0.62683600  0.69843000  1
  C  C37  1  0.26872200  0.67659900  0.66587800  1
  C  C38  1  0.17014800  0.64996200  0.67729900  1
  C  C39  1  0.14571900  0.57394400  0.72179800  1
  C  C40  1  0.21987800  0.52410400  0.75442700  1
  Br  Br1  1  0.93237700  0.71867500  0.36791000  1
  Br  Br2  1  0.06762800  0.71868000  0.63209100  1
  N  N1  1  0.76292400  0.45847300  0.50172400  1
  N  N2  1  0.23707700  0.45847300  0.49827600  1
  O  O1  1  0.41377500  0.59562200  0.49908900  1
  O  O2  1  0.58615100  0.32145300  0.50100300  1
  O  O3  1  0.58622700  0.59562200  0.50091100  1
  O  O4  1  0.41385000  0.32145300  0.49899700  1
  O  O5  1  0.40410800  0.45830100  0.61347300  1
  O  O6  1  0.59589300  0.45830100  0.38652700  1
  O  O7  1  0.57621700  0.45843200  0.61533000  1
  O  O8  1  0.42378400  0.45843200  0.38467000  1
