# generated using pymatgen
data_ZnH11C22NClO4
_symmetry_space_group_name_H-M   'P 1'
_cell_length_a   12.27526400
_cell_length_b   8.54203300
_cell_length_c   19.38300000
_cell_angle_alpha   90.00000000
_cell_angle_beta   96.20037300
_cell_angle_gamma   90.00000000
_symmetry_Int_Tables_number   1
_chemical_formula_structural   ZnH11C22NClO4
_chemical_formula_sum   'Zn2 H22 C44 N2 Cl2 O8'
_cell_volume   2020.52911380
_cell_formula_units_Z   2
loop_
 _symmetry_equiv_pos_site_id
 _symmetry_equiv_pos_as_xyz
  1  'x, y, z'
loop_
 _atom_site_type_symbol
 _atom_site_label
 _atom_site_symmetry_multiplicity
 _atom_site_fract_x
 _atom_site_fract_y
 _atom_site_fract_z
 _atom_site_occupancy
  Zn  Zn1  1  0.87792500  0.49898600  0.48734100  1
  Zn  Zn2  1  0.12207600  0.49898600  0.51265900  1
  H  H1  1  0.95661800  0.99887600  0.54496000  1
  H  H2  1  0.04338200  0.99887600  0.45504000  1
  H  H3  1  0.02088200  0.24992100  0.73263200  1
  H  H4  1  0.99624800  0.74659400  0.26730400  1
  H  H5  1  0.97911800  0.24992100  0.26736800  1
  H  H6  1  0.00375200  0.74659400  0.73269600  1
  H  H7  1  0.92906400  0.77112300  0.03963700  1
  H  H8  1  0.93512500  0.23018500  0.94852100  1
  H  H9  1  0.07093600  0.77112300  0.96036300  1
  H  H10  1  0.06487500  0.23018600  0.05147900  1
  H  H11  1  0.91696900  0.77289800  0.16348900  1
  H  H12  1  0.93436500  0.22827000  0.82394200  1
  H  H13  1  0.08303100  0.77289800  0.83651100  1
  H  H14  1  0.06563500  0.22827000  0.17605800  1
  H  H15  1  0.55587100  0.35247200  0.35844500  1
  H  H16  1  0.28297100  0.52091000  0.22503800  1
  H  H17  1  0.23300900  0.69427600  0.31783700  1
  H  H18  1  0.34441200  0.70038600  0.42995500  1
  H  H19  1  0.44412800  0.35247100  0.64155600  1
  H  H20  1  0.71702800  0.52090900  0.77496200  1
  H  H21  1  0.76699100  0.69427500  0.68216300  1
  H  H22  1  0.65558700  0.70038500  0.57004500  1
  C  C1  1  0.98825500  0.13823500  0.63509400  1
  C  C2  1  0.01259700  0.85956000  0.36480600  1
  C  C3  1  0.01174400  0.13823500  0.36490700  1
  C  C4  1  0.98740300  0.85956000  0.63519500  1
  C  C5  1  0.00674000  0.13905900  0.70652000  1
  C  C6  1  0.99859500  0.85834400  0.29323800  1
  C  C7  1  0.99326000  0.13905900  0.29348100  1
  C  C8  1  0.00140500  0.85834400  0.70676200  1
  C  C9  1  0.00676100  0.99907100  0.74327500  1
  C  C10  1  0.99323900  0.99907100  0.25672600  1
  C  C11  1  0.97336800  0.99891400  0.60046000  1
  C  C12  1  0.02663200  0.99891400  0.39954000  1
  C  C13  1  0.95845200  0.87185400  0.06986900  1
  C  C14  1  0.96800800  0.12992700  0.92378000  1
  C  C15  1  0.04154800  0.87185400  0.93013200  1
  C  C16  1  0.03199100  0.12992700  0.07622000  1
  C  C17  1  0.95269500  0.87298300  0.14059300  1
  C  C18  1  0.96925700  0.12901700  0.85278000  1
  C  C19  1  0.04730500  0.87298300  0.85940800  1
  C  C20  1  0.03074300  0.12901700  0.14722000  1
  C  C21  1  0.99035100  0.00091600  0.18030800  1
  C  C22  1  0.00964800  0.00091600  0.81969200  1
  C  C23  1  0.99202100  0.71730600  0.59378400  1
  C  C24  1  0.00767300  0.28039900  0.40637100  1
  C  C25  1  0.00797900  0.71730600  0.40621600  1
  C  C26  1  0.99232700  0.28039900  0.59362900  1
  C  C27  1  0.99755500  0.00057700  0.03749000  1
  C  C28  1  0.00244400  0.00057700  0.96251100  1
  C  C29  1  0.47717000  0.52108200  0.52982700  1
  C  C30  1  0.52282900  0.52108200  0.47017300  1
  C  C31  1  0.63980400  0.50755800  0.47122200  1
  C  C32  1  0.36019600  0.50755800  0.52877800  1
  C  C33  1  0.45500800  0.52085600  0.40301200  1
  C  C34  1  0.48472100  0.42739100  0.34999200  1
  C  C35  1  0.42257500  0.42659000  0.28633600  1
  C  C36  1  0.33142800  0.52107000  0.27503900  1
  C  C37  1  0.30310000  0.61759000  0.32720100  1
  C  C38  1  0.36486100  0.61817100  0.39101700  1
  C  C39  1  0.54499200  0.52085500  0.59698800  1
  C  C40  1  0.51527900  0.42739100  0.65000900  1
  C  C41  1  0.57742500  0.42658900  0.71366400  1
  C  C42  1  0.66857200  0.52106900  0.72496100  1
  C  C43  1  0.69690000  0.61758900  0.67280000  1
  C  C44  1  0.63513900  0.61817100  0.60898300  1
  N  N1  1  0.26581200  0.49929600  0.52653100  1
  N  N2  1  0.73418800  0.49929600  0.47346900  1
  Cl  Cl1  1  0.45962200  0.30561900  0.21977200  1
  Cl  Cl2  1  0.54037800  0.30561800  0.78022800  1
  O  O1  1  0.08866500  0.66818200  0.57982900  1
  O  O2  1  0.91109400  0.32988800  0.42011000  1
  O  O3  1  0.91133500  0.66818200  0.42017100  1
  O  O4  1  0.08890600  0.32988800  0.57989000  1
  O  O5  1  0.89989900  0.66263400  0.56249600  1
  O  O6  1  0.10010900  0.33498900  0.43761500  1
  O  O7  1  0.10010100  0.66263400  0.43750400  1
  O  O8  1  0.89989100  0.33498800  0.56238500  1
