# generated using pymatgen
data_Zn2H21C38N2ClO8
_symmetry_space_group_name_H-M   'P 1'
_cell_length_a   13.43232100
_cell_length_b   8.56328600
_cell_length_c   10.76835000
_cell_angle_alpha   90.00000000
_cell_angle_beta   97.85927100
_cell_angle_gamma   90.00000000
_symmetry_Int_Tables_number   1
_chemical_formula_structural   Zn2H21C38N2ClO8
_chemical_formula_sum   'Zn2 H21 C38 N2 Cl1 O8'
_cell_volume   1226.99284284
_cell_formula_units_Z   1
loop_
 _symmetry_equiv_pos_site_id
 _symmetry_equiv_pos_as_xyz
  1  'x, y, z'
loop_
 _atom_site_type_symbol
 _atom_site_label
 _atom_site_symmetry_multiplicity
 _atom_site_fract_x
 _atom_site_fract_y
 _atom_site_fract_z
 _atom_site_occupancy
  Zn  Zn1  1  0.11031100  0.48894100  0.49291300  1
  Zn  Zn2  1  0.88862300  0.49057500  0.49881900  1
  H  H1  1  0.04337900  0.36748600  0.89791800  1
  H  H2  1  0.98749800  0.60474900  0.87723000  1
  H  H3  1  0.06038000  0.33995200  0.10530100  1
  H  H4  1  0.09721200  0.70032700  0.06578600  1
  H  H5  1  0.06184100  0.98710300  0.59151500  1
  H  H6  1  0.94809200  0.98961100  0.40589000  1
  H  H7  1  0.91115700  0.32425200  0.87617500  1
  H  H8  1  0.88469400  0.71670600  0.92170500  1
  H  H9  1  0.92537100  0.35967100  0.08317600  1
  H  H10  1  0.98665200  0.60377200  0.10693100  1
  H  H11  1  0.77304400  0.46013000  0.69605300  1
  H  H12  1  0.23228100  0.52258800  0.29932900  1
  H  H13  1  0.56192600  0.54550600  0.19636500  1
  H  H14  1  0.59689400  0.45595700  0.70496100  1
  H  H15  1  0.44382700  0.45403700  0.70122000  1
  H  H16  1  0.72546100  0.52397300  0.30622000  1
  H  H17  1  0.26644000  0.45424700  0.68685100  1
  H  H18  1  0.21035500  0.32235800  0.95566500  1
  H  H19  1  0.19411000  0.57499000  0.84468200  1
  H  H20  1  0.29480700  0.79995700  0.92952800  1
  H  H21  1  0.40534800  0.77643500  0.13063700  1
  C  C1  1  0.04685400  0.98821700  0.68746900  1
  C  C2  1  0.02887500  0.12847000  0.74311400  1
  C  C3  1  0.02965300  0.84916900  0.74526000  1
  C  C4  1  0.00822200  0.13125000  0.86522800  1
  C  C5  1  0.00262100  0.85277000  0.86512100  1
  C  C6  1  0.98605800  0.28391400  0.92072500  1
  C  C7  1  0.96753800  0.71100000  0.92551700  1
  C  C8  1  0.98881900  0.28597400  0.06238800  1
  C  C9  1  0.01434000  0.70715900  0.06116400  1
  C  C10  1  0.00101700  0.99285600  0.92839600  1
  C  C11  1  0.98514000  0.99275200  0.05957400  1
  C  C12  1  0.97843800  0.13189100  0.12260200  1
  C  C13  1  0.98720400  0.85256400  0.12430200  1
  C  C14  1  0.96673200  0.12991200  0.24794700  1
  C  C15  1  0.96993700  0.85084800  0.24832400  1
  C  C16  1  0.95665800  0.98998800  0.30768600  1
  C  C17  1  0.01923200  0.26931200  0.66515000  1
  C  C18  1  0.02090400  0.70789300  0.66729200  1
  C  C19  1  0.97701700  0.27213100  0.32417600  1
  C  C20  1  0.97941300  0.70939100  0.32571800  1
  C  C21  1  0.69532300  0.51018000  0.39360700  1
  C  C22  1  0.72193100  0.47379000  0.61011100  1
  C  C23  1  0.61979300  0.47194100  0.61411500  1
  C  C24  1  0.55269500  0.48987500  0.50467900  1
  C  C25  1  0.59257700  0.51051200  0.39410500  1
  C  C26  1  0.40267800  0.46882500  0.60927800  1
  C  C27  1  0.44801400  0.48784500  0.50200700  1
  C  C28  1  0.38596300  0.50525700  0.38869500  1
  C  C29  1  0.42796700  0.52570400  0.27932100  1
  C  C30  1  0.53043800  0.53021900  0.28272800  1
  C  C31  1  0.29970300  0.46880300  0.60203500  1
  C  C32  1  0.28203100  0.50571100  0.38573500  1
  C  C33  1  0.36552000  0.53870700  0.15814300  1
  C  C34  1  0.31115900  0.41137600  0.10883600  1
  C  C35  1  0.25136100  0.42330600  0.99484400  1
  C  C36  1  0.24386300  0.56383200  0.93173800  1
  C  C37  1  0.29984000  0.69035800  0.97981100  1
  C  C38  1  0.36181300  0.67715500  0.09238200  1
  N  N1  1  0.75831300  0.49222200  0.50086500  1
  N  N2  1  0.24081000  0.48721200  0.49174400  1
  Cl  Cl1  1  0.31868100  0.23422500  0.19080500  1
  O  O1  1  0.92839000  0.32083000  0.62546800  1
  O  O2  1  0.93007600  0.65763300  0.62710100  1
  O  O3  1  0.09986900  0.32457500  0.62451300  1
  O  O4  1  0.10153900  0.65255100  0.62575200  1
  O  O5  1  0.06843100  0.32171900  0.36443800  1
  O  O6  1  0.07033000  0.65801900  0.36546800  1
  O  O7  1  0.89651400  0.32786900  0.36525700  1
  O  O8  1  0.89848800  0.65487900  0.36693200  1
