# generated using pymatgen
data_Zn2H21C29S2N3O8
_symmetry_space_group_name_H-M   'P 1'
_cell_length_a   12.37161200
_cell_length_b   14.25080700
_cell_length_c   6.55351400
_cell_angle_alpha   90.00000000
_cell_angle_beta   80.11801400
_cell_angle_gamma   90.00000000
_symmetry_Int_Tables_number   1
_chemical_formula_structural   Zn2H21C29S2N3O8
_chemical_formula_sum   'Zn2 H21 C29 S2 N3 O8'
_cell_volume   1138.27768069
_cell_formula_units_Z   1
loop_
 _symmetry_equiv_pos_site_id
 _symmetry_equiv_pos_as_xyz
  1  'x, y, z'
loop_
 _atom_site_type_symbol
 _atom_site_label
 _atom_site_symmetry_multiplicity
 _atom_site_fract_x
 _atom_site_fract_y
 _atom_site_fract_z
 _atom_site_occupancy
  Zn  Zn1  1  0.50515900  0.10519900  0.50987000  1
  Zn  Zn2  1  0.49947800  0.89509600  0.48164200  1
  H  H1  1  0.15319000  0.05304800  0.47135200  1
  H  H2  1  0.85903100  0.95614000  0.52099800  1
  H  H3  1  0.98032600  0.04699400  0.34985000  1
  H  H4  1  0.84733400  0.02486100  0.25688400  1
  H  H5  1  0.05393600  0.94256300  0.47196500  1
  H  H6  1  0.62521800  0.56420400  0.21371800  1
  H  H7  1  0.59665800  0.40802000  0.19001500  1
  H  H8  1  0.58893900  0.42300000  0.76289700  1
  H  H9  1  0.54374000  0.57784600  0.78285300  1
  H  H10  1  0.67477600  0.43669700  0.51110200  1
  H  H11  1  0.65878100  0.59354500  0.57375000  1
  H  H12  1  0.32705100  0.41019400  0.55185600  1
  H  H13  1  0.33189800  0.56298100  0.44981600  1
  H  H14  1  0.38676600  0.43673100  0.77916100  1
  H  H15  1  0.35256700  0.58940000  0.71095700  1
  H  H16  1  0.41911600  0.25080800  0.03352000  1
  H  H17  1  0.38163100  0.25440300  0.31388700  1
  H  H18  1  0.52177600  0.27695800  0.19013200  1
  H  H19  1  0.53801100  0.72325300  0.86647300  1
  H  H20  1  0.63964000  0.65801900  0.97485600  1
  H  H21  1  0.55143700  0.74142700  0.13438400  1
  C  C1  1  0.24873100  0.01603200  0.18089600  1
  C  C2  1  0.15199400  0.03541000  0.31149000  1
  C  C3  1  0.05357500  0.03089000  0.24162000  1
  C  C4  1  0.24749900  0.99516800  0.97558600  1
  C  C5  1  0.14828500  0.98855300  0.90603500  1
  C  C6  1  0.05079600  0.00541100  0.03904800  1
  C  C7  1  0.95244600  0.99875000  0.96550600  1
  C  C8  1  0.85284800  0.01224200  0.09365500  1
  C  C9  1  0.75604200  0.00511400  0.01814000  1
  C  C10  1  0.05264200  0.96071100  0.63239200  1
  C  C11  1  0.95384100  0.97647000  0.76073200  1
  C  C12  1  0.85685800  0.97068800  0.68350900  1
  C  C13  1  0.75732900  0.98546200  0.81148400  1
  C  C14  1  0.34820800  0.01042100  0.27108600  1
  C  C15  1  0.34825900  0.99526700  0.82212300  1
  C  C16  1  0.65747400  0.99010100  0.71984900  1
  C  C17  1  0.65538100  0.00495300  0.16945300  1
  C  C18  1  0.52229400  0.44220600  0.27721500  1
  C  C19  1  0.53727200  0.54766700  0.26652800  1
  C  C20  1  0.59371300  0.45305100  0.60550600  1
  C  C21  1  0.57841700  0.55837800  0.62100300  1
  C  C22  1  0.50419900  0.41184300  0.50205500  1
  C  C23  1  0.49980200  0.58859500  0.47994000  1
  C  C24  1  0.38628100  0.55187300  0.56570100  1
  C  C25  1  0.39402300  0.44800700  0.60991800  1
  C  C26  1  0.49761500  0.69110700  0.46892800  1
  C  C27  1  0.50641900  0.30935400  0.51387900  1
  C  C28  1  0.43419800  0.28595900  0.17698200  1
  C  C29  1  0.55614100  0.68879000  0.00853000  1
  S  S1  1  0.40374900  0.41009500  0.16351100  1
  S  S2  1  0.45655200  0.59648300  0.08576700  1
  N  N1  1  0.14744000  0.96701000  0.70629800  1
  N  N2  1  0.49660000  0.77226000  0.46426700  1
  N  N3  1  0.50754100  0.22822800  0.52021100  1
  O  O1  1  0.38319200  0.92673600  0.31232800  1
  O  O2  1  0.38648600  0.08819800  0.33799700  1
  O  O3  1  0.38843700  0.07731800  0.75680700  1
  O  O4  1  0.38239200  0.91580200  0.73213700  1
  O  O5  1  0.62147600  0.07347300  0.67973800  1
  O  O6  1  0.61828700  0.91228000  0.65419100  1
  O  O7  1  0.61605800  0.92280100  0.23526400  1
  O  O8  1  0.62211100  0.08456600  0.25994700  1
