# generated using pymatgen
data_Fe2H24C52N4O19
_symmetry_space_group_name_H-M   'P 1'
_cell_length_a   14.01384200
_cell_length_b   9.26253000
_cell_length_c   26.45961200
_cell_angle_alpha   94.51119400
_cell_angle_beta   89.69507900
_cell_angle_gamma   68.93418400
_symmetry_Int_Tables_number   1
_chemical_formula_structural   Fe2H24C52N4O19
_chemical_formula_sum   'Fe2 H24 C52 N4 O19'
_cell_volume   3193.00309761
_cell_formula_units_Z   1
loop_
 _symmetry_equiv_pos_site_id
 _symmetry_equiv_pos_as_xyz
  1  'x, y, z'
loop_
 _atom_site_type_symbol
 _atom_site_label
 _atom_site_symmetry_multiplicity
 _atom_site_fract_x
 _atom_site_fract_y
 _atom_site_fract_z
 _atom_site_occupancy
  Fe  Fe1  1  0.47586600  0.05226000  0.85726200  1
  Fe  Fe2  1  0.52600000  0.95159100  0.14262200  1
  H  H1  1  0.29055100  0.69878600  0.11727800  1
  H  H2  1  0.12174500  0.66296600  0.11450600  1
  H  H3  1  0.71419100  0.30160500  0.88215600  1
  H  H4  1  0.88103700  0.34151100  0.88624500  1
  H  H5  1  0.30908300  0.07004200  0.00149500  1
  H  H6  1  0.98569000  0.85270700  0.99666800  1
  H  H7  1  0.01858900  0.14668800  0.00312900  1
  H  H8  1  0.53763300  0.49510000  0.16604800  1
  H  H9  1  0.49746400  0.25830200  0.29181900  1
  H  H10  1  0.49495500  0.72421100  0.31312700  1
  H  H11  1  0.35759100  0.71516800  0.54334100  1
  H  H12  1  0.36888900  0.72804600  0.63452800  1
  H  H13  1  0.63233700  0.31253100  0.62218600  1
  H  H14  1  0.62952000  0.30576700  0.53066600  1
  H  H15  1  0.51617300  0.27862500  0.68568000  1
  H  H16  1  0.46328300  0.50880200  0.83392700  1
  H  H17  1  0.48275300  0.75675700  0.70717200  1
  H  H18  1  0.56362000  0.25336500  0.45977600  1
  H  H19  1  0.56869300  0.24661100  0.36868100  1
  H  H20  1  0.39887700  0.73578800  0.37896900  1
  H  H21  1  0.40833600  0.74703500  0.46889400  1
  H  H22  1  0.07162100  0.17135200  0.82570900  1
  H  H23  1  0.93060800  0.83835300  0.17461200  1
  H  H24  1  0.70226400  0.80826700  0.97373900  1
  C  C1  1  0.29512800  0.87591900  0.06785500  1
  C  C2  1  0.25591900  0.77714200  0.08874800  1
  C  C3  1  0.16102900  0.80567600  0.06904200  1
  C  C4  1  0.22360100  0.95684300  0.03447600  1
  C  C5  1  0.09659600  0.74131000  0.08485500  1
  C  C6  1  0.98824600  0.79103100  0.07252800  1
  C  C7  1  0.91410400  0.78823300  0.10587500  1
  C  C8  1  0.82146200  0.84625100  0.08330800  1
  C  C9  1  0.84334900  0.88052900  0.03516600  1
  C  C10  1  0.76862600  0.94422000  0.99598300  1
  C  C11  1  0.78136100  0.04189300  0.96443600  1
  C  C12  1  0.71044000  0.12170400  0.93053400  1
  C  C13  1  0.74887400  0.22261500  0.91050800  1
  C  C14  1  0.84283300  0.19622100  0.93099000  1
  C  C15  1  0.90650700  0.26273000  0.91575600  1
  C  C16  1  0.01486100  0.21383900  0.92794400  1
  C  C17  1  0.08852600  0.21856500  0.89462700  1
  C  C18  1  0.18142700  0.15879100  0.91676700  1
  C  C19  1  0.16044000  0.12113400  0.96441500  1
  C  C20  1  0.23680500  0.05240600  0.00228700  1
  C  C21  1  0.46572700  0.78150900  0.81079100  1
  C  C22  1  0.27884900  0.12969300  0.88940900  1
  C  C23  1  0.61064500  0.11683100  0.91638300  1
  C  C24  1  0.49385300  0.23800100  0.78341600  1
  C  C25  1  0.51037200  0.76503800  0.21665000  1
  C  C26  1  0.39434600  0.88285600  0.08204700  1
  C  C27  1  0.72404500  0.87503300  0.11085300  1
  C  C28  1  0.52817500  0.22665000  0.18896900  1
  C  C29  1  0.51948300  0.36084700  0.22520700  1
  C  C30  1  0.50363700  0.36029200  0.27719500  1
  C  C31  1  0.49528800  0.49044400  0.30997100  1
  C  C32  1  0.49914000  0.62175500  0.28945000  1
  C  C33  1  0.51476200  0.62214000  0.23811400  1
  C  C34  1  0.52735900  0.49123700  0.20634500  1
  C  C35  1  0.42131300  0.62858300  0.55936000  1
  C  C36  1  0.42700900  0.63625100  0.61165400  1
  C  C37  1  0.50167600  0.52196000  0.63475800  1
  C  C38  1  0.57276400  0.40255300  0.60477700  1
  C  C39  1  0.56978100  0.39774600  0.55243700  1
  C  C40  1  0.49275000  0.50911400  0.52883600  1
  C  C41  1  0.50518700  0.38229300  0.71041800  1
  C  C42  1  0.48890800  0.38090600  0.76176400  1
  C  C43  1  0.47222200  0.51346600  0.79357600  1
  C  C44  1  0.47456200  0.64718400  0.77471500  1
  C  C45  1  0.48500900  0.65102600  0.72262900  1
  C  C46  1  0.49889800  0.51865900  0.69028400  1
  C  C47  1  0.52975000  0.36155500  0.44275100  1
  C  C48  1  0.53009600  0.35665000  0.39023100  1
  C  C49  1  0.48589400  0.49089400  0.36598600  1
  C  C50  1  0.43845100  0.62884000  0.39579400  1
  C  C51  1  0.44095600  0.63460400  0.44805100  1
  C  C52  1  0.48752900  0.50138100  0.47250500  1
  N  N1  1  0.14092400  0.91429500  0.03556000  1
  N  N2  1  0.94561400  0.84643200  0.02917600  1
  N  N3  1  0.86298100  0.08721700  0.96436000  1
  N  N4  1  0.05822700  0.15538400  0.97080100  1
  O  O1  1  0.49788200  0.89153400  0.79840200  1
  O  O2  1  0.43109800  0.78672000  0.85732500  1
  O  O3  1  0.36757600  0.07961100  0.91100200  1
  O  O4  1  0.27718800  0.15006600  0.84088800  1
  O  O5  1  0.56666900  0.10630400  0.76788100  1
  O  O6  1  0.60107500  0.98733600  0.89724500  1
  O  O7  1  0.43270100  0.24562600  0.82223500  1
  O  O8  1  0.53872500  0.24892300  0.90804800  1
  O  O9  1  0.57041200  0.75793700  0.17745200  1
  O  O10  1  0.46710100  0.75166200  0.09044500  1
  O  O11  1  0.43735600  0.89633300  0.23232200  1
  O  O12  1  0.40192300  0.01319300  0.10176500  1
  O  O13  1  0.63499200  0.92779700  0.08970600  1
  O  O14  1  0.72622700  0.85176100  0.15915000  1
  O  O15  1  0.50052600  0.11252900  0.20164500  1
  O  O16  1  0.56190300  0.22269700  0.14234100  1
  O  O17  1  0.07229900  0.26448500  0.84657800  1
  O  O18  1  0.92987000  0.74450800  0.15419600  1
  O  O19  1  0.68142700  0.91017800  0.99382500  1
