# generated using pymatgen
data_Cu6H36C73O34
_symmetry_space_group_name_H-M   'P 1'
_cell_length_a   30.18756900
_cell_length_b   31.81363600
_cell_length_c   21.35483900
_cell_angle_alpha   90.00000000
_cell_angle_beta   134.97527500
_cell_angle_gamma   90.00000000
_symmetry_Int_Tables_number   1
_chemical_formula_structural   Cu6H36C73O34
_chemical_formula_sum   'Cu12 H72 C146 O68'
_cell_volume   14508.08473983
_cell_formula_units_Z   2
loop_
 _symmetry_equiv_pos_site_id
 _symmetry_equiv_pos_as_xyz
  1  'x, y, z'
loop_
 _atom_site_type_symbol
 _atom_site_label
 _atom_site_symmetry_multiplicity
 _atom_site_fract_x
 _atom_site_fract_y
 _atom_site_fract_z
 _atom_site_occupancy
  Cu  Cu1  1  0.50109800  0.50134200  0.43541300  1
  Cu  Cu2  1  0.00109800  0.00134200  0.43541300  1
  Cu  Cu3  1  0.50067600  0.50316000  0.55983900  1
  Cu  Cu4  1  0.00067600  0.00316000  0.55983900  1
  Cu  Cu5  1  0.43860500  0.00217800  0.43594500  1
  Cu  Cu6  1  0.93860500  0.50217800  0.43594500  1
  Cu  Cu7  1  0.56346900  0.00239200  0.56143500  1
  Cu  Cu8  1  0.06346900  0.50239200  0.56143500  1
  Cu  Cu9  1  0.00160000  0.54482400  0.99910300  1
  Cu  Cu10  1  0.00016400  0.46101600  0.99747300  1
  Cu  Cu11  1  0.50160000  0.04482400  0.99910300  1
  Cu  Cu12  1  0.50016400  0.96101600  0.99747300  1
  H  H1  1  0.41052400  0.72607600  0.46231700  1
  H  H2  1  0.41081800  0.27873100  0.46657200  1
  H  H3  1  0.91052400  0.22607600  0.46231700  1
  H  H4  1  0.91081800  0.77873100  0.46657200  1
  H  H5  1  0.40624300  0.77920300  0.35238100  1
  H  H6  1  0.40904900  0.22712200  0.35736400  1
  H  H7  1  0.90624300  0.27920300  0.35238100  1
  H  H8  1  0.90904900  0.72712200  0.35736400  1
  H  H9  1  0.50670100  0.77746100  0.60880900  1
  H  H10  1  0.50380400  0.22551400  0.61163600  1
  H  H11  1  0.00670100  0.27746100  0.60880900  1
  H  H12  1  0.00380400  0.72551400  0.61163600  1
  H  H13  1  0.59167100  0.77853900  0.52928400  1
  H  H14  1  0.59463300  0.22574800  0.54110600  1
  H  H15  1  0.09167100  0.27853900  0.52928400  1
  H  H16  1  0.09463300  0.72574800  0.54110600  1
  H  H17  1  0.49554500  0.72714200  0.38272400  1
  H  H18  1  0.50171600  0.27893200  0.39604200  1
  H  H19  1  0.99554500  0.22714200  0.38272400  1
  H  H20  1  0.00171600  0.77893200  0.39604200  1
  H  H21  1  0.21342000  0.57172000  0.23184800  1
  H  H22  1  0.71342000  0.07172000  0.23184800  1
  H  H23  1  0.28946800  0.52344000  0.38762900  1
  H  H24  1  0.29013700  0.54891500  0.20688300  1
  H  H25  1  0.78946800  0.02344000  0.38762900  1
  H  H26  1  0.79013700  0.04891500  0.20688300  1
  H  H27  1  0.21145100  0.45317400  0.28742600  1
  H  H28  1  0.21156600  0.47868200  0.10636900  1
  H  H29  1  0.71145100  0.95317400  0.28742600  1
  H  H30  1  0.71156600  0.97868200  0.10636900  1
  H  H31  1  0.71137100  0.57519600  0.72363100  1
  H  H32  1  0.71137800  0.46025500  0.79408600  1
  H  H33  1  0.21137100  0.07519600  0.72363100  1
  H  H34  1  0.21137800  0.96025500  0.79408600  1
  H  H35  1  0.79021600  0.54793000  0.70368700  1
  H  H36  1  0.78948100  0.43283900  0.77339500  1
  H  H37  1  0.29021600  0.04793000  0.70368700  1
  H  H38  1  0.28948100  0.93283900  0.77339500  1
  H  H39  1  0.71346300  0.47661200  0.61206800  1
  H  H40  1  0.21346300  0.97661200  0.61206800  1
  H  H41  1  0.59428500  0.03922600  0.38048300  1
  H  H42  1  0.50428300  0.93052000  0.29017100  1
  H  H43  1  0.09428500  0.53922600  0.38048300  1
  H  H44  1  0.00428300  0.43052000  0.29017100  1
  H  H45  1  0.99987700  0.57463200  0.20956300  1
  H  H46  1  0.90975500  0.46597200  0.11860700  1
  H  H47  1  0.49987700  0.07463200  0.20956300  1
  H  H48  1  0.40975500  0.96597200  0.11860700  1
  H  H49  1  0.40866600  0.03742300  0.19544600  1
  H  H50  1  0.90866600  0.53742300  0.19544600  1
  H  H51  1  0.10339900  0.52131000  0.88945500  1
  H  H52  1  0.60339900  0.02131000  0.88945500  1
  H  H53  1  0.57557600  0.95164300  0.78455700  1
  H  H54  1  0.52776200  0.07166700  0.73544700  1
  H  H55  1  0.07557600  0.45164300  0.78455700  1
  H  H56  1  0.02776200  0.57166700  0.73544700  1
  H  H57  1  0.97241200  0.43340100  0.75920700  1
  H  H58  1  0.92460300  0.55353200  0.71066800  1
  H  H59  1  0.47241200  0.93340100  0.75920700  1
  H  H60  1  0.42460300  0.05353200  0.71066800  1
  H  H61  1  0.39669900  0.98381500  0.60606700  1
  H  H62  1  0.89669900  0.48381500  0.60606700  1
  H  H63  1  0.35949700  0.37857900  0.31830100  1
  H  H64  1  0.85949700  0.87857900  0.31830100  1
  H  H65  1  0.85841500  0.55265900  0.02876400  1
  H  H66  1  0.35841500  0.05265900  0.02876400  1
  H  H67  1  0.14556700  0.41452900  0.30186700  1
  H  H68  1  0.64556700  0.91452900  0.30186700  1
  H  H69  1  0.66441800  0.67599400  0.74196400  1
  H  H70  1  0.66453200  0.32562500  0.75683900  1
  H  H71  1  0.16441800  0.17599400  0.74196400  1
  H  H72  1  0.16453200  0.82562500  0.75683900  1
  C  C1  1  0.38079900  0.50141400  0.37726000  1
  C  C2  1  0.88079900  0.00141400  0.37726000  1
  C  C3  1  0.49982100  0.58286400  0.49400500  1
  C  C4  1  0.50329700  0.42166400  0.50263400  1
  C  C5  1  0.99982100  0.08286400  0.49400500  1
  C  C6  1  0.00329700  0.92166400  0.50263400  1
  C  C7  1  0.62095200  0.50383600  0.61792700  1
  C  C8  1  0.12095200  0.00383600  0.61792700  1
  C  C9  1  0.44923100  0.76640100  0.41734100  1
  C  C10  1  0.45151100  0.23910800  0.42375200  1
  C  C11  1  0.94923100  0.26640100  0.41734100  1
  C  C12  1  0.95151100  0.73910800  0.42375200  1
  C  C13  1  0.45162700  0.73848700  0.47760100  1
  C  C14  1  0.45249700  0.26619100  0.48351900  1
  C  C15  1  0.95162700  0.23848700  0.47760100  1
  C  C16  1  0.95249700  0.76619100  0.48351900  1
  C  C17  1  0.49936700  0.62795300  0.49242100  1
  C  C18  1  0.50334300  0.37657800  0.50397800  1
  C  C19  1  0.99936700  0.12795300  0.49242100  1
  C  C20  1  0.00334300  0.87657800  0.50397800  1
  C  C21  1  0.50146000  0.87654700  0.49804000  1
  C  C22  1  0.50069100  0.12800700  0.49930500  1
  C  C23  1  0.00146000  0.37654700  0.49804000  1
  C  C24  1  0.00069100  0.62800700  0.49930500  1
  C  C25  1  0.49813300  0.73906000  0.43403500  1
  C  C26  1  0.50222300  0.26629700  0.44493800  1
  C  C27  1  0.99813300  0.23906000  0.43403500  1
  C  C28  1  0.00222300  0.76629700  0.44493800  1
  C  C29  1  0.50050300  0.71181000  0.49426600  1
  C  C30  1  0.50318600  0.29272500  0.50465300  1
  C  C31  1  0.00050300  0.21181000  0.49426600  1
  C  C32  1  0.00318600  0.79272500  0.50465300  1
  C  C33  1  0.55027900  0.76624800  0.51337300  1
  C  C34  1  0.55267900  0.23816600  0.52355300  1
  C  C35  1  0.05027900  0.26624800  0.51337300  1
  C  C36  1  0.05267900  0.73816600  0.52355300  1
  C  C37  1  0.50127800  0.79270700  0.49663700  1
  C  C38  1  0.50188100  0.21183300  0.50236300  1
  C  C39  1  0.00127800  0.29270700  0.49663700  1
  C  C40  1  0.00188100  0.71183300  0.50236300  1
  C  C41  1  0.55177600  0.73851800  0.57239500  1
  C  C42  1  0.55279100  0.26507500  0.58206800  1
  C  C43  1  0.05177600  0.23851800  0.57239500  1
  C  C44  1  0.05279100  0.76507500  0.58206800  1
  C  C45  1  0.50367400  0.76566100  0.55702000  1
  C  C46  1  0.50285500  0.23803300  0.56223800  1
  C  C47  1  0.00367400  0.26566100  0.55702000  1
  C  C48  1  0.00285500  0.73803300  0.56223800  1
  C  C49  1  0.49962800  0.66582400  0.49262200  1
  C  C50  1  0.50329500  0.33871200  0.50454800  1
  C  C51  1  0.99962800  0.16582400  0.49262200  1
  C  C52  1  0.00329500  0.83871200  0.50454800  1
  C  C53  1  0.50140200  0.83867700  0.49750900  1
  C  C54  1  0.50104300  0.16587200  0.50056300  1
  C  C55  1  0.00140200  0.33867700  0.49750900  1
  C  C56  1  0.00104300  0.66587200  0.50056300  1
  C  C57  1  0.27141500  0.51322400  0.32334400  1
  C  C58  1  0.27160400  0.52717500  0.22447400  1
  C  C59  1  0.77141500  0.01322400  0.32334400  1
  C  C60  1  0.77160400  0.02717500  0.22447400  1
  C  C61  1  0.23094100  0.53960700  0.23932400  1
  C  C62  1  0.73094100  0.03960700  0.23932400  1
  C  C63  1  0.19049500  0.50155300  0.18697800  1
  C  C64  1  0.69049500  0.00155300  0.18697800  1
  C  C65  1  0.22972600  0.47516500  0.26983500  1
  C  C66  1  0.22991500  0.48910100  0.17073200  1
  C  C67  1  0.72972600  0.97516500  0.26983500  1
  C  C68  1  0.72991500  0.98910100  0.17073200  1
  C  C69  1  0.27014200  0.46334100  0.25475200  1
  C  C70  1  0.77014200  0.96334100  0.25475200  1
  C  C71  1  0.31119700  0.50080100  0.30757100  1
  C  C72  1  0.81119700  0.00080100  0.30757100  1
  C  C73  1  0.72979700  0.54293400  0.73519800  1
  C  C74  1  0.72967500  0.47997300  0.77365600  1
  C  C75  1  0.22979700  0.04293400  0.73519800  1
  C  C76  1  0.22967500  0.97997300  0.77365600  1
  C  C77  1  0.76999300  0.51876400  0.82118400  1
  C  C78  1  0.26999300  0.01876400  0.82118400  1
  C  C79  1  0.81117200  0.50418200  0.80966600  1
  C  C80  1  0.31117200  0.00418200  0.80966600  1
  C  C81  1  0.77161000  0.52805100  0.72347800  1
  C  C82  1  0.77145300  0.46523500  0.76186800  1
  C  C83  1  0.27161000  0.02805100  0.72347800  1
  C  C84  1  0.27145300  0.96523500  0.76186800  1
  C  C85  1  0.73100100  0.48912400  0.67477200  1
  C  C86  1  0.23100100  0.98912400  0.67477200  1
  C  C87  1  0.69046800  0.50391300  0.68777100  1
  C  C88  1  0.19046800  0.00391300  0.68777100  1
  C  C89  1  0.50173200  0.00195800  0.37924100  1
  C  C90  1  0.00173200  0.50195800  0.37924100  1
  C  C91  1  0.50136000  0.92164800  0.49813200  1
  C  C92  1  0.50073400  0.08291600  0.49821000  1
  C  C93  1  0.00136000  0.42164800  0.49813200  1
  C  C94  1  0.00073400  0.58291600  0.49821000  1
  C  C95  1  0.50035600  0.00181400  0.61814400  1
  C  C96  1  0.00035600  0.50181400  0.61814400  1
  C  C97  1  0.00191600  0.50281600  0.11946700  1
  C  C98  1  0.50191600  0.00281600  0.11946700  1
  C  C99  1  0.12097100  0.50204900  0.11736600  1
  C  C100  1  0.62097100  0.00204900  0.11736600  1
  C  C101  1  0.00078600  0.50298000  0.87803100  1
  C  C102  1  0.50078600  0.00298000  0.87803100  1
  C  C103  1  0.88078200  0.50380900  0.87866900  1
  C  C104  1  0.38078200  0.00380900  0.87866900  1
  C  C105  1  0.55221200  0.02277000  0.32040600  1
  C  C106  1  0.50270500  0.96321000  0.27065400  1
  C  C107  1  0.05221200  0.52277000  0.32040600  1
  C  C108  1  0.00270500  0.46321000  0.27065400  1
  C  C109  1  0.05184400  0.48392700  0.27920700  1
  C  C110  1  0.55184400  0.98392700  0.27920700  1
  C  C111  1  0.00162100  0.50278000  0.18884100  1
  C  C112  1  0.50162100  0.00278000  0.18884100  1
  C  C113  1  0.00103000  0.54187600  0.22842500  1
  C  C114  1  0.95167200  0.48245800  0.17882100  1
  C  C115  1  0.50103000  0.04187600  0.22842500  1
  C  C116  1  0.45167200  0.98245800  0.17882100  1
  C  C117  1  0.45105300  0.02154400  0.21935500  1
  C  C118  1  0.95105300  0.52154400  0.21935500  1
  C  C119  1  0.50210800  0.00239200  0.30999700  1
  C  C120  1  0.00210800  0.50239200  0.30999700  1
  C  C121  1  0.54131900  0.97478000  0.76862200  1
  C  C122  1  0.51523600  0.04032500  0.74188300  1
  C  C123  1  0.04131900  0.47478000  0.76862200  1
  C  C124  1  0.01523600  0.54032500  0.74188300  1
  C  C125  1  0.05652600  0.51282800  0.82419200  1
  C  C126  1  0.55652600  0.01282800  0.82419200  1
  C  C127  1  0.00022100  0.50289400  0.80783000  1
  C  C128  1  0.50022100  0.00289400  0.80783000  1
  C  C129  1  0.98505000  0.46486200  0.75339800  1
  C  C130  1  0.95888000  0.53040400  0.72663200  1
  C  C131  1  0.48505000  0.96486200  0.75339800  1
  C  C132  1  0.45888000  0.03040400  0.72663200  1
  C  C133  1  0.44369600  0.99238600  0.67104100  1
  C  C134  1  0.94369600  0.49238600  0.67104100  1
  C  C135  1  0.50002300  0.00229300  0.68743900  1
  C  C136  1  0.00002300  0.50229300  0.68743900  1
  C  C137  1  0.29072900  0.41948900  0.26179600  1
  C  C138  1  0.79072900  0.91948900  0.26179600  1
  C  C139  1  0.79016600  0.53590800  0.90312100  1
  C  C140  1  0.29016600  0.03590800  0.90312100  1
  C  C141  1  0.10873400  0.46227900  0.31180800  1
  C  C142  1  0.60873400  0.96227900  0.31180800  1
  C  C143  1  0.61061700  0.72338200  0.66133600  1
  C  C144  1  0.61081500  0.27917300  0.67276000  1
  C  C145  1  0.11061700  0.22338200  0.66133600  1
  C  C146  1  0.11081500  0.77917300  0.67276000  1
  O  O1  1  0.41007100  0.49900300  0.35261000  1
  O  O2  1  0.91007100  0.99900300  0.35261000  1
  O  O3  1  0.40971100  0.50061700  0.46033700  1
  O  O4  1  0.90971100  0.00061700  0.46033700  1
  O  O5  1  0.49745900  0.56253200  0.43831500  1
  O  O6  1  0.50004500  0.44035700  0.44472600  1
  O  O7  1  0.99745900  0.06253200  0.43831500  1
  O  O8  1  0.00004500  0.94035700  0.44472600  1
  O  O9  1  0.49709600  0.56408700  0.54578900  1
  O  O10  1  0.49967500  0.44192300  0.55241700  1
  O  O11  1  0.99709600  0.06408700  0.54578900  1
  O  O12  1  0.99967500  0.94192300  0.55241700  1
  O  O13  1  0.59211600  0.50075400  0.53517100  1
  O  O14  1  0.09211600  0.00075400  0.53517100  1
  O  O15  1  0.59174400  0.50236200  0.64264000  1
  O  O16  1  0.09174400  0.00236200  0.64264000  1
  O  O17  1  0.44766500  0.00417800  0.35404100  1
  O  O18  1  0.94766500  0.50417800  0.35404100  1
  O  O19  1  0.55550400  0.00378600  0.46239100  1
  O  O20  1  0.05550400  0.50378600  0.46239100  1
  O  O21  1  0.44732600  0.94108400  0.44640200  1
  O  O22  1  0.44675900  0.06329300  0.44711800  1
  O  O23  1  0.94732600  0.44108400  0.44640200  1
  O  O24  1  0.94675900  0.56329300  0.44711800  1
  O  O25  1  0.55517500  0.94127800  0.55564700  1
  O  O26  1  0.55485400  0.06348900  0.55490400  1
  O  O27  1  0.05517500  0.44127800  0.55564700  1
  O  O28  1  0.05485400  0.56348900  0.55490400  1
  O  O29  1  0.44644100  0.00331400  0.53488400  1
  O  O30  1  0.94644100  0.50331400  0.53488400  1
  O  O31  1  0.55453200  0.00412100  0.64349200  1
  O  O32  1  0.05453200  0.50412100  0.64349200  1
  O  O33  1  0.99903300  0.53912400  0.08756500  1
  O  O34  1  0.99890700  0.46656200  0.08729700  1
  O  O35  1  0.49903300  0.03912400  0.08756500  1
  O  O36  1  0.49890700  0.96656200  0.08729700  1
  O  O37  1  0.09250700  0.53843100  0.09245400  1
  O  O38  1  0.09130200  0.46602800  0.08988200  1
  O  O39  1  0.59250700  0.03843100  0.09245400  1
  O  O40  1  0.59130200  0.96602800  0.08988200  1
  O  O41  1  0.99935400  0.53921100  0.90579900  1
  O  O42  1  0.99690600  0.46683000  0.90324300  1
  O  O43  1  0.49935400  0.03921100  0.90579900  1
  O  O44  1  0.49690600  0.96683000  0.90324300  1
  O  O45  1  0.91046000  0.53990700  0.91024400  1
  O  O46  1  0.90926800  0.46733000  0.90999800  1
  O  O47  1  0.41046000  0.03990700  0.91024400  1
  O  O48  1  0.40926800  0.96733000  0.90999800  1
  O  O49  1  0.25167200  0.39217000  0.21404400  1
  O  O50  1  0.35405300  0.40951500  0.32243000  1
  O  O51  1  0.75167200  0.89217000  0.21404400  1
  O  O52  1  0.85405300  0.90951500  0.32243000  1
  O  O53  1  0.75082900  0.54649000  0.90205600  1
  O  O54  1  0.85337400  0.54013400  0.98048200  1
  O  O55  1  0.25082900  0.04649000  0.90205600  1
  O  O56  1  0.35337400  0.04013400  0.98048200  1
  O  O57  1  0.16055200  0.47643100  0.37491500  1
  O  O58  1  0.10276100  0.42551900  0.27108400  1
  O  O59  1  0.66055200  0.97643100  0.37491500  1
  O  O60  1  0.60276100  0.92551900  0.27108400  1
  O  O61  1  0.64840300  0.74877000  0.71908600  1
  O  O62  1  0.62271500  0.68057500  0.67886100  1
  O  O63  1  0.64734200  0.25313100  0.72971600  1
  O  O64  1  0.62354800  0.32176800  0.69281400  1
  O  O65  1  0.14840300  0.24877000  0.71908600  1
  O  O66  1  0.12271500  0.18057500  0.67886100  1
  O  O67  1  0.14734200  0.75313100  0.72971600  1
  O  O68  1  0.12354800  0.82176800  0.69281400  1
