# generated using pymatgen
data_ZnH40C40N7O8
_symmetry_space_group_name_H-M   'P 1'
_cell_length_a   15.05142000
_cell_length_b   13.92169200
_cell_length_c   19.31716100
_cell_angle_alpha   90.00000000
_cell_angle_beta   89.99543700
_cell_angle_gamma   90.00000000
_symmetry_Int_Tables_number   1
_chemical_formula_structural   ZnH40C40N7O8
_chemical_formula_sum   'Zn2 H80 C80 N14 O16'
_cell_volume   4047.74172894
_cell_formula_units_Z   2
loop_
 _symmetry_equiv_pos_site_id
 _symmetry_equiv_pos_as_xyz
  1  'x, y, z'
loop_
 _atom_site_type_symbol
 _atom_site_label
 _atom_site_symmetry_multiplicity
 _atom_site_fract_x
 _atom_site_fract_y
 _atom_site_fract_z
 _atom_site_occupancy
  Zn  Zn1  1  0.50000000  0.62224900  0.50000000  1
  Zn  Zn2  1  0.50000000  0.40340500  0.50000000  1
  H  H1  1  0.48638100  0.66666667  0.27948200  1
  H  H2  1  0.51570300  0.35921100  0.72048500  1
  H  H3  1  0.51361900  0.66666667  0.72051800  1
  H  H4  1  0.48429700  0.35921100  0.27951500  1
  H  H5  1  0.48962200  0.66675500  0.15457800  1
  H  H6  1  0.51255200  0.35902000  0.84544800  1
  H  H7  1  0.51037800  0.66675500  0.84542200  1
  H  H8  1  0.48744800  0.35902000  0.15455200  1
  H  H9  1  0.78245500  0.51187200  0.38449100  1
  H  H10  1  0.21754400  0.51187200  0.61550900  1
  H  H11  1  0.76932700  0.51330100  0.59898200  1
  H  H12  1  0.23067200  0.51330100  0.40101800  1
  H  H13  1  0.59229900  0.77162000  0.42107500  1
  H  H14  1  0.40833200  0.25377100  0.58028300  1
  H  H15  1  0.40770000  0.77162000  0.57892500  1
  H  H16  1  0.59166800  0.25377100  0.41971700  1
  H  H17  1  0.90049600  0.35883700  0.69879700  1
  H  H18  1  0.79531300  0.40982000  0.67627900  1
  H  H19  1  0.88778700  0.42660600  0.81677700  1
  H  H20  1  0.79015400  0.35970900  0.79503400  1
  H  H21  1  0.88687000  0.58411100  0.82033900  1
  H  H22  1  0.78951100  0.65161500  0.79943700  1
  H  H23  1  0.90303200  0.65784600  0.70498200  1
  H  H24  1  0.79738500  0.61114700  0.67938200  1
  H  H25  1  0.09950400  0.35883700  0.30120300  1
  H  H26  1  0.20468700  0.40982000  0.32372100  1
  H  H27  1  0.11221200  0.42660600  0.18322300  1
  H  H28  1  0.20984500  0.35970900  0.20496600  1
  H  H29  1  0.11313000  0.58411100  0.17966100  1
  H  H30  1  0.21048900  0.65161500  0.20056300  1
  H  H31  1  0.09696800  0.65784600  0.29501800  1
  H  H32  1  0.20261500  0.61114700  0.32061800  1
  H  H33  1  0.09598200  0.35764700  0.69075600  1
  H  H34  1  0.02833200  0.41160000  0.75790200  1
  H  H35  1  0.23103600  0.42366000  0.74772100  1
  H  H36  1  0.16672400  0.35379700  0.80767500  1
  H  H37  1  0.22909000  0.58378200  0.75185000  1
  H  H38  1  0.16581800  0.64628300  0.81660000  1
  H  H39  1  0.09081900  0.65600600  0.70206100  1
  H  H40  1  0.02677500  0.58961800  0.76543300  1
  H  H41  1  0.90401700  0.35764700  0.30924400  1
  H  H42  1  0.97166700  0.41160000  0.24209800  1
  H  H43  1  0.76896300  0.42366100  0.25227900  1
  H  H44  1  0.83327500  0.35379700  0.19232500  1
  H  H45  1  0.77091000  0.58378200  0.24815000  1
  H  H46  1  0.83418200  0.64628300  0.18340000  1
  H  H47  1  0.90918100  0.65600600  0.29793900  1
  H  H48  1  0.97322500  0.58961800  0.23456700  1
  H  H49  1  0.26505300  0.86860500  0.54248300  1
  H  H50  1  0.19491700  0.92306400  0.60585200  1
  H  H51  1  0.26336400  0.71817900  0.60127100  1
  H  H52  1  0.15438100  0.76460600  0.61180300  1
  H  H53  1  0.35738200  0.71501200  0.68370600  1
  H  H54  1  0.33228600  0.75792900  0.76797500  1
  H  H55  1  0.43653500  0.86366700  0.69351600  1
  H  H56  1  0.34690600  0.91747400  0.74111800  1
  H  H57  1  0.53419500  0.15482200  0.30376300  1
  H  H58  1  0.60619900  0.07154900  0.25936800  1
  H  H59  1  0.64064800  0.28629000  0.28495600  1
  H  H60  1  0.61464900  0.22905800  0.20433500  1
  H  H61  1  0.76814900  0.25951700  0.33853200  1
  H  H62  1  0.85215500  0.18463400  0.30018400  1
  H  H63  1  0.77860800  0.10094400  0.39738000  1
  H  H64  1  0.75913600  0.04380500  0.31347500  1
  H  H65  1  0.73494700  0.86860500  0.45751700  1
  H  H66  1  0.80508200  0.92306400  0.39414800  1
  H  H67  1  0.73663600  0.71817900  0.39872900  1
  H  H68  1  0.84561800  0.76460600  0.38819700  1
  H  H69  1  0.64261800  0.71501200  0.31629400  1
  H  H70  1  0.66771400  0.75792900  0.23202500  1
  H  H71  1  0.56346500  0.86366700  0.30648400  1
  H  H72  1  0.65309400  0.91747400  0.25888200  1
  H  H73  1  0.46580500  0.15482200  0.69623700  1
  H  H74  1  0.39380000  0.07154900  0.74063200  1
  H  H75  1  0.35935100  0.28629000  0.71504400  1
  H  H76  1  0.38535000  0.22905800  0.79566500  1
  H  H77  1  0.23185100  0.25951700  0.66146800  1
  H  H78  1  0.14784400  0.18463400  0.69981600  1
  H  H79  1  0.22139200  0.10094400  0.60262000  1
  H  H80  1  0.24086400  0.04380500  0.68652500  1
  C  C1  1  0.32656400  0.51282100  0.50861400  1
  C  C2  1  0.67343600  0.51282100  0.49138600  1
  C  C3  1  0.48952400  0.51284300  0.36470000  1
  C  C4  1  0.51047500  0.51284300  0.63530000  1
  C  C5  1  0.48652400  0.59855300  0.25262800  1
  C  C6  1  0.51460500  0.42723800  0.74737200  1
  C  C7  1  0.51347500  0.59855300  0.74737300  1
  C  C8  1  0.48539500  0.42723800  0.25262800  1
  C  C9  1  0.48828000  0.59858200  0.18127100  1
  C  C10  1  0.51288200  0.42719100  0.81873600  1
  C  C11  1  0.51172000  0.59858200  0.81872900  1
  C  C12  1  0.48711800  0.42719100  0.18126400  1
  C  C13  1  0.48951500  0.51287600  0.14508200  1
  C  C14  1  0.51048500  0.51287600  0.85491800  1
  C  C15  1  0.48632600  0.51288500  0.28878300  1
  C  C16  1  0.51367300  0.51288500  0.71121700  1
  C  C17  1  0.50553900  0.51286100  0.93083900  1
  C  C18  1  0.49446100  0.51286100  0.06916100  1
  C  C19  1  0.81893100  0.51189000  0.43260400  1
  C  C20  1  0.18106900  0.51189000  0.56739600  1
  C  C21  1  0.77049600  0.51273900  0.49256400  1
  C  C22  1  0.22950400  0.51273900  0.50743600  1
  C  C23  1  0.81260800  0.51273300  0.55520100  1
  C  C24  1  0.18739200  0.51273300  0.44479900  1
  C  C25  1  0.90470200  0.51190700  0.56021800  1
  C  C26  1  0.09529800  0.51190700  0.43978200  1
  C  C27  1  0.95404700  0.51187600  0.49897300  1
  C  C28  1  0.04595300  0.51187600  0.50102700  1
  C  C29  1  0.91112400  0.51155700  0.43530700  1
  C  C30  1  0.08887600  0.51155700  0.56469300  1
  C  C31  1  0.94812300  0.51075800  0.62470500  1
  C  C32  1  0.05187700  0.51075800  0.37529500  1
  C  C33  1  0.04079400  0.51038600  0.62603700  1
  C  C34  1  0.95920600  0.51038600  0.37396300  1
  C  C35  1  0.55254900  0.81355300  0.45565200  1
  C  C36  1  0.44890500  0.21192300  0.54547100  1
  C  C37  1  0.44745100  0.81355300  0.54434800  1
  C  C38  1  0.55109400  0.21192300  0.45452900  1
  C  C39  1  0.44560800  0.91320300  0.54543800  1
  C  C40  1  0.55191000  0.11210800  0.45342900  1
  C  C41  1  0.55439200  0.91320300  0.45456200  1
  C  C42  1  0.44809000  0.11210800  0.54657100  1
  C  C43  1  0.50000000  0.96304200  0.50000000  1
  C  C44  1  0.50000000  0.06207500  0.50000000  1
  C  C45  1  0.39071800  0.96315600  0.59157200  1
  C  C46  1  0.60537900  0.06353600  0.40649500  1
  C  C47  1  0.60928100  0.96315600  0.40842800  1
  C  C48  1  0.39462100  0.06353600  0.59350500  1
  C  C49  1  0.85592300  0.42109800  0.70723300  1
  C  C50  1  0.82863200  0.42541900  0.78263700  1
  C  C51  1  0.82849400  0.58686700  0.78546900  1
  C  C52  1  0.85715700  0.59604700  0.71047200  1
  C  C53  1  0.14407700  0.42109800  0.29276700  1
  C  C54  1  0.17136700  0.42541900  0.21736300  1
  C  C55  1  0.17150500  0.58686700  0.21453100  1
  C  C56  1  0.14284300  0.59604700  0.28952800  1
  C  C57  1  0.08964100  0.41880300  0.72705200  1
  C  C58  1  0.16751700  0.42085200  0.77675200  1
  C  C59  1  0.16624200  0.58295500  0.78178700  1
  C  C60  1  0.08740200  0.58960200  0.73341200  1
  C  C61  1  0.91035800  0.41880300  0.27294800  1
  C  C62  1  0.83248300  0.42085200  0.22324800  1
  C  C63  1  0.83375700  0.58295500  0.21821300  1
  C  C64  1  0.91259700  0.58960200  0.26658800  1
  C  C65  1  0.25208900  0.87398700  0.59882100  1
  C  C66  1  0.22485100  0.77651400  0.62612100  1
  C  C67  1  0.32284900  0.77309900  0.71210300  1
  C  C68  1  0.36325500  0.87037800  0.69679100  1
  C  C69  1  0.60433600  0.13612700  0.29253900  1
  C  C70  1  0.64834200  0.21899900  0.25485900  1
  C  C71  1  0.77960100  0.19332800  0.30786900  1
  C  C72  1  0.74505400  0.10686100  0.34645800  1
  C  C73  1  0.74791100  0.87398700  0.40117900  1
  C  C74  1  0.77514900  0.77651400  0.37387900  1
  C  C75  1  0.67715100  0.77309900  0.28789700  1
  C  C76  1  0.63674400  0.87037800  0.30320900  1
  C  C77  1  0.39566400  0.13612700  0.70746100  1
  C  C78  1  0.35165800  0.21899900  0.74514100  1
  C  C79  1  0.22039900  0.19332800  0.69213100  1
  C  C80  1  0.25494600  0.10686100  0.65354200  1
  N  N1  1  0.49730900  0.42937100  0.03415300  1
  N  N2  1  0.50268200  0.59634600  0.96584800  1
  N  N3  1  0.50269100  0.42937100  0.96584700  1
  N  N4  1  0.49731800  0.59634600  0.03415200  1
  N  N5  1  0.50000000  0.76602400  0.50000000  1
  N  N6  1  0.50000000  0.25962400  0.50000000  1
  N  N7  1  0.90140800  0.50887900  0.68897400  1
  N  N8  1  0.09859200  0.50887900  0.31102600  1
  N  N9  1  0.08917200  0.50717900  0.68911700  1
  N  N10  1  0.91082800  0.50717900  0.31088300  1
  N  N11  1  0.32882700  0.91372700  0.63411700  1
  N  N12  1  0.65120300  0.11908100  0.35608400  1
  N  N13  1  0.67117300  0.91372700  0.36588300  1
  N  N14  1  0.34879700  0.11908100  0.64391600  1
  O  O1  1  0.36783500  0.59582800  0.50619000  1
  O  O2  1  0.63215600  0.42982400  0.49375700  1
  O  O3  1  0.63216500  0.59582800  0.49381000  1
  O  O4  1  0.36784300  0.42982400  0.50624300  1
  O  O5  1  0.49208200  0.59577400  0.39704900  1
  O  O6  1  0.50798100  0.42989000  0.60295100  1
  O  O7  1  0.50791800  0.59577400  0.60295100  1
  O  O8  1  0.49201800  0.42989000  0.39704900  1
  O  O9  1  0.77467400  0.50573500  0.79421500  1
  O  O10  1  0.22532500  0.50573500  0.20578500  1
  O  O11  1  0.16012300  0.49932600  0.82194600  1
  O  O12  1  0.83987700  0.49932600  0.17805400  1
  O  O13  1  0.23209800  0.77425300  0.69800800  1
  O  O14  1  0.73834300  0.19916000  0.24298900  1
  O  O15  1  0.76790200  0.77425300  0.30199200  1
  O  O16  1  0.26165700  0.19916000  0.75701100  1
