# generated using pymatgen
data_ZnH6C18I2NO4
_symmetry_space_group_name_H-M   'P 1'
_cell_length_a   13.38313500
_cell_length_b   6.72772700
_cell_length_c   13.35284800
_cell_angle_alpha   90.00000000
_cell_angle_beta   90.00000000
_cell_angle_gamma   90.00000000
_symmetry_Int_Tables_number   1
_chemical_formula_structural   ZnH6C18I2NO4
_chemical_formula_sum   'Zn2 H12 C36 I4 N2 O8'
_cell_volume   1202.26477888
_cell_formula_units_Z   2
loop_
 _symmetry_equiv_pos_site_id
 _symmetry_equiv_pos_as_xyz
  1  'x, y, z'
loop_
 _atom_site_type_symbol
 _atom_site_label
 _atom_site_symmetry_multiplicity
 _atom_site_fract_x
 _atom_site_fract_y
 _atom_site_fract_z
 _atom_site_occupancy
  Zn  Zn1  1  0.49755100  0.36540900  0.88779600  1
  Zn  Zn2  1  0.50244900  0.36540900  0.11220400  1
  H  H1  1  0.81221400  0.51531400  0.93665200  1
  H  H2  1  0.18778600  0.51531400  0.06334800  1
  H  H3  1  0.97126600  0.69518400  0.93366300  1
  H  H4  1  0.02873500  0.69518400  0.06633600  1
  H  H5  1  0.75491000  0.34378000  0.04101900  1
  H  H6  1  0.24509100  0.34378000  0.95898100  1
  H  H7  1  0.91668000  0.51823300  0.03901100  1
  H  H8  1  0.08332000  0.51823300  0.96098900  1
  H  H9  1  0.74941300  0.36510800  0.41130500  1
  H  H10  1  0.74666500  0.36511300  0.59576300  1
  H  H11  1  0.25333600  0.36510700  0.40423700  1
  H  H12  1  0.25058700  0.36510300  0.58869500  1
  C  C1  1  0.72834600  0.76256500  0.98969400  1
  C  C2  1  0.27165400  0.76256500  0.01030600  1
  C  C3  1  0.81503800  0.66883300  0.96036200  1
  C  C4  1  0.18496200  0.66883300  0.03963800  1
  C  C5  1  0.90502900  0.76823500  0.96104400  1
  C  C6  1  0.09497100  0.76823500  0.03895600  1
  C  C7  1  0.72959700  0.96824500  0.99984200  1
  C  C8  1  0.27040300  0.96824500  0.00015800  1
  C  C9  1  0.82079000  0.06402800  0.00598400  1
  C  C10  1  0.17921000  0.06402800  0.99401500  1
  C  C11  1  0.90922100  0.96135600  0.99344900  1
  C  C12  1  0.09078000  0.96135600  0.00655000  1
  C  C13  1  0.00000000  0.05981400  0.00000000  1
  C  C14  1  0.82334300  0.26461800  0.02476100  1
  C  C15  1  0.17665800  0.26461800  0.97523800  1
  C  C16  1  0.91305500  0.36394600  0.02014100  1
  C  C17  1  0.08694500  0.36394600  0.97985900  1
  C  C18  1  0.00000000  0.26283800  0.00000000  1
  C  C19  1  0.63858600  0.63871600  0.99668200  1
  C  C20  1  0.36141400  0.63871600  0.00331700  1
  C  C21  1  0.63950100  0.09308700  0.99926200  1
  C  C22  1  0.36049900  0.09308700  0.00073800  1
  C  C23  1  0.41545600  0.36524500  0.29239400  1
  C  C24  1  0.40940000  0.36523800  0.70538300  1
  C  C25  1  0.59060000  0.36524000  0.29461700  1
  C  C26  1  0.58454400  0.36524700  0.70760600  1
  C  C27  1  0.59029600  0.36516600  0.39795700  1
  C  C28  1  0.58722300  0.36516900  0.60442500  1
  C  C29  1  0.41277700  0.36516700  0.39557500  1
  C  C30  1  0.40970400  0.36516400  0.60204200  1
  C  C31  1  0.50077500  0.36516700  0.44851000  1
  C  C32  1  0.49922500  0.36516700  0.55148900  1
  C  C33  1  0.67890000  0.36511700  0.45079300  1
  C  C34  1  0.67735000  0.36512000  0.55419700  1
  C  C35  1  0.32265000  0.36511600  0.44580200  1
  C  C36  1  0.32110000  0.36511300  0.54920700  1
  I  I1  1  0.28112300  0.36524900  0.21053700  1
  I  I2  1  0.27291700  0.36523100  0.78358800  1
  I  I3  1  0.72708300  0.36523600  0.21641100  1
  I  I4  1  0.71887800  0.36525400  0.78946300  1
  N  N1  1  0.50366500  0.36541600  0.24370500  1
  N  N2  1  0.49633500  0.36541600  0.75629400  1
  O  O1  1  0.60849900  0.57140900  0.08479000  1
  O  O2  1  0.60397800  0.57030700  0.91220500  1
  O  O3  1  0.39602200  0.57030700  0.08779400  1
  O  O4  1  0.39150100  0.57140900  0.91521000  1
  O  O5  1  0.60441600  0.15984500  0.91302100  1
  O  O6  1  0.60889900  0.16115500  0.08550300  1
  O  O7  1  0.39110100  0.16115500  0.91449700  1
  O  O8  1  0.39558400  0.15984500  0.08697800  1
