# generated using pymatgen
data_VH2(C4O3)2
_symmetry_space_group_name_H-M   'P 1'
_cell_length_a   17.18770000
_cell_length_b   6.81800000
_cell_length_c   14.63559500
_cell_angle_alpha   90.00000000
_cell_angle_beta   95.95640100
_cell_angle_gamma   90.00000000
_symmetry_Int_Tables_number   1
_chemical_formula_structural   VH2(C4O3)2
_chemical_formula_sum   'V4 H8 C32 O24'
_cell_volume   1705.82353051
_cell_formula_units_Z   4
loop_
 _symmetry_equiv_pos_site_id
 _symmetry_equiv_pos_as_xyz
  1  'x, y, z'
loop_
 _atom_site_type_symbol
 _atom_site_label
 _atom_site_symmetry_multiplicity
 _atom_site_fract_x
 _atom_site_fract_y
 _atom_site_fract_z
 _atom_site_occupancy
  V  V1  1  0.75011000  0.82255600  0.23488600  1
  V  V2  1  0.24990100  0.17751700  0.76535500  1
  V  V3  1  0.74989000  0.32255600  0.26511400  1
  V  V4  1  0.25009900  0.67751700  0.73464500  1
  H  H1  1  0.05244000  0.27826300  0.59311500  1
  H  H2  1  0.94597800  0.72061800  0.40946100  1
  H  H3  1  0.44756000  0.77826300  0.90688500  1
  H  H4  1  0.55402200  0.22061800  0.09053900  1
  H  H5  1  0.89676100  0.43156900  0.41921600  1
  H  H6  1  0.05142100  0.51153100  0.47060500  1
  H  H7  1  0.60323900  0.93156900  0.08078400  1
  H  H8  1  0.44857900  0.01153000  0.02939600  1
  C  C1  1  0.85562700  0.53892600  0.14479900  1
  C  C2  1  0.14499600  0.46136400  0.85599800  1
  C  C3  1  0.64437300  0.03892600  0.35520100  1
  C  C4  1  0.35500400  0.96136300  0.64400200  1
  C  C5  1  0.63449700  0.54162400  0.13335900  1
  C  C6  1  0.36620500  0.45838500  0.86555400  1
  C  C7  1  0.86550300  0.04162400  0.36664100  1
  C  C8  1  0.13379500  0.95838600  0.63444700  1
  C  C9  1  0.96544500  0.18364700  0.48805100  1
  C  C10  1  0.03283400  0.81590700  0.51470400  1
  C  C11  1  0.53455500  0.68364600  0.01195000  1
  C  C12  1  0.46716600  0.31590700  0.98529700  1
  C  C13  1  0.02900800  0.15505200  0.55288100  1
  C  C14  1  0.96963400  0.84445100  0.44928700  1
  C  C15  1  0.47099200  0.65505200  0.94712000  1
  C  C16  1  0.53036600  0.34445100  0.05071300  1
  C  C17  1  0.06394200  0.97383500  0.56668500  1
  C  C18  1  0.93473700  0.02597100  0.43534800  1
  C  C19  1  0.43605800  0.47383500  0.93331600  1
  C  C20  1  0.56526300  0.52597000  0.06465200  1
  C  C21  1  0.41700800  0.97994100  0.58162300  1
  C  C22  1  0.58218200  0.02074100  0.41734900  1
  C  C23  1  0.08299200  0.47994100  0.91837700  1
  C  C24  1  0.91781800  0.52074100  0.08265100  1
  C  C25  1  0.46887300  0.99310100  0.52991600  1
  C  C26  1  0.53024200  0.00772600  0.46896300  1
  C  C27  1  0.03112700  0.49310100  0.97008500  1
  C  C28  1  0.96975800  0.50772600  0.03103700  1
  C  C29  1  0.93394900  0.38355800  0.47885200  1
  C  C30  1  0.06337500  0.61562200  0.52630300  1
  C  C31  1  0.56605100  0.88355800  0.02114800  1
  C  C32  1  0.43662500  0.11562300  0.97369700  1
  O  O1  1  0.66079400  0.37276900  0.17177700  1
  O  O2  1  0.33966200  0.62722100  0.82733600  1
  O  O3  1  0.83920600  0.87276900  0.32822400  1
  O  O4  1  0.16033800  0.12722200  0.67266400  1
  O  O5  1  0.82573600  0.71892600  0.15333300  1
  O  O6  1  0.17478100  0.28127300  0.84750400  1
  O  O7  1  0.67426400  0.21892600  0.34666700  1
  O  O8  1  0.32521900  0.78127300  0.65249600  1
  O  O9  1  0.66666667  0.71865100  0.14473000  1
  O  O10  1  0.33383900  0.28150200  0.85489100  1
  O  O11  1  0.83337100  0.21865100  0.35527000  1
  O  O12  1  0.16616100  0.78150200  0.64510900  1
  O  O13  1  0.66927800  0.87197100  0.31892400  1
  O  O14  1  0.33020700  0.12803600  0.68064300  1
  O  O15  1  0.83072200  0.37197100  0.18107700  1
  O  O16  1  0.16979200  0.62803700  0.81935700  1
  O  O17  1  0.75228100  0.55291500  0.30528300  1
  O  O18  1  0.24749100  0.44721100  0.69440500  1
  O  O19  1  0.74771900  0.05291500  0.19471800  1
  O  O20  1  0.25250900  0.94721000  0.80559600  1
  O  O21  1  0.95344800  0.50339900  0.53869400  1
  O  O22  1  0.09429300  0.55855800  0.60012000  1
  O  O23  1  0.54655300  0.00339900  0.96130700  1
  O  O24  1  0.40570700  0.05855800  0.89988000  1
