# generated using pymatgen
data_CuH13C29(NO2)3
_symmetry_space_group_name_H-M   'P 1'
_cell_length_a   12.19602200
_cell_length_b   13.42453300
_cell_length_c   23.34635200
_cell_angle_alpha   78.52491600
_cell_angle_beta   102.50502100
_cell_angle_gamma   116.36305200
_symmetry_Int_Tables_number   1
_chemical_formula_structural   CuH13C29(NO2)3
_chemical_formula_sum   'Cu2 H26 C58 N6 O12'
_cell_volume   3320.45205122
_cell_formula_units_Z   2
loop_
 _symmetry_equiv_pos_site_id
 _symmetry_equiv_pos_as_xyz
  1  'x, y, z'
loop_
 _atom_site_type_symbol
 _atom_site_label
 _atom_site_symmetry_multiplicity
 _atom_site_fract_x
 _atom_site_fract_y
 _atom_site_fract_z
 _atom_site_occupancy
  Cu  Cu1  1  0.09810300  0.47850700  0.51375700  1
  Cu  Cu2  1  0.90321900  0.52918400  0.49107500  1
  H  H1  1  0.69597400  0.33832200  0.03232800  1
  H  H2  1  0.70710300  0.33811000  0.93033500  1
  H  H3  1  0.31400500  0.65467300  0.97546800  1
  H  H4  1  0.30240800  0.65688700  0.07711600  1
  H  H5  1  0.92633800  0.60830600  0.77212600  1
  H  H6  1  0.12479900  0.41423800  0.70369700  1
  H  H7  1  0.12654800  0.40621100  0.80910800  1
  H  H8  1  0.11215200  0.42081900  0.24034100  1
  H  H9  1  0.11216800  0.42072500  0.34399600  1
  H  H10  1  0.85093000  0.56633500  0.29794400  1
  H  H11  1  0.85414100  0.56841500  0.19348300  1
  H  H12  1  0.08919900  0.88066100  0.42851900  1
  H  H13  1  0.22965900  0.06954000  0.40222500  1
  H  H14  1  0.38260000  0.80551500  0.52668100  1
  H  H15  1  0.91352400  0.13375200  0.57611600  1
  H  H16  1  0.56479500  0.86482000  0.56365300  1
  H  H17  1  0.77867300  0.93836400  0.59966000  1
  H  H18  1  0.65791000  0.27491700  0.43111500  1
  H  H19  1  0.17370400  0.32311200  0.60289500  1
  H  H20  1  0.55584400  0.31924600  0.61944800  1
  H  H21  1  0.35631200  0.28431300  0.63201700  1
  H  H22  1  0.33105800  0.56010900  0.46465900  1
  H  H23  1  0.83405600  0.68029100  0.40265400  1
  H  H24  1  0.47986500  0.63981900  0.41788600  1
  H  H25  1  0.65799800  0.72748900  0.36896700  1
  H  H26  1  0.72945300  0.41357400  0.57063100  1
  C  C1  1  0.85528600  0.29345900  0.51267100  1
  C  C2  1  0.01687100  0.51336700  0.61330400  1
  C  C3  1  0.14563000  0.71355300  0.48944300  1
  C  C4  1  0.98636900  0.49673000  0.39162900  1
  C  C5  1  0.09840400  0.55515100  0.12825300  1
  C  C6  1  0.88530800  0.44181200  0.11281000  1
  C  C7  1  0.89018300  0.44093200  0.05422000  1
  C  C8  1  0.00163700  0.49718000  0.03295900  1
  C  C9  1  0.10645600  0.55461100  0.07012700  1
  C  C10  1  0.78468700  0.38335300  0.01687900  1
  C  C11  1  0.79105800  0.38315100  0.95866700  1
  C  C12  1  0.90309900  0.43991800  0.93742300  1
  C  C13  1  0.00822400  0.49625300  0.97478400  1
  C  C14  1  0.11980100  0.55227100  0.95357300  1
  C  C15  1  0.22528000  0.60976900  0.99091500  1
  C  C16  1  0.21858100  0.61115300  0.04891900  1
  C  C17  1  0.91073400  0.44178600  0.87893100  1
  C  C18  1  0.12452900  0.55180200  0.89491600  1
  C  C19  1  0.96929600  0.56512100  0.75691800  1
  C  C20  1  0.96898600  0.57188200  0.69726800  1
  C  C21  1  0.02322500  0.51588600  0.67693800  1
  C  C22  1  0.08170700  0.45833200  0.71793900  1
  C  C23  1  0.08260800  0.45322900  0.77772900  1
  C  C24  1  0.02444200  0.50513600  0.79725100  1
  C  C25  1  0.05512900  0.45351700  0.25273200  1
  C  C26  1  0.05455300  0.45328700  0.31162700  1
  C  C27  1  0.98163200  0.49385400  0.32860400  1
  C  C28  1  0.90813700  0.53362300  0.28576800  1
  C  C29  1  0.90969300  0.53466000  0.22661100  1
  C  C30  1  0.98397900  0.49530000  0.20985400  1
  C  C31  1  0.26791000  0.01491100  0.43029700  1
  C  C32  1  0.22994200  0.83219600  0.47909300  1
  C  C33  1  0.81764800  0.10255800  0.55608800  1
  C  C34  1  0.74148300  0.99244600  0.57000500  1
  C  C35  1  0.61735400  0.95104400  0.54853900  1
  C  C36  1  0.56656300  0.01852900  0.50996100  1
  C  C37  1  0.64577000  0.12963800  0.49401900  1
  C  C38  1  0.43912400  0.97837800  0.48721200  1
  C  C39  1  0.39395200  0.05052900  0.44985700  1
  C  C40  1  0.47534500  0.15710200  0.43074600  1
  C  C41  1  0.59932200  0.19430400  0.45117500  1
  C  C42  1  0.35487000  0.86771600  0.50023200  1
  C  C43  1  0.18637900  0.90698300  0.44558100  1
  C  C44  1  0.77098800  0.17314000  0.51952400  1
  C  C45  1  0.35281500  0.34487200  0.59427400  1
  C  C46  1  0.75561400  0.63990700  0.42641400  1
  C  C47  1  0.65638500  0.66666667  0.40720900  1
  C  C48  1  0.55443500  0.61545400  0.43581400  1
  C  C49  1  0.55141100  0.53629800  0.48466100  1
  C  C50  1  0.65507500  0.51228300  0.50328700  1
  C  C51  1  0.44805900  0.47996700  0.51530800  1
  C  C52  1  0.45118700  0.40141200  0.56321800  1
  C  C53  1  0.55319500  0.37958500  0.58147000  1
  C  C54  1  0.65354200  0.43449600  0.55244000  1
  C  C55  1  0.34111400  0.49918900  0.50038100  1
  C  C56  1  0.25013100  0.36636900  0.57787000  1
  C  C57  1  0.43433400  0.23120300  0.38800400  1
  C  C58  1  0.91481200  0.64097500  0.65850100  1
  N  N1  1  0.98884900  0.49851300  0.14885600  1
  N  N2  1  0.02047900  0.49747000  0.85863700  1
  N  N3  1  0.24483600  0.44108100  0.53095700  1
  N  N4  1  0.75606000  0.56512300  0.47424700  1
  N  N5  1  0.40163800  0.29106600  0.35359700  1
  N  N6  1  0.87122400  0.69684000  0.62755100  1
  O  O1  1  0.97476300  0.32312200  0.51875300  1
  O  O2  1  0.80934900  0.36722600  0.50460000  1
  O  O3  1  0.09185700  0.48275200  0.59616700  1
  O  O4  1  0.93279700  0.53713600  0.57596000  1
  O  O5  1  0.19339700  0.64037200  0.50121800  1
  O  O6  1  0.02619600  0.68457500  0.48406700  1
  O  O7  1  0.07158000  0.47391300  0.42866200  1
  O  O8  1  0.90744500  0.52262600  0.40871800  1
  O  O9  1  0.19992200  0.61390300  0.16423400  1
  O  O10  1  0.77770100  0.38340400  0.13438600  1
  O  O11  1  0.80852900  0.38762000  0.84197100  1
  O  O12  1  0.23229700  0.60851700  0.87336400  1
