# generated using pymatgen
data_Fe2H47C84N5O18
_symmetry_space_group_name_H-M   'P 1'
_cell_length_a   14.17687000
_cell_length_b   16.88421300
_cell_length_c   21.17293300
_cell_angle_alpha   92.75104900
_cell_angle_beta   90.08907300
_cell_angle_gamma   67.69313500
_symmetry_Int_Tables_number   1
_chemical_formula_structural   Fe2H47C84N5O18
_chemical_formula_sum   'Fe2 H47 C84 N5 O18'
_cell_volume   4682.62756117
_cell_formula_units_Z   1
loop_
 _symmetry_equiv_pos_site_id
 _symmetry_equiv_pos_as_xyz
  1  'x, y, z'
loop_
 _atom_site_type_symbol
 _atom_site_label
 _atom_site_symmetry_multiplicity
 _atom_site_fract_x
 _atom_site_fract_y
 _atom_site_fract_z
 _atom_site_occupancy
  Fe  Fe1  1  0.54413000  0.00978300  0.14081900  1
  Fe  Fe2  1  0.54535900  0.04849200  0.87357100  1
  H  H1  1  0.89598400  0.01272500  0.13172800  1
  H  H2  1  0.86637400  0.03325800  0.90192700  1
  H  H3  1  0.01975700  0.05657500  0.89600800  1
  H  H4  1  0.17573500  0.07372600  0.88788200  1
  H  H5  1  0.21915900  0.05890000  0.11716600  1
  H  H6  1  0.11222300  0.91497900  0.16367100  1
  H  H7  1  0.03163700  0.13884100  0.28678700  1
  H  H8  1  0.99642000  0.18724200  0.16840600  1
  H  H9  1  0.25408800  0.37143200  0.46667200  1
  H  H10  1  0.54076200  0.46626500  0.73620500  1
  H  H11  1  0.59193000  0.59826600  0.72566500  1
  H  H12  1  0.43528200  0.84978800  0.55955200  1
  H  H13  1  0.41084800  0.84298600  0.43505500  1
  H  H14  1  0.49868800  0.57444700  0.26330700  1
  H  H15  1  0.45387900  0.43945800  0.27336700  1
  H  H16  1  0.27125400  0.38276200  0.59143700  1
  H  H17  1  0.53167800  0.58831900  0.49596100  1
  H  H18  1  0.48574700  0.46654600  0.50679000  1
  H  H19  1  0.24756500  0.38051900  0.34845100  1
  H  H20  1  0.59436600  0.18442400  0.28441600  1
  H  H21  1  0.57004300  0.30293700  0.36102700  1
  H  H22  1  0.34364100  0.47880900  0.74774000  1
  H  H23  1  0.36098600  0.37573500  0.82840100  1
  H  H24  1  0.52976300  0.17167700  0.69551600  1
  H  H25  1  0.51398700  0.27499000  0.61652600  1
  H  H26  1  0.34984600  0.73815400  0.28390000  1
  H  H27  1  0.38603700  0.81205400  0.19670100  1
  H  H28  1  0.63452900  0.70639200  0.36566500  1
  H  H29  1  0.42366100  0.75133500  0.72209400  1
  H  H30  1  0.70369600  0.84395500  0.67335900  1
  H  H31  1  0.66426400  0.74567100  0.59891400  1
  H  H32  1  0.27111100  0.25882500  0.27369600  1
  H  H33  1  0.46504800  0.84479800  0.79729400  1
  H  H34  1  0.79245600  0.67771900  0.31645900  1
  H  H35  1  0.75320400  0.78118600  0.35948600  1
  H  H36  1  0.95830600  0.62547800  0.27972700  1
  H  H37  1  0.10422800  0.64682300  0.23312100  1
  H  H38  1  0.09315400  0.79179900  0.21213100  1
  H  H39  1  0.93539300  0.91643000  0.23876900  1
  H  H40  1  0.78899700  0.89584000  0.28600200  1
  H  H41  1  0.02165800  0.03114000  0.36249700  1
  H  H42  1  0.15200800  0.02461800  0.35749600  1
  H  H43  1  0.16632800  0.81314000  0.32584800  1
  H  H44  1  0.21354400  0.70253000  0.40231100  1
  H  H45  1  0.20898000  0.74054000  0.51607900  1
  H  H46  1  0.15580200  0.89166800  0.55319800  1
  H  H47  1  0.10705600  0.00455100  0.47670400  1
  C  C1  1  0.89115700  0.01588600  0.08108200  1
  C  C2  1  0.80852800  0.00572400  0.05173100  1
  C  C3  1  0.80020900  0.01168500  0.98627300  1
  C  C4  1  0.87330500  0.02827700  0.95256200  1
  C  C5  1  0.95539700  0.03756400  0.98216800  1
  C  C6  1  0.96473700  0.03214200  0.04673700  1
  C  C7  1  0.02753400  0.05299100  0.94669500  1
  C  C8  1  0.11080600  0.06160300  0.97522800  1
  C  C9  1  0.12067000  0.05748800  0.03979000  1
  C  C10  1  0.04633800  0.04474900  0.07614600  1
  C  C11  1  0.18517800  0.07227600  0.93848700  1
  C  C12  1  0.27287700  0.07605400  0.96510900  1
  C  C13  1  0.28230200  0.07279900  0.03062200  1
  C  C14  1  0.20667500  0.06368700  0.06697200  1
  C  C15  1  0.08159100  0.00816500  0.24094100  1
  C  C16  1  0.04427100  0.09675200  0.24484200  1
  C  C17  1  0.02569400  0.12219100  0.18352900  1
  C  C18  1  0.05227700  0.04814800  0.14525600  1
  C  C19  1  0.72906400  0.99638000  0.09250700  1
  C  C20  1  0.54774400  0.85245700  0.18154300  1
  C  C21  1  0.37429900  0.06898400  0.06381700  1
  C  C22  1  0.45015300  0.14511500  0.22616000  1
  C  C23  1  0.60541800  0.91281600  0.78429400  1
  C  C24  1  0.71425000  0.00545100  0.95074900  1
  C  C25  1  0.46575300  0.20419400  0.81651400  1
  C  C26  1  0.35611700  0.07375600  0.92199900  1
  C  C27  1  0.52163300  0.50791100  0.69701600  1
  C  C28  1  0.54856300  0.57716800  0.69149300  1
  C  C29  1  0.51182200  0.61113800  0.63416400  1
  C  C30  1  0.46934800  0.50251000  0.64290900  1
  C  C31  1  0.51762600  0.68216800  0.61238700  1
  C  C32  1  0.48666200  0.70886000  0.54781700  1
  C  C33  1  0.45008900  0.79250800  0.52960800  1
  C  C34  1  0.43749700  0.78904400  0.46503500  1
  C  C35  1  0.46645700  0.70351500  0.44647000  1
  C  C36  1  0.47113900  0.67016000  0.38050900  1
  C  C37  1  0.45723700  0.59765100  0.36572100  1
  C  C38  1  0.47229800  0.55681700  0.30627000  1
  C  C39  1  0.45014900  0.48519300  0.31173500  1
  C  C40  1  0.42299900  0.48499000  0.37434100  1
  C  C41  1  0.39644100  0.42507600  0.39899300  1
  C  C42  1  0.37131500  0.42807500  0.46646400  1
  C  C43  1  0.30303900  0.39737700  0.49194600  1
  C  C44  1  0.31177800  0.40334500  0.55671100  1
  C  C45  1  0.38541200  0.43696000  0.56799600  1
  C  C46  1  0.42792100  0.44459600  0.63021100  1
  C  C47  1  0.32360800  0.33591200  0.33562800  1
  C  C48  1  0.33704300  0.26773600  0.29327800  1
  C  C49  1  0.43424600  0.21436500  0.27359800  1
  C  C50  1  0.51782800  0.22651200  0.29861800  1
  C  C51  1  0.50436600  0.29272700  0.34225200  1
  C  C52  1  0.40749000  0.34873700  0.35958600  1
  C  C53  1  0.38439500  0.41117600  0.73640100  1
  C  C54  1  0.39403100  0.35291900  0.78184100  1
  C  C55  1  0.44763900  0.26662200  0.76793100  1
  C  C56  1  0.48807200  0.23887700  0.70776900  1
  C  C57  1  0.47897300  0.29713200  0.66272800  1
  C  C58  1  0.42970000  0.38346200  0.67738000  1
  C  C59  1  0.42119500  0.74732900  0.28240500  1
  C  C60  1  0.44232600  0.78778300  0.23278400  1
  C  C61  1  0.53272800  0.80041800  0.23062300  1
  C  C62  1  0.60350500  0.77113600  0.27770400  1
  C  C63  1  0.58156300  0.73065900  0.32794300  1
  C  C64  1  0.49105000  0.71805500  0.32975800  1
  C  C65  1  0.48699500  0.76972700  0.71180900  1
  C  C66  1  0.51081900  0.82261800  0.75450200  1
  C  C67  1  0.58892400  0.84939100  0.74124500  1
  C  C68  1  0.64339500  0.82240100  0.68487500  1
  C  C69  1  0.62084000  0.76750100  0.64263000  1
  C  C70  1  0.54318600  0.74034700  0.65641400  1
  C  C71  1  0.77364800  0.74723400  0.31230300  1
  C  C72  1  0.86407400  0.75955000  0.28602900  1
  C  C73  1  0.95272300  0.68971100  0.27123500  1
  C  C74  1  0.03495000  0.70148200  0.24483800  1
  C  C75  1  0.02866200  0.78283700  0.23298500  1
  C  C76  1  0.94043900  0.85260600  0.24804700  1
  C  C77  1  0.85825700  0.84100300  0.27464400  1
  C  C78  1  0.10171400  0.98814300  0.35126700  1
  C  C79  1  0.13295100  0.91734300  0.39614900  1
  C  C80  1  0.16315600  0.83211700  0.37543400  1
  C  C81  1  0.19009400  0.76897300  0.41861100  1
  C  C82  1  0.18744500  0.79024300  0.48240100  1
  C  C83  1  0.15777800  0.87489500  0.50316300  1
  C  C84  1  0.13054200  0.93820400  0.46013800  1
  N  N1  1  0.08655500  0.97887000  0.18036300  1
  N  N2  1  0.46417900  0.56510500  0.60426200  1
  N  N3  1  0.49744000  0.65492000  0.49691500  1
  N  N4  1  0.42646000  0.55404500  0.40727000  1
  N  N5  1  0.42213400  0.45092200  0.51289700  1
  O  O1  1  0.63715100  0.01075400  0.07158600  1
  O  O2  1  0.51117800  0.84843500  0.12513600  1
  O  O3  1  0.74705800  0.98163500  0.15250500  1
  O  O4  1  0.57872800  0.91435400  0.19859700  1
  O  O5  1  0.41800400  0.00522400  0.10051200  1
  O  O6  1  0.40787000  0.13136400  0.06145100  1
  O  O7  1  0.53629200  0.11388300  0.19372200  1
  O  O8  1  0.38077200  0.11198400  0.21757700  1
  O  O9  1  0.55631800  0.93257900  0.83889900  1
  O  O10  1  0.65451400  0.95924100  0.76451800  1
  O  O11  1  0.66777200  0.06428500  0.91072200  1
  O  O12  1  0.68579200  0.94069700  0.95690400  1
  O  O13  1  0.34427000  0.06916100  0.86063300  1
  O  O14  1  0.51848700  0.12330000  0.80109400  1
  O  O15  1  0.44499100  0.06894500  0.94344500  1
  O  O16  1  0.43555600  0.22877200  0.87529500  1
  O  O17  1  0.69381300  0.77992900  0.27193200  1
  O  O18  1  0.10897400  0.95631100  0.28981400  1
