# generated using pymatgen
data_Fe2H24C43O16
_symmetry_space_group_name_H-M   'P 1'
_cell_length_a   15.37363300
_cell_length_b   17.01629500
_cell_length_c   11.82029800
_cell_angle_alpha   71.77430800
_cell_angle_beta   101.17138000
_cell_angle_gamma   109.27446700
_symmetry_Int_Tables_number   1
_chemical_formula_structural   Fe2H24C43O16
_chemical_formula_sum   'Fe2 H24 C43 O16'
_cell_volume   2758.29619472
_cell_formula_units_Z   1
loop_
 _symmetry_equiv_pos_site_id
 _symmetry_equiv_pos_as_xyz
  1  'x, y, z'
loop_
 _atom_site_type_symbol
 _atom_site_label
 _atom_site_symmetry_multiplicity
 _atom_site_fract_x
 _atom_site_fract_y
 _atom_site_fract_z
 _atom_site_occupancy
  Fe  Fe1  1  0.50069400  0.99411100  0.75097900  1
  Fe  Fe2  1  0.49939400  0.99183500  0.25566000  1
  H  H1  1  0.78803300  0.01529400  0.27651700  1
  H  H2  1  0.82977400  0.96915700  0.90425100  1
  H  H3  1  0.02182800  0.95040600  0.13212400  1
  H  H4  1  0.97899300  0.03998300  0.86868100  1
  H  H5  1  0.06381300  0.99350400  0.75399100  1
  H  H6  1  0.21378500  0.99030200  0.71942100  1
  H  H7  1  0.17112300  0.01374800  0.10699100  1
  H  H8  1  0.50285500  0.72370200  0.41438800  1
  H  H9  1  0.48201800  0.55668100  0.76905900  1
  H  H10  1  0.48124300  0.67388000  0.84117000  1
  H  H11  1  0.51617700  0.42848600  0.23750300  1
  H  H12  1  0.51698300  0.31116000  0.16564100  1
  H  H13  1  0.49620200  0.26190700  0.59250600  1
  H  H14  1  0.39163100  0.46350100  0.65036100  1
  H  H15  1  0.39825700  0.34621000  0.58105300  1
  H  H16  1  0.60681900  0.52189800  0.35612900  1
  H  H17  1  0.60026600  0.63918700  0.42550600  1
  H  H18  1  0.03341700  0.04305000  0.23539700  1
  H  H19  1  0.91830000  0.10428300  0.35283200  1
  H  H20  1  0.96499600  0.16487400  0.21085800  1
  H  H21  1  0.04108600  0.13740800  0.34406500  1
  H  H22  1  0.89404000  0.94792400  0.42260800  1
  H  H23  1  0.01859000  0.97208500  0.44546800  1
  H  H24  1  0.95186700  0.89729400  0.35899400  1
  C  C1  1  0.79906000  0.00808500  0.19332900  1
  C  C2  1  0.88607400  0.01062300  0.17462600  1
  C  C3  1  0.89660600  0.99401200  0.07061200  1
  C  C4  1  0.82158600  0.98214000  0.98461500  1
  C  C5  1  0.73545400  0.98356200  0.00144400  1
  C  C6  1  0.72374900  0.99266000  0.10998200  1
  C  C7  1  0.98439400  0.98309400  0.05449200  1
  C  C8  1  0.01762100  0.01026900  0.94794800  1
  C  C9  1  0.11985700  0.99570100  0.82512900  1
  C  C10  1  0.20423900  0.99306200  0.80617600  1
  C  C11  1  0.27797800  0.99918200  0.89388000  1
  C  C12  1  0.26563100  0.00398100  0.00514900  1
  C  C13  1  0.18000200  0.00609400  0.02318100  1
  C  C14  1  0.10710600  0.00229000  0.93348900  1
  C  C15  1  0.48514700  0.12002700  0.54551200  1
  C  C16  1  0.36830500  0.00816100  0.86056400  1
  C  C17  1  0.66121900  0.97952300  0.90111400  1
  C  C18  1  0.49427900  0.83761800  0.72058100  1
  C  C19  1  0.50453100  0.14756400  0.28673900  1
  C  C20  1  0.33884800  0.00409300  0.10672900  1
  C  C21  1  0.63316200  0.98104900  0.14491200  1
  C  C22  1  0.51431700  0.86559400  0.46161100  1
  C  C23  1  0.50114500  0.78111800  0.54931200  1
  C  C24  1  0.49850700  0.71253000  0.50853800  1
  C  C25  1  0.49215100  0.63146100  0.58616200  1
  C  C26  1  0.48546200  0.61889200  0.70563700  1
  C  C27  1  0.48629300  0.68644800  0.74691800  1
  C  C28  1  0.49473900  0.76843000  0.67025600  1
  C  C29  1  0.44009300  0.47697700  0.58684800  1
  C  C30  1  0.44404300  0.41008600  0.54751400  1
  C  C31  1  0.50328600  0.42520600  0.46365800  1
  C  C32  1  0.55837100  0.50843700  0.41965500  1
  C  C33  1  0.55444500  0.57532600  0.45901800  1
  C  C34  1  0.49520800  0.56020800  0.54288900  1
  C  C35  1  0.51293800  0.36635300  0.30104100  1
  C  C36  1  0.51215900  0.29873300  0.25992400  1
  C  C37  1  0.50398800  0.21685100  0.33679800  1
  C  C38  1  0.49791800  0.20437600  0.45772500  1
  C  C39  1  0.50037500  0.27297300  0.49833500  1
  C  C40  1  0.50642800  0.35392800  0.42052800  1
  C  C41  1  0.96624600  0.03154100  0.26737700  1
  C  C42  1  0.97235700  0.11461800  0.29551100  1
  C  C43  1  0.95672700  0.95749000  0.38091400  1
  O  O1  1  0.54612100  0.10940000  0.63925500  1
  O  O2  1  0.43705300  0.07802100  0.86548000  1
  O  O3  1  0.40713100  0.05862400  0.53898900  1
  O  O4  1  0.37669100  0.95349200  0.80873000  1
  O  O5  1  0.58295400  0.99360900  0.90520400  1
  O  O6  1  0.67695100  0.97027000  0.80150300  1
  O  O7  1  0.50045800  0.91658000  0.65330000  1
  O  O8  1  0.48718000  0.82002600  0.83529000  1
  O  O9  1  0.49762200  0.06842600  0.35388600  1
  O  O10  1  0.51265100  0.16530300  0.17229400  1
  O  O11  1  0.41789500  0.99237200  0.10077400  1
  O  O12  1  0.32268700  0.01052700  0.20797600  1
  O  O13  1  0.59174000  0.92736000  0.46971500  1
  O  O14  1  0.62382600  0.03410000  0.19880300  1
  O  O15  1  0.45445000  0.87598200  0.36653900  1
  O  O16  1  0.56541700  0.91066000  0.13919200  1
