# generated using pymatgen
data_Fe2H12C36O17
_symmetry_space_group_name_H-M   'P 1'
_cell_length_a   15.62463600
_cell_length_b   10.15247500
_cell_length_c   13.22452700
_cell_angle_alpha   83.07843800
_cell_angle_beta   87.08155600
_cell_angle_gamma   111.02638900
_symmetry_Int_Tables_number   1
_chemical_formula_structural   Fe2H12C36O17
_chemical_formula_sum   'Fe2 H12 C36 O17'
_cell_volume   1933.77777491
_cell_formula_units_Z   1
loop_
 _symmetry_equiv_pos_site_id
 _symmetry_equiv_pos_as_xyz
  1  'x, y, z'
loop_
 _atom_site_type_symbol
 _atom_site_label
 _atom_site_symmetry_multiplicity
 _atom_site_fract_x
 _atom_site_fract_y
 _atom_site_fract_z
 _atom_site_occupancy
  Fe  Fe1  1  0.53014200  0.02075600  0.18729200  1
  Fe  Fe2  1  0.52219200  0.01046800  0.72805400  1
  H  H1  1  0.93258100  0.99880000  0.80228800  1
  H  H2  1  0.18483300  0.95666600  0.81062100  1
  H  H3  1  0.03979600  0.94631100  0.85089500  1
  H  H4  1  0.79059000  0.99449200  0.75528100  1
  H  H5  1  0.25113100  0.99867500  0.16627500  1
  H  H6  1  0.09684700  0.98802800  0.20805600  1
  H  H7  1  0.94791800  0.99089900  0.24764200  1
  H  H8  1  0.80274200  0.99053300  0.19936100  1
  H  H9  1  0.43709500  0.80528800  0.48981500  1
  H  H10  1  0.51985400  0.50331000  0.66147800  1
  H  H11  1  0.54053100  0.19062600  0.43194600  1
  H  H12  1  0.39649100  0.44423700  0.23000500  1
  C  C1  1  0.88228200  0.98709300  0.86447600  1
  C  C2  1  0.28806100  0.98128400  0.91476900  1
  C  C3  1  0.20078500  0.96595000  0.88854000  1
  C  C4  1  0.13375900  0.96774100  0.95956500  1
  C  C5  1  0.04954800  0.96103400  0.92905600  1
  C  C6  1  0.98206900  0.97165700  0.99714000  1
  C  C7  1  0.80004700  0.98880300  0.83582100  1
  C  C8  1  0.73002700  0.97779800  0.90718200  1
  C  C9  1  0.89806600  0.97591900  0.96689100  1
  C  C10  1  0.82982300  0.97503200  0.03974200  1
  C  C11  1  0.74419600  0.97334500  0.01019300  1
  C  C12  1  0.30669100  0.99417200  0.01630600  1
  C  C13  1  0.23693800  0.98822300  0.08789500  1
  C  C14  1  0.15135400  0.97825500  0.05915800  1
  C  C15  1  0.08355200  0.98078100  0.12910300  1
  C  C16  1  0.99959600  0.97800100  0.09820000  1
  C  C17  1  0.93389600  0.98408900  0.16884700  1
  C  C18  1  0.84989200  0.98180500  0.14056500  1
  C  C19  1  0.66940600  0.96699900  0.08609200  1
  C  C20  1  0.46099700  0.74501900  0.31288500  1
  C  C21  1  0.39830400  0.02030900  0.05172200  1
  C  C22  1  0.50574500  0.25942400  0.25061100  1
  C  C23  1  0.49165000  0.74393400  0.66773000  1
  C  C24  1  0.64309600  0.97176800  0.86830100  1
  C  C25  1  0.51448200  0.25706400  0.61228400  1
  C  C26  1  0.35603500  0.98117300  0.83315500  1
  C  C27  1  0.45460300  0.64829700  0.40739800  1
  C  C28  1  0.44928900  0.70653300  0.49545500  1
  C  C29  1  0.47291600  0.65481100  0.58606600  1
  C  C30  1  0.49546600  0.53555500  0.59147500  1
  C  C31  1  0.49263300  0.46539800  0.50695700  1
  C  C32  1  0.47555400  0.52408100  0.41222000  1
  C  C33  1  0.48248700  0.45855100  0.32605200  1
  C  C34  1  0.50992800  0.34310400  0.33429100  1
  C  C35  1  0.52659900  0.28782900  0.42729400  1
  C  C36  1  0.51387200  0.34269900  0.51455700  1
  O  O1  1  0.62351700  0.05329400  0.07062600  1
  O  O2  1  0.40402000  0.70683900  0.24304300  1
  O  O3  1  0.64491700  0.86894900  0.16739000  1
  O  O4  1  0.51518900  0.87921200  0.31026600  1
  O  O5  1  0.40569000  0.94320200  0.13576100  1
  O  O6  1  0.46807100  0.13674700  0.01263000  1
  O  O7  1  0.57309200  0.21302500  0.23376600  1
  O  O8  1  0.42487700  0.19347600  0.22017200  1
  O  O9  1  0.44725400  0.83103600  0.67541600  1
  O  O10  1  0.56700900  0.76309300  0.71305000  1
  O  O11  1  0.64636800  0.03339800  0.77436600  1
  O  O12  1  0.56367300  0.89060000  0.91933600  1
  O  O13  1  0.33143700  0.96222000  0.74097800  1
  O  O14  1  0.55680400  0.16654500  0.61072600  1
  O  O15  1  0.44155700  0.00413100  0.85041600  1
  O  O16  1  0.45740600  0.24619900  0.69178300  1
  O  O17  1  0.46205600  0.50414200  0.23238100  1
