# generated using pymatgen
data_ZnH18C11N9O4
_symmetry_space_group_name_H-M   'P 1'
_cell_length_a   15.96319600
_cell_length_b   11.18631300
_cell_length_c   10.00329900
_cell_angle_alpha   89.99737900
_cell_angle_beta   89.97523200
_cell_angle_gamma   89.99823400
_symmetry_Int_Tables_number   1
_chemical_formula_structural   ZnH18C11N9O4
_chemical_formula_sum   'Zn2 H36 C22 N18 O8'
_cell_volume   1786.28199989
_cell_formula_units_Z   2
loop_
 _symmetry_equiv_pos_site_id
 _symmetry_equiv_pos_as_xyz
  1  'x, y, z'
loop_
 _atom_site_type_symbol
 _atom_site_label
 _atom_site_symmetry_multiplicity
 _atom_site_fract_x
 _atom_site_fract_y
 _atom_site_fract_z
 _atom_site_occupancy
  Zn  Zn1  1  0.50415600  0.49587400  0.65664500  1
  Zn  Zn2  1  0.49811900  0.49599400  0.35218800  1
  H  H1  1  0.94363400  0.33719600  0.38706200  1
  H  H2  1  0.92753200  0.46373000  0.28917200  1
  H  H3  1  0.55059600  0.89920700  0.59143500  1
  H  H4  1  0.43892600  0.47523000  0.10330300  1
  H  H5  1  0.93531900  0.27918000  0.73410800  1
  H  H6  1  0.89467900  0.27936100  0.57450100  1
  H  H7  1  0.10178300  0.54172100  0.77722000  1
  H  H8  1  0.06026000  0.41117600  0.83335700  1
  H  H9  1  0.96923600  0.58297200  0.77811900  1
  H  H10  1  0.91331900  0.46469100  0.83285300  1
  H  H11  1  0.95565800  0.66076900  0.28346400  1
  H  H12  1  0.91211500  0.77486500  0.36849500  1
  H  H13  1  0.49368300  0.89541100  0.20757400  1
  H  H14  1  0.39894700  0.92755500  0.27511100  1
  H  H15  1  0.61440000  0.06623200  0.29641200  1
  H  H16  1  0.52505000  0.10240900  0.21438100  1
  H  H17  1  0.46832400  0.03703000  0.68079100  1
  H  H18  1  0.38355200  0.03046300  0.57513100  1
  H  H19  1  0.60304100  0.68381900  0.81526400  1
  H  H20  1  0.50366400  0.73524400  0.85124400  1
  H  H21  1  0.45658900  0.33997600  0.88757500  1
  H  H22  1  0.56175500  0.33558000  0.86535400  1
  H  H23  1  0.67036500  0.59007500  0.09933300  1
  H  H24  1  0.60742000  0.70689100  0.13869600  1
  H  H25  1  0.08350600  0.25864900  0.68962800  1
  H  H26  1  0.02717700  0.25280400  0.54675900  1
  H  H27  1  0.13705400  0.53648000  0.24944600  1
  H  H28  1  0.05139300  0.48389900  0.17145400  1
  H  H29  1  0.15601100  0.34865600  0.32102100  1
  H  H30  1  0.06385200  0.29454400  0.26713200  1
  H  H31  1  0.05265300  0.79157500  0.63122100  1
  H  H32  1  0.13019200  0.69756600  0.65093300  1
  H  H33  1  0.05574100  0.80077400  0.40914000  1
  H  H34  1  0.14569800  0.72554200  0.42346200  1
  H  H35  1  0.92034000  0.79674300  0.58488100  1
  H  H36  1  0.84073300  0.70268000  0.58369300  1
  C  C1  1  0.49252500  0.26218200  0.50445800  1
  C  C2  1  0.33779500  0.50777000  0.51476000  1
  C  C3  1  0.50958600  0.72972900  0.50396000  1
  C  C4  1  0.66449200  0.48350000  0.49428300  1
  C  C5  1  0.04801700  0.42709400  0.62719100  1
  C  C6  1  0.05297000  0.45081900  0.37288000  1
  C  C7  1  0.95819700  0.43346900  0.38246900  1
  C  C8  1  0.75436500  0.48562700  0.49232200  1
  C  C9  1  0.08051800  0.50874900  0.50820600  1
  C  C10  1  0.95062600  0.44320300  0.63756200  1
  C  C11  1  0.92121600  0.50102200  0.50389000  1
  C  C12  1  0.94711300  0.63501600  0.49381100  1
  C  C13  1  0.04453700  0.64147400  0.51160700  1
  C  C14  1  0.82974200  0.49121300  0.49567100  1
  C  C15  1  0.17242800  0.50976900  0.51445400  1
  C  C16  1  0.24792200  0.50968400  0.51695200  1
  C  C17  1  0.49472600  0.93123000  0.40523700  1
  C  C18  1  0.51954000  0.86039700  0.50568800  1
  C  C19  1  0.51038700  0.06146800  0.40940500  1
  C  C20  1  0.48057300  0.13192000  0.50778800  1
  C  C21  1  0.53495300  0.57878800  0.93800800  1
  C  C22  1  0.54725600  0.55647300  0.08265000  1
  N  N1  1  0.51073700  0.49575100  0.85672600  1
  N  N2  1  0.49329400  0.49791000  0.15224900  1
  N  N3  1  0.90628200  0.32999700  0.65977800  1
  N  N4  1  0.09084900  0.45310500  0.75380800  1
  N  N5  1  0.92570300  0.51888300  0.75022000  1
  N  N6  1  0.91809100  0.68202800  0.36472600  1
  N  N7  1  0.45496700  0.88131400  0.29017300  1
  N  N8  1  0.55813500  0.11340100  0.30349800  1
  N  N9  1  0.43074900  0.08469300  0.61437900  1
  N  N10  1  0.55731200  0.69407100  0.88893100  1
  N  N11  1  0.51299700  0.38202400  0.91162800  1
  N  N12  1  0.61525700  0.61465700  0.14841700  1
  N  N13  1  0.07095900  0.30252500  0.59975400  1
  N  N14  1  0.07225000  0.52641200  0.25821900  1
  N  N15  1  0.09348800  0.33577100  0.34797400  1
  N  N16  1  0.06539000  0.70031100  0.63767100  1
  N  N17  1  0.08165900  0.71512100  0.40611700  1
  N  N18  1  0.90545800  0.70655300  0.59705600  1
  O  O1  1  0.49588300  0.31819800  0.61961900  1
  O  O2  1  0.49297000  0.31800700  0.38888200  1
  O  O3  1  0.37856200  0.50457500  0.62871100  1
  O  O4  1  0.37467100  0.50580500  0.39767500  1
  O  O5  1  0.50962700  0.67373400  0.61923200  1
  O  O6  1  0.50606600  0.67371400  0.38892100  1
  O  O7  1  0.62758200  0.48533300  0.61126700  1
  O  O8  1  0.62370700  0.48712800  0.38041600  1
