# generated using pymatgen
data_VH18C40N2Cl2O9
_symmetry_space_group_name_H-M   'P 1'
_cell_length_a   6.82861600
_cell_length_b   29.76603500
_cell_length_c   35.19988000
_cell_angle_alpha   90.00000000
_cell_angle_beta   90.00000000
_cell_angle_gamma   90.00000000
_symmetry_Int_Tables_number   1
_chemical_formula_structural   VH18C40N2Cl2O9
_chemical_formula_sum   'V4 H72 C160 N8 Cl8 O36'
_cell_volume   7154.75657329
_cell_formula_units_Z   4
loop_
 _symmetry_equiv_pos_site_id
 _symmetry_equiv_pos_as_xyz
  1  'x, y, z'
loop_
 _atom_site_type_symbol
 _atom_site_label
 _atom_site_symmetry_multiplicity
 _atom_site_fract_x
 _atom_site_fract_y
 _atom_site_fract_z
 _atom_site_occupancy
  V  V1  1  0.82748700  0.24471800  0.24965700  1
  V  V2  1  0.17251400  0.75528300  0.74965700  1
  V  V3  1  0.32748600  0.25528200  0.25034300  1
  V  V4  1  0.67251300  0.74471800  0.75034300  1
  H  H1  1  0.05828500  0.38723500  0.53435300  1
  H  H2  1  0.98566100  0.61079300  0.46741900  1
  H  H3  1  0.94171500  0.61276500  0.03435300  1
  H  H4  1  0.01433900  0.38920700  0.96741900  1
  H  H5  1  0.55828500  0.11276500  0.96564700  1
  H  H6  1  0.48566100  0.88920700  0.03258100  1
  H  H7  1  0.44171500  0.88723500  0.46564700  1
  H  H8  1  0.51433900  0.11079300  0.53258100  1
  H  H9  1  0.78902200  0.42641700  0.36545200  1
  H  H10  1  0.77380700  0.56381300  0.63787300  1
  H  H11  1  0.21097800  0.57358400  0.86545200  1
  H  H12  1  0.22619300  0.43618700  0.13787300  1
  H  H13  1  0.28902200  0.07358400  0.13454800  1
  H  H14  1  0.27380700  0.93618700  0.86212700  1
  H  H15  1  0.71097800  0.92641700  0.63454800  1
  H  H16  1  0.72619300  0.06381300  0.36212700  1
  H  H17  1  0.79514200  0.37237500  0.31251800  1
  H  H18  1  0.75089000  0.61831900  0.69029100  1
  H  H19  1  0.20485700  0.62762500  0.81251800  1
  H  H20  1  0.24911000  0.38168100  0.19029100  1
  H  H21  1  0.29514300  0.12762500  0.18748200  1
  H  H22  1  0.25089000  0.88168100  0.80970900  1
  H  H23  1  0.70485800  0.87237500  0.68748200  1
  H  H24  1  0.74911000  0.11831900  0.30970900  1
  H  H25  1  0.27484800  0.30443400  0.36438000  1
  H  H26  1  0.17294300  0.70134000  0.63535100  1
  H  H27  1  0.72515300  0.69556600  0.86438000  1
  H  H28  1  0.82705700  0.29866100  0.13535100  1
  H  H29  1  0.77484800  0.19556600  0.13562000  1
  H  H30  1  0.67294300  0.79866100  0.86464900  1
  H  H31  1  0.22515200  0.80443400  0.63562000  1
  H  H32  1  0.32705700  0.20134000  0.36464900  1
  H  H33  1  0.25596500  0.35569600  0.41901200  1
  H  H34  1  0.18126500  0.64909300  0.58128700  1
  H  H35  1  0.74403500  0.64430400  0.91901200  1
  H  H36  1  0.81873500  0.35090700  0.08128700  1
  H  H37  1  0.75596500  0.14430400  0.08098800  1
  H  H38  1  0.68126500  0.85090700  0.91871300  1
  H  H39  1  0.24403500  0.85569600  0.58098800  1
  H  H40  1  0.31873500  0.14909300  0.41871300  1
  H  H41  1  0.25039900  0.48880300  0.61542500  1
  H  H42  1  0.28873600  0.45984900  0.68027200  1
  H  H43  1  0.94000700  0.34604400  0.65187600  1
  H  H44  1  0.89542900  0.37577100  0.58726500  1
  H  H45  1  0.21980900  0.51591500  0.38477900  1
  H  H46  1  0.22770200  0.54555200  0.31974300  1
  H  H47  1  0.82036600  0.64747400  0.35091500  1
  H  H48  1  0.80669700  0.61687300  0.41576000  1
  H  H49  1  0.74960100  0.51119700  0.11542500  1
  H  H50  1  0.71126400  0.54015100  0.18027200  1
  H  H51  1  0.05999300  0.65395600  0.15187600  1
  H  H52  1  0.10457100  0.62422900  0.08726600  1
  H  H53  1  0.78019100  0.48408500  0.88477900  1
  H  H54  1  0.77229800  0.45444800  0.81974300  1
  H  H55  1  0.17963500  0.35252600  0.85091500  1
  H  H56  1  0.19330400  0.38312700  0.91576000  1
  H  H57  1  0.75039900  0.01119700  0.88457500  1
  H  H58  1  0.78873600  0.04015100  0.81972800  1
  H  H59  1  0.44000700  0.15395600  0.84812400  1
  H  H60  1  0.39542900  0.12422900  0.91273500  1
  H  H61  1  0.71980900  0.98408500  0.11522100  1
  H  H62  1  0.72770200  0.95444800  0.18025700  1
  H  H63  1  0.32036600  0.85252600  0.14908500  1
  H  H64  1  0.30669700  0.88312700  0.08424000  1
  H  H65  1  0.24960100  0.98880300  0.38457500  1
  H  H66  1  0.21126400  0.95984900  0.31972800  1
  H  H67  1  0.55999300  0.84604400  0.34812400  1
  H  H68  1  0.60457100  0.87577100  0.41273500  1
  H  H69  1  0.28019100  0.01591500  0.61522100  1
  H  H70  1  0.27229800  0.04555200  0.68025700  1
  H  H71  1  0.67963400  0.14747400  0.64908500  1
  H  H72  1  0.69330400  0.11687300  0.58424000  1
  C  C1  1  0.54775400  0.19508900  0.30264900  1
  C  C2  1  0.45395600  0.80407300  0.69672800  1
  C  C3  1  0.45224600  0.80491100  0.80264900  1
  C  C4  1  0.54604400  0.19592700  0.19672800  1
  C  C5  1  0.04775400  0.30491100  0.19735100  1
  C  C6  1  0.95395600  0.69592700  0.80327200  1
  C  C7  1  0.95224600  0.69508900  0.69735100  1
  C  C8  1  0.04604400  0.30407300  0.30327200  1
  C  C9  1  0.99473500  0.58835500  0.53965600  1
  C  C10  1  0.03992200  0.40953100  0.46214300  1
  C  C11  1  0.00526500  0.41164500  0.03965600  1
  C  C12  1  0.96007800  0.59046900  0.96214300  1
  C  C13  1  0.49473500  0.91164500  0.96034400  1
  C  C14  1  0.53992200  0.09046900  0.03785700  1
  C  C15  1  0.50526500  0.08835500  0.46034400  1
  C  C16  1  0.46007800  0.90953100  0.53785700  1
  C  C17  1  0.99314400  0.52796600  0.58235600  1
  C  C18  1  0.99442300  0.46919700  0.41962900  1
  C  C19  1  0.00685600  0.47203400  0.08235600  1
  C  C20  1  0.00557800  0.53080300  0.91962900  1
  C  C21  1  0.49314400  0.97203400  0.91764400  1
  C  C22  1  0.49442300  0.03080300  0.08037100  1
  C  C23  1  0.50685600  0.02796600  0.41764400  1
  C  C24  1  0.50557700  0.96919700  0.58037100  1
  C  C25  1  0.01562400  0.49796800  0.55269800  1
  C  C26  1  0.00474100  0.49969700  0.44916800  1
  C  C27  1  0.98437600  0.50203200  0.05269800  1
  C  C28  1  0.99525900  0.50030300  0.94916800  1
  C  C29  1  0.51562400  0.00203200  0.94730200  1
  C  C30  1  0.50474100  0.00030300  0.05083200  1
  C  C31  1  0.48437600  0.99796800  0.44730200  1
  C  C32  1  0.49525900  0.99969700  0.55083200  1
  C  C33  1  0.01096900  0.51365800  0.51594000  1
  C  C34  1  0.01663600  0.48411500  0.48589700  1
  C  C35  1  0.98903100  0.48634200  0.01594000  1
  C  C36  1  0.98336400  0.51588500  0.98589700  1
  C  C37  1  0.51096900  0.98634200  0.98406000  1
  C  C38  1  0.51663600  0.01588500  0.01410300  1
  C  C39  1  0.48903100  0.01365800  0.48406000  1
  C  C40  1  0.48336400  0.98411500  0.51410300  1
  C  C41  1  0.99838100  0.55904800  0.50936100  1
  C  C42  1  0.03210100  0.43876800  0.49246100  1
  C  C43  1  0.00161900  0.44095200  0.00936100  1
  C  C44  1  0.96789900  0.56123200  0.99246100  1
  C  C45  1  0.49838100  0.94095200  0.99063900  1
  C  C46  1  0.53210100  0.06123200  0.00753900  1
  C  C47  1  0.50161900  0.05904800  0.49063900  1
  C  C48  1  0.46789900  0.93876800  0.50753900  1
  C  C49  1  0.03636000  0.45243800  0.55938100  1
  C  C50  1  0.99726700  0.54543100  0.44243300  1
  C  C51  1  0.96364000  0.54756200  0.05938100  1
  C  C52  1  0.00273300  0.45456900  0.94243300  1
  C  C53  1  0.53636000  0.04756200  0.94061900  1
  C  C54  1  0.49726700  0.95456900  0.05756700  1
  C  C55  1  0.46364000  0.95243800  0.44061900  1
  C  C56  1  0.50273300  0.04543100  0.55756700  1
  C  C57  1  0.04218300  0.42284500  0.52920200  1
  C  C58  1  0.99168300  0.57502600  0.47260800  1
  C  C59  1  0.95781700  0.57715500  0.02920200  1
  C  C60  1  0.00831700  0.42497400  0.97260800  1
  C  C61  1  0.54218300  0.07715500  0.97079800  1
  C  C62  1  0.49168300  0.92497400  0.02739200  1
  C  C63  1  0.45781700  0.92284500  0.47079800  1
  C  C64  1  0.50831700  0.07502600  0.52739200  1
  C  C65  1  0.89424300  0.39928300  0.36541800  1
  C  C66  1  0.86024300  0.59422700  0.63718200  1
  C  C67  1  0.10575700  0.60071700  0.86541800  1
  C  C68  1  0.13975700  0.40577300  0.13718200  1
  C  C69  1  0.39424300  0.10071700  0.13458200  1
  C  C70  1  0.36024300  0.90577300  0.86281800  1
  C  C71  1  0.60575700  0.89928300  0.63458200  1
  C  C72  1  0.63975700  0.09422700  0.36281800  1
  C  C73  1  0.89714400  0.36888000  0.33581700  1
  C  C74  1  0.84682300  0.62486500  0.66649800  1
  C  C75  1  0.10285600  0.63112000  0.83581700  1
  C  C76  1  0.15317700  0.37513500  0.16649800  1
  C  C77  1  0.39714400  0.13112000  0.16418300  1
  C  C78  1  0.34682300  0.87513500  0.83350200  1
  C  C79  1  0.60285600  0.86888000  0.66418300  1
  C  C80  1  0.65317700  0.12486500  0.33350200  1
  C  C81  1  0.03579800  0.33518500  0.33520100  1
  C  C82  1  0.96123200  0.66305500  0.66606500  1
  C  C83  1  0.96420200  0.66481500  0.83520100  1
  C  C84  1  0.03876800  0.33694500  0.16606500  1
  C  C85  1  0.53579800  0.16481500  0.16479900  1
  C  C86  1  0.46123200  0.83694500  0.83393500  1
  C  C87  1  0.46420200  0.83518500  0.66479900  1
  C  C88  1  0.53876800  0.16305500  0.33393500  1
  C  C89  1  0.16662800  0.33093400  0.36480700  1
  C  C90  1  0.08407600  0.67128900  0.63578000  1
  C  C91  1  0.83337200  0.66906600  0.86480700  1
  C  C92  1  0.91592400  0.32871100  0.13578000  1
  C  C93  1  0.66666667  0.16906600  0.13519300  1
  C  C94  1  0.58407600  0.82871100  0.86422000  1
  C  C95  1  0.33337200  0.83093400  0.63519300  1
  C  C96  1  0.41592400  0.17128900  0.36422000  1
  C  C97  1  0.15536100  0.35951600  0.39552300  1
  C  C98  1  0.08793200  0.64213000  0.60538300  1
  C  C99  1  0.84463900  0.64048400  0.89552300  1
  C  C100  1  0.91206800  0.35787000  0.10538300  1
  C  C101  1  0.65536100  0.14048400  0.10447700  1
  C  C102  1  0.58793200  0.85787000  0.89461700  1
  C  C103  1  0.34463900  0.85951600  0.60447700  1
  C  C104  1  0.41206800  0.14213000  0.39461700  1
  C  C105  1  0.02155700  0.39418200  0.39554400  1
  C  C106  1  0.97842200  0.60324700  0.60632500  1
  C  C107  1  0.97844300  0.60581800  0.89554400  1
  C  C108  1  0.02157800  0.39675300  0.10632500  1
  C  C109  1  0.52155700  0.10581800  0.10445600  1
  C  C110  1  0.47842200  0.89675300  0.89367500  1
  C  C111  1  0.47844300  0.89418200  0.60445600  1
  C  C112  1  0.52157800  0.10324700  0.39367500  1
  C  C113  1  0.06072100  0.43534600  0.59794300  1
  C  C114  1  0.17386800  0.45857200  0.62385600  1
  C  C115  1  0.19943500  0.44178100  0.66003500  1
  C  C116  1  0.11370900  0.40161000  0.67022700  1
  C  C117  1  0.00511700  0.37782400  0.64404100  1
  C  C118  1  0.98018200  0.39449000  0.60781300  1
  C  C119  1  0.00367000  0.56299500  0.40375300  1
  C  C120  1  0.12439200  0.54343500  0.37697700  1
  C  C121  1  0.13255100  0.56073100  0.34066300  1
  C  C122  1  0.02175400  0.59780000  0.33118700  1
  C  C123  1  0.90528900  0.61806400  0.35820500  1
  C  C124  1  0.89768700  0.60091000  0.39456300  1
  C  C125  1  0.93927800  0.56465400  0.09794300  1
  C  C126  1  0.82613200  0.54142800  0.12385600  1
  C  C127  1  0.80056500  0.55821900  0.16003500  1
  C  C128  1  0.88629100  0.59839000  0.17022700  1
  C  C129  1  0.99488300  0.62217600  0.14404100  1
  C  C130  1  0.01981700  0.60551000  0.10781300  1
  C  C131  1  0.99633100  0.43700500  0.90375300  1
  C  C132  1  0.87560800  0.45656500  0.87697700  1
  C  C133  1  0.86744900  0.43926900  0.84066300  1
  C  C134  1  0.97824600  0.40220000  0.83118700  1
  C  C135  1  0.09471100  0.38193600  0.85820500  1
  C  C136  1  0.10231400  0.39909000  0.89456300  1
  C  C137  1  0.56072100  0.06465400  0.90205700  1
  C  C138  1  0.67386800  0.04142800  0.87614400  1
  C  C139  1  0.69943500  0.05821900  0.83996500  1
  C  C140  1  0.61370900  0.09839000  0.82977300  1
  C  C141  1  0.50511700  0.12217600  0.85595900  1
  C  C142  1  0.48018200  0.10551000  0.89218700  1
  C  C143  1  0.50367000  0.93700500  0.09624700  1
  C  C144  1  0.62439200  0.95656500  0.12302300  1
  C  C145  1  0.63255100  0.93926900  0.15933700  1
  C  C146  1  0.52175400  0.90220000  0.16881300  1
  C  C147  1  0.40528900  0.88193600  0.14179500  1
  C  C148  1  0.39768700  0.89909000  0.10543700  1
  C  C149  1  0.43927900  0.93534600  0.40205700  1
  C  C150  1  0.32613200  0.95857200  0.37614400  1
  C  C151  1  0.30056500  0.94178100  0.33996500  1
  C  C152  1  0.38629100  0.90161000  0.32977300  1
  C  C153  1  0.49488300  0.87782400  0.35595900  1
  C  C154  1  0.51981700  0.89449000  0.39218700  1
  C  C155  1  0.49633000  0.06299500  0.59624700  1
  C  C156  1  0.37560800  0.04343500  0.62302300  1
  C  C157  1  0.36744900  0.06073100  0.65933700  1
  C  C158  1  0.47824600  0.09780000  0.66881300  1
  C  C159  1  0.59471100  0.11806400  0.64179500  1
  C  C160  1  0.60231300  0.10091000  0.60543700  1
  N  N1  1  0.98854900  0.57249200  0.57547500  1
  N  N2  1  0.01757300  0.42496100  0.42642900  1
  N  N3  1  0.01145100  0.42750800  0.07547500  1
  N  N4  1  0.98242700  0.57503900  0.92642900  1
  N  N5  1  0.48854900  0.92750800  0.92452500  1
  N  N6  1  0.51757300  0.07503900  0.07357100  1
  N  N7  1  0.51145100  0.07249200  0.42452500  1
  N  N8  1  0.48242700  0.92496100  0.57357100  1
  Cl  Cl1  1  0.14675100  0.38026400  0.71613600  1
  Cl  Cl2  1  0.03263600  0.61979700  0.28509900  1
  Cl  Cl3  1  0.85324900  0.61973600  0.21613600  1
  Cl  Cl4  1  0.96736400  0.38020300  0.78509900  1
  Cl  Cl5  1  0.64675100  0.11973600  0.78386400  1
  Cl  Cl6  1  0.53263600  0.88020300  0.21490100  1
  Cl  Cl7  1  0.35324900  0.88026400  0.28386400  1
  Cl  Cl8  1  0.46736400  0.11979700  0.71490100  1
  O  O1  1  0.37856000  0.21148100  0.20957800  1
  O  O2  1  0.61995900  0.78850400  0.79102500  1
  O  O3  1  0.62144000  0.78851900  0.70957800  1
  O  O4  1  0.38004100  0.21149600  0.29102500  1
  O  O5  1  0.87856000  0.28851900  0.29042200  1
  O  O6  1  0.11995800  0.71149600  0.70897500  1
  O  O7  1  0.12144000  0.71148100  0.79042200  1
  O  O8  1  0.88004100  0.28850400  0.20897500  1
  O  O9  1  0.72100900  0.20259100  0.28780100  1
  O  O10  1  0.27718100  0.79422900  0.70900200  1
  O  O11  1  0.27899100  0.79740900  0.78780100  1
  O  O12  1  0.72281900  0.20577200  0.20900200  1
  O  O13  1  0.22100900  0.29740900  0.21219900  1
  O  O14  1  0.77718100  0.70577200  0.79099800  1
  O  O15  1  0.77899100  0.70259100  0.71219900  1
  O  O16  1  0.22281900  0.29422900  0.29099800  1
  O  O17  1  0.55290200  0.27708100  0.25025300  1
  O  O18  1  0.44709800  0.72291900  0.75025300  1
  O  O19  1  0.05290200  0.22291900  0.24974700  1
  O  O20  1  0.94709800  0.77708100  0.74974700  1
  O  O21  1  0.98959400  0.63284700  0.53339800  1
  O  O22  1  0.06259000  0.36531300  0.46832400  1
  O  O23  1  0.01040600  0.36715300  0.03339800  1
  O  O24  1  0.93741000  0.63468700  0.96832400  1
  O  O25  1  0.48959400  0.86715300  0.96660200  1
  O  O26  1  0.56259000  0.13468700  0.03167600  1
  O  O27  1  0.51040600  0.13284700  0.46660200  1
  O  O28  1  0.43741000  0.86531300  0.53167600  1
  O  O29  1  0.97505900  0.51287000  0.61814000  1
  O  O30  1  0.96093100  0.48349900  0.38403000  1
  O  O31  1  0.02494100  0.48713000  0.11814000  1
  O  O32  1  0.03906900  0.51650100  0.88403000  1
  O  O33  1  0.47505900  0.98713000  0.88186000  1
  O  O34  1  0.46093100  0.01650100  0.11597000  1
  O  O35  1  0.52494100  0.01287000  0.38186000  1
  O  O36  1  0.53906900  0.98349900  0.61597000  1
