# generated using pymatgen
data_ZnH13C22BrNO4
_symmetry_space_group_name_H-M   'P 1'
_cell_length_a   6.55466000
_cell_length_b   14.25981200
_cell_length_c   14.79243900
_cell_angle_alpha   90.00000000
_cell_angle_beta   98.10317200
_cell_angle_gamma   90.00000000
_symmetry_Int_Tables_number   1
_chemical_formula_structural   ZnH13C22BrNO4
_chemical_formula_sum   'Zn2 H26 C44 Br2 N2 O8'
_cell_volume   1368.81862584
_cell_formula_units_Z   2
loop_
 _symmetry_equiv_pos_site_id
 _symmetry_equiv_pos_as_xyz
  1  'x, y, z'
loop_
 _atom_site_type_symbol
 _atom_site_label
 _atom_site_symmetry_multiplicity
 _atom_site_fract_x
 _atom_site_fract_y
 _atom_site_fract_z
 _atom_site_occupancy
  Zn  Zn1  1  0.48512100  0.89509400  0.50218100  1
  Zn  Zn2  1  0.51208700  0.10519100  0.49959800  1
  H  H1  1  0.72075300  0.97414900  0.79040900  1
  H  H2  1  0.45404500  0.04250500  0.79496500  1
  H  H3  1  0.62623600  0.94858300  0.90323500  1
  H  H4  1  0.49789300  0.94046300  0.04729100  1
  H  H5  1  0.49870700  0.05950700  0.95449700  1
  H  H6  1  0.37039100  0.05131900  0.09862500  1
  H  H7  1  0.54221200  0.95767300  0.20666900  1
  H  H8  1  0.27560000  0.02608300  0.21151200  1
  H  H9  1  0.16517100  0.56901800  0.49425600  1
  H  H10  1  0.18310300  0.41207600  0.48962300  1
  H  H11  1  0.25167700  0.57460900  0.38390900  1
  H  H12  1  0.27977500  0.41670600  0.38136500  1
  H  H13  1  0.68421500  0.58062500  0.63083600  1
  H  H14  1  0.69453200  0.42264300  0.63240200  1
  H  H15  1  0.40997900  0.57598900  0.63569000  1
  H  H16  1  0.41850600  0.41802400  0.63283400  1
  H  H17  1  0.81428700  0.58697500  0.48493400  1
  H  H18  1  0.83321900  0.43096200  0.48851500  1
  H  H19  1  0.41116500  0.50303300  0.30349800  1
  H  H20  1  0.38616900  0.44061400  0.14786400  1
  H  H21  1  0.89583000  0.26012300  0.23130500  1
  H  H22  1  0.91980700  0.32181000  0.38767000  1
  H  H23  1  0.87742500  0.50297800  0.31749500  1
  H  H24  1  0.83841600  0.55557200  0.15785600  1
  H  H25  1  0.35948600  0.74170000  0.20863700  1
  H  H26  1  0.39835800  0.69086300  0.36743600  1
  C  C1  1  0.16794400  0.01231500  0.71269200  1
  C  C2  1  0.96150500  0.99367400  0.71270300  1
  C  C3  1  0.88357400  0.98620500  0.79433200  1
  C  C4  1  0.29222900  0.02744900  0.79449300  1
  C  C5  1  0.21318600  0.02185900  0.87588100  1
  C  C6  1  0.00923900  0.99887900  0.87703100  1
  C  C7  1  0.93369900  0.99128500  0.96032500  1
  C  C8  1  0.73091300  0.96571700  0.96358400  1
  C  C9  1  0.65651300  0.96028000  0.04573600  1
  C  C10  1  0.34006900  0.03972700  0.95606200  1
  C  C11  1  0.26570800  0.03426600  0.03824700  1
  C  C12  1  0.06289300  0.00875400  0.04152800  1
  C  C13  1  0.98726900  0.00122300  0.12482000  1
  C  C14  1  0.78329800  0.97823900  0.12590200  1
  C  C15  1  0.70404800  0.97273200  0.20721400  1
  C  C16  1  0.11277400  0.01398700  0.20757000  1
  C  C17  1  0.03460800  0.00659700  0.28918200  1
  C  C18  1  0.82808500  0.98796100  0.28903100  1
  C  C19  1  0.81470700  0.99470800  0.62892900  1
  C  C20  1  0.26380900  0.00845600  0.62945000  1
  C  C21  1  0.18122500  0.00558600  0.37308300  1
  C  C22  1  0.73182200  0.99184100  0.37211700  1
  C  C23  1  0.66740100  0.55811800  0.44940300  1
  C  C24  1  0.68194700  0.45206400  0.45072800  1
  C  C25  1  0.28948300  0.54821400  0.45464500  1
  C  C26  1  0.30383500  0.44228800  0.45281000  1
  C  C27  1  0.49248800  0.58857300  0.50019600  1
  C  C28  1  0.51357600  0.41159600  0.49946100  1
  C  C29  1  0.54286400  0.44639300  0.59705200  1
  C  C30  1  0.53459600  0.55253700  0.59741900  1
  C  C31  1  0.52441600  0.30911600  0.49889900  1
  C  C32  1  0.48170200  0.69102600  0.50236100  1
  C  C33  1  0.66490300  0.41505900  0.35587700  1
  C  C34  1  0.51592800  0.44868900  0.28840300  1
  C  C35  1  0.50272400  0.41413800  0.20069200  1
  C  C36  1  0.63868600  0.34619300  0.18022500  1
  C  C37  1  0.78864700  0.31312600  0.24738900  1
  C  C38  1  0.80206300  0.34773900  0.33506600  1
  C  C39  1  0.63838100  0.59164700  0.35284900  1
  C  C40  1  0.76274300  0.55515300  0.29361200  1
  C  C41  1  0.74105300  0.58466400  0.20402100  1
  C  C42  1  0.59549900  0.65134000  0.17336900  1
  C  C43  1  0.47244000  0.68877300  0.23248100  1
  C  C44  1  0.49377400  0.65925800  0.32212200  1
  Br  Br1  1  0.62040700  0.29856700  0.05895900  1
  Br  Br2  1  0.56573500  0.69242400  0.04959500  1
  N  N1  1  0.52900300  0.22800500  0.49862000  1
  N  N2  1  0.47585600  0.77210900  0.50352000  1
  O  O1  1  0.75116700  0.07719400  0.59668600  1
  O  O2  1  0.72749500  0.91515600  0.59988500  1
  O  O3  1  0.30765500  0.92561800  0.59909000  1
  O  O4  1  0.33208300  0.08656500  0.59808400  1
  O  O5  1  0.24498900  0.92313600  0.40529400  1
  O  O6  1  0.26867700  0.08508500  0.40208700  1
  O  O7  1  0.68836100  0.07468700  0.40257800  1
  O  O8  1  0.66392300  0.91370000  0.40357800  1
