# generated using pymatgen
data_Fe2H22C47N4O17
_symmetry_space_group_name_H-M   'P 1'
_cell_length_a   9.40921900
_cell_length_b   16.69145500
_cell_length_c   19.89086200
_cell_angle_alpha   102.74255100
_cell_angle_beta   85.75692500
_cell_angle_gamma   76.47290900
_symmetry_Int_Tables_number   1
_chemical_formula_structural   Fe2H22C47N4O17
_chemical_formula_sum   'Fe2 H22 C47 N4 O17'
_cell_volume   2936.37565617
_cell_formula_units_Z   1
loop_
 _symmetry_equiv_pos_site_id
 _symmetry_equiv_pos_as_xyz
  1  'x, y, z'
loop_
 _atom_site_type_symbol
 _atom_site_label
 _atom_site_symmetry_multiplicity
 _atom_site_fract_x
 _atom_site_fract_y
 _atom_site_fract_z
 _atom_site_occupancy
  Fe  Fe1  1  0.50149400  0.00432000  0.35873800  1
  Fe  Fe2  1  0.50403300  0.99623600  0.64143700  1
  H  H1  1  0.95828600  0.00428800  0.66637400  1
  H  H2  1  0.21736500  0.99725600  0.83324800  1
  H  H3  1  0.76626600  0.99039000  0.86167600  1
  H  H4  1  0.87456800  0.90403700  0.93130100  1
  H  H5  1  0.87976900  0.90993000  0.05379400  1
  H  H6  1  0.13267700  0.09375100  0.06832200  1
  H  H7  1  0.12696100  0.08817600  0.94601400  1
  H  H8  1  0.24074600  0.00735400  0.13789500  1
  H  H9  1  0.04771500  0.99627700  0.33389100  1
  H  H10  1  0.78897300  0.00191500  0.16675400  1
  H  H11  1  0.12885600  0.42967500  0.65036500  1
  H  H12  1  0.25055600  0.31097200  0.69234500  1
  H  H13  1  0.88362400  0.57272000  0.34727400  1
  H  H14  1  0.76157100  0.69214100  0.30637400  1
  H  H15  1  0.77046000  0.72256000  0.55713600  1
  H  H16  1  0.99731800  0.28246900  0.43361300  1
  H  H17  1  0.11357500  0.17581300  0.40582600  1
  H  H18  1  0.29183400  0.29439400  0.31813400  1
  H  H19  1  0.27427000  0.30143300  0.19824900  1
  H  H20  1  0.07406400  0.25904300  0.13869800  1
  H  H21  1  0.89004400  0.20832800  0.20033900  1
  H  H22  1  0.90544700  0.20071100  0.32150000  1
  C  C1  1  0.10221600  0.00088500  0.74480300  1
  C  C2  1  0.11341100  0.99819500  0.81332400  1
  C  C3  1  0.99263600  0.99475000  0.85595900  1
  C  C4  1  0.86205900  0.99211800  0.82911500  1
  C  C5  1  0.84973100  0.99699600  0.76156900  1
  C  C6  1  0.96873100  0.00255700  0.71977700  1
  C  C7  1  0.93002900  0.94684100  0.96110200  1
  C  C8  1  0.93248100  0.95036000  0.03088800  1
  C  C9  1  0.00603200  0.00248900  0.07015100  1
  C  C10  1  0.07699000  0.05106300  0.03858000  1
  C  C11  1  0.07436400  0.04764600  0.96884600  1
  C  C12  1  0.00082900  0.99553200  0.92956700  1
  C  C13  1  0.14473000  0.00615300  0.17058900  1
  C  C14  1  0.15679900  0.00204500  0.23830000  1
  C  C15  1  0.03744400  0.99733500  0.28035000  1
  C  C16  1  0.90384400  0.99912800  0.25539400  1
  C  C17  1  0.89294700  0.00094000  0.18666900  1
  C  C18  1  0.01407600  0.00356800  0.14381500  1
  C  C19  1  0.77524300  0.00019300  0.30247800  1
  C  C20  1  0.63241600  0.84990500  0.37823100  1
  C  C21  1  0.29372000  0.00728000  0.26674000  1
  C  C22  1  0.36019800  0.13221700  0.47083500  1
  C  C23  1  0.30354800  0.21441500  0.52107600  1
  C  C24  1  0.23074200  0.28274100  0.49695500  1
  C  C25  1  0.16629700  0.36128400  0.54298800  1
  C  C26  1  0.17667900  0.36977700  0.61299000  1
  C  C27  1  0.24663000  0.30161000  0.63708900  1
  C  C28  1  0.30926300  0.22307100  0.59201500  1
  C  C29  1  0.92193300  0.56652300  0.47879200  1
  C  C30  1  0.08204300  0.43466400  0.51985700  1
  C  C31  1  0.83162000  0.63157900  0.38518400  1
  C  C32  1  0.76190500  0.70021700  0.36174800  1
  C  C33  1  0.69702900  0.77791900  0.40760700  1
  C  C34  1  0.69811200  0.78497600  0.47869900  1
  C  C35  1  0.76590900  0.71502700  0.50204000  1
  C  C36  1  0.83645000  0.63865600  0.45535900  1
  C  C37  1  0.71276800  0.99203900  0.73306600  1
  C  C38  1  0.64500000  0.86695600  0.52968500  1
  C  C39  1  0.23050100  0.00072700  0.69797900  1
  C  C40  1  0.37531600  0.15164300  0.62195800  1
  C  C41  1  0.10269300  0.24233100  0.40256000  1
  C  C42  1  0.09879700  0.24674600  0.32847100  1
  C  C43  1  0.20262300  0.27504300  0.29350600  1
  C  C44  1  0.19337100  0.27922100  0.22542200  1
  C  C45  1  0.08118900  0.25540800  0.19197500  1
  C  C46  1  0.97811800  0.22702300  0.22652100  1
  C  C47  1  0.98699800  0.22270800  0.29455000  1
  N  N1  1  0.99966800  0.50402100  0.56711600  1
  N  N2  1  0.92092800  0.56918400  0.54693500  1
  N  N3  1  0.00534200  0.49771900  0.43163200  1
  N  N4  1  0.08428100  0.43285200  0.45185100  1
  O  O1  1  0.64407300  0.00852700  0.28211600  1
  O  O2  1  0.65709200  0.84148200  0.31092900  1
  O  O3  1  0.79051500  0.99397200  0.36631000  1
  O  O4  1  0.55152400  0.92268200  0.41731100  1
  O  O5  1  0.33277500  0.96860400  0.31577800  1
  O  O6  1  0.37047600  0.05644400  0.24734600  1
  O  O7  1  0.46792500  0.12113900  0.42100600  1
  O  O8  1  0.29616900  0.07067300  0.47278000  1
  O  O9  1  0.67408200  0.03082500  0.68404300  1
  O  O10  1  0.63531300  0.94325400  0.75255200  1
  O  O11  1  0.53561000  0.87953600  0.57907900  1
  O  O12  1  0.71216500  0.92725500  0.52799200  1
  O  O13  1  0.35145100  0.16087500  0.68939700  1
  O  O14  1  0.36162500  0.99244400  0.71836400  1
  O  O15  1  0.45467300  0.07819700  0.58307400  1
  O  O16  1  0.21519100  0.00725300  0.63421900  1
  O  O17  1  0.21790400  0.27075200  0.42875900  1
