# generated using pymatgen
data_ZnH24C31NO5
_symmetry_space_group_name_H-M   'P 1'
_cell_length_a   10.98942900
_cell_length_b   19.46283900
_cell_length_c   18.26771700
_cell_angle_alpha   89.98922800
_cell_angle_beta   90.01687600
_cell_angle_gamma   90.00446600
_symmetry_Int_Tables_number   1
_chemical_formula_structural   ZnH24C31NO5
_chemical_formula_sum   'Zn2 H48 C62 N2 O10'
_cell_volume   3907.19930254
_cell_formula_units_Z   2
loop_
 _symmetry_equiv_pos_site_id
 _symmetry_equiv_pos_as_xyz
  1  'x, y, z'
loop_
 _atom_site_type_symbol
 _atom_site_label
 _atom_site_symmetry_multiplicity
 _atom_site_fract_x
 _atom_site_fract_y
 _atom_site_fract_z
 _atom_site_occupancy
  Zn  Zn1  1  0.50286000  0.50181400  0.58405200  1
  Zn  Zn2  1  0.50690600  0.50106700  0.41767000  1
  H  H1  1  0.23463600  0.62401900  0.18816500  1
  H  H2  1  0.76550900  0.36275400  0.80366600  1
  H  H3  1  0.26346800  0.68787900  0.30277800  1
  H  H4  1  0.73324400  0.30819000  0.68380900  1
  H  H5  1  0.18630000  0.64091500  0.41881300  1
  H  H6  1  0.81669900  0.36107500  0.57267000  1
  H  H7  1  0.04850500  0.46632500  0.30448400  1
  H  H8  1  0.96503200  0.52382200  0.70136900  1
  H  H9  1  0.12649100  0.51340600  0.18903900  1
  H  H10  1  0.88219800  0.47026600  0.81229400  1
  H  H11  1  0.88582200  0.53438100  0.39313400  1
  H  H12  1  0.12409000  0.46669800  0.60800600  1
  H  H13  1  0.40266300  0.71907900  0.40359200  1
  H  H14  1  0.37938300  0.28356900  0.59354500  1
  H  H15  1  0.39119900  0.84323000  0.40694500  1
  H  H16  1  0.37252700  0.15893500  0.59067400  1
  H  H17  1  0.62296800  0.84425300  0.59562300  1
  H  H18  1  0.62559300  0.15944500  0.41228600  1
  H  H19  1  0.62069700  0.71962000  0.59653900  1
  H  H20  1  0.61976800  0.28386700  0.41040200  1
  H  H21  1  0.49318700  0.06519700  0.61719800  1
  H  H22  1  0.50998400  0.93799000  0.38574600  1
  H  H23  1  0.63605200  0.57841700  0.69980800  1
  H  H24  1  0.37470100  0.42392700  0.30189300  1
  H  H25  1  0.63828300  0.58048300  0.83313200  1
  H  H26  1  0.37261500  0.42183700  0.16854300  1
  H  H27  1  0.36494500  0.42390800  0.83386700  1
  H  H28  1  0.64423100  0.57933400  0.16785000  1
  H  H29  1  0.36516100  0.42597900  0.70041000  1
  H  H30  1  0.64377400  0.57738900  0.30133500  1
  H  H31  1  0.30991700  0.49124600  0.93604400  1
  H  H32  1  0.70009900  0.51159500  0.06574700  1
  H  H33  1  0.31269200  0.49064600  0.06842500  1
  H  H34  1  0.69739200  0.51208600  0.93336000  1
  H  H35  1  0.33213600  0.87056600  0.64284800  1
  H  H36  1  0.30217000  0.95319000  0.60174900  1
  H  H37  1  0.37258400  0.92766400  0.76230900  1
  H  H38  1  0.34218900  0.01041100  0.72105700  1
  H  H39  1  0.13234900  0.97228000  0.68997600  1
  H  H40  1  0.16145400  0.96613600  0.78717600  1
  H  H41  1  0.16277900  0.88942800  0.73137100  1
  H  H42  1  0.33915100  0.12913900  0.35405800  1
  H  H43  1  0.31019400  0.04583600  0.39384800  1
  H  H44  1  0.39518100  0.07326900  0.23625600  1
  H  H45  1  0.36589600  0.98983000  0.27619500  1
  H  H46  1  0.15102100  0.02360300  0.29946000  1
  H  H47  1  0.18953800  0.03066100  0.20353600  1
  H  H48  1  0.18034200  0.10715600  0.25940400  1
  C  C1  1  0.49928200  0.36708100  0.50145600  1
  C  C2  1  0.51076900  0.63583300  0.50029400  1
  C  C3  1  0.26616300  0.50526700  0.49872700  1
  C  C4  1  0.74354000  0.49741300  0.50292400  1
  C  C5  1  0.21757600  0.63879100  0.30352200  1
  C  C6  1  0.78354300  0.35579600  0.68752500  1
  C  C7  1  0.17464500  0.61224300  0.36861900  1
  C  C8  1  0.82994600  0.38576300  0.62507900  1
  C  C9  1  0.11518800  0.54969000  0.36939600  1
  C  C10  1  0.89376600  0.44684200  0.62955700  1
  C  C11  1  0.09674900  0.51473800  0.30453000  1
  C  C12  1  0.91378100  0.47656900  0.69715800  1
  C  C13  1  0.14039200  0.54114600  0.23961600  1
  C  C14  1  0.86721400  0.44656400  0.75954300  1
  C  C15  1  0.20099200  0.60312100  0.23911900  1
  C  C16  1  0.80181200  0.38630100  0.75472300  1
  C  C17  1  0.93737300  0.51813900  0.44042800  1
  C  C18  1  0.07225300  0.48338400  0.56100000  1
  C  C19  1  0.87788000  0.49652300  0.50298600  1
  C  C20  1  0.13176300  0.50537100  0.49849300  1
  C  C21  1  0.94701900  0.47760800  0.56363500  1
  C  C22  1  0.06254200  0.52295400  0.43737600  1
  C  C23  1  0.45048300  0.74649400  0.44613700  1
  C  C24  1  0.43261100  0.25627000  0.55318400  1
  C  C25  1  0.44495600  0.81721800  0.44797900  1
  C  C26  1  0.42966100  0.18540900  0.55168700  1
  C  C27  1  0.50457500  0.85372300  0.50232700  1
  C  C28  1  0.49672300  0.14925500  0.50025800  1
  C  C29  1  0.57009000  0.81768600  0.55462000  1
  C  C30  1  0.56692300  0.18565200  0.45059100  1
  C  C31  1  0.57049700  0.74679000  0.55467500  1
  C  C32  1  0.56511600  0.25645700  0.44999300  1
  C  C33  1  0.51123900  0.71097200  0.50017000  1
  C  C34  1  0.49865000  0.29199300  0.50154400  1
  C  C35  1  0.49051200  0.96693300  0.56740400  1
  C  C36  1  0.49537500  0.03591600  0.43525800  1
  C  C37  1  0.49317900  0.03788200  0.56573400  1
  C  C38  1  0.50258300  0.96512400  0.43712000  1
  C  C39  1  0.49561100  0.07329900  0.50004900  1
  C  C40  1  0.50009300  0.92965900  0.50277200  1
  C  C41  1  0.57615600  0.54459900  0.72987500  1
  C  C42  1  0.43420800  0.45796900  0.27183600  1
  C  C43  1  0.57812100  0.54516700  0.80532400  1
  C  C44  1  0.43235000  0.45736300  0.19638600  1
  C  C45  1  0.50180600  0.50214500  0.84419800  1
  C  C46  1  0.50821600  0.50064600  0.15753600  1
  C  C47  1  0.42436700  0.45938300  0.80572000  1
  C  C48  1  0.58513600  0.54369500  0.19601400  1
  C  C49  1  0.42503300  0.46003000  0.73020700  1
  C  C50  1  0.58432100  0.54311400  0.27152700  1
  C  C51  1  0.39645700  0.49474900  0.96388300  1
  C  C52  1  0.61358700  0.50805100  0.03788000  1
  C  C53  1  0.39805600  0.49440400  0.03936300  1
  C  C54  1  0.61200300  0.50835600  0.96239700  1
  C  C55  1  0.50663000  0.50104200  0.07700100  1
  C  C56  1  0.50342000  0.50173600  0.92474800  1
  C  C57  1  0.35454300  0.92609300  0.64486900  1
  C  C58  1  0.32027300  0.95482300  0.71919300  1
  C  C59  1  0.18531400  0.94495700  0.73268500  1
  C  C60  1  0.36515300  0.07409600  0.35280500  1
  C  C61  1  0.34033500  0.04493600  0.27731100  1
  C  C62  1  0.20646400  0.05212100  0.25884400  1
  N  N1  1  0.50041500  0.50229100  0.69353800  1
  N  N2  1  0.50934500  0.50061100  0.30818400  1
  O  O1  1  0.49775600  0.39938300  0.56446200  1
  O  O2  1  0.50991500  0.60351900  0.43728000  1
  O  O3  1  0.50319700  0.39880600  0.43819600  1
  O  O4  1  0.50878400  0.60405200  0.56354400  1
  O  O5  1  0.32209900  0.50495500  0.56233300  1
  O  O6  1  0.68768100  0.49891200  0.43935900  1
  O  O7  1  0.32520800  0.50297200  0.43632400  1
  O  O8  1  0.68452700  0.49887200  0.56540100  1
  O  O9  1  0.47947700  0.93465600  0.63367500  1
  O  O10  1  0.48916000  0.06797200  0.36863300  1
