# generated using pymatgen
data_CuH13C24NO8
_symmetry_space_group_name_H-M   'P 1'
_cell_length_a   16.22464500
_cell_length_b   17.33553600
_cell_length_c   17.68838100
_cell_angle_alpha   90.00724400
_cell_angle_beta   89.97555100
_cell_angle_gamma   86.27812400
_symmetry_Int_Tables_number   1
_chemical_formula_structural   CuH13C24NO8
_chemical_formula_sum   'Cu2 H26 C48 N2 O16'
_cell_volume   4964.59221398
_cell_formula_units_Z   2
loop_
 _symmetry_equiv_pos_site_id
 _symmetry_equiv_pos_as_xyz
  1  'x, y, z'
loop_
 _atom_site_type_symbol
 _atom_site_label
 _atom_site_symmetry_multiplicity
 _atom_site_fract_x
 _atom_site_fract_y
 _atom_site_fract_z
 _atom_site_occupancy
  Cu  Cu1  1  0.58246700  0.49938600  0.50096200  1
  Cu  Cu2  1  0.41752400  0.50094400  0.49907800  1
  H  H1  1  0.38301100  0.25730900  0.49276100  1
  H  H2  1  0.61679100  0.74298200  0.50719500  1
  H  H3  1  0.35359000  0.74371400  0.49973700  1
  H  H4  1  0.64617600  0.25685200  0.50028600  1
  H  H5  1  0.42519000  0.00597200  0.55291000  1
  H  H6  1  0.57472200  0.99455400  0.44703100  1
  H  H7  1  0.60739400  0.88273100  0.51301400  1
  H  H8  1  0.39192900  0.11828700  0.48655300  1
  H  H9  1  0.62687200  0.49118700  0.87580800  1
  H  H10  1  0.37410500  0.50830900  0.12248600  1
  H  H11  1  0.62922300  0.49091500  0.73969800  1
  H  H12  1  0.37092700  0.50821000  0.26064100  1
  H  H13  1  0.36554400  0.50268700  0.73566800  1
  H  H14  1  0.63431700  0.49629000  0.26445800  1
  H  H15  1  0.85925700  0.58726800  0.58439300  1
  H  H16  1  0.14133400  0.41153900  0.41631300  1
  H  H17  1  0.70753400  0.58606300  0.58521500  1
  H  H18  1  0.29282900  0.41375400  0.41575800  1
  H  H19  1  0.71919300  0.41147400  0.41909500  1
  H  H20  1  0.28160400  0.58674900  0.58248700  1
  H  H21  1  0.87013800  0.41111300  0.41663900  1
  H  H22  1  0.12963500  0.58589100  0.58574500  1
  H  H23  1  0.80023600  0.10854300  0.48639800  1
  H  H24  1  0.19998200  0.89056700  0.51344100  1
  H  H25  1  0.27114500  0.48756000  0.97434600  1
  H  H26  1  0.72887800  0.51298100  0.02614500  1
  C  C1  1  0.50219800  0.50175300  0.35472300  1
  C  C2  1  0.49777100  0.49839300  0.64535000  1
  C  C3  1  0.50927300  0.35146900  0.49828300  1
  C  C4  1  0.49067100  0.64868000  0.50181800  1
  C  C5  1  0.51441300  0.26677800  0.49698400  1
  C  C6  1  0.48538000  0.73346600  0.50361600  1
  C  C7  1  0.44337000  0.22699300  0.49450600  1
  C  C8  1  0.55640300  0.77332000  0.50586400  1
  C  C9  1  0.44850800  0.14754800  0.49191800  1
  C  C10  1  0.55125700  0.85283700  0.50793000  1
  C  C11  1  0.52446100  0.10626700  0.49266800  1
  C  C12  1  0.47549500  0.89411100  0.50717300  1
  C  C13  1  0.59647500  0.14612000  0.49580200  1
  C  C14  1  0.40360000  0.85421000  0.50407700  1
  C  C15  1  0.59050500  0.22613400  0.49730900  1
  C  C16  1  0.40937000  0.77424900  0.50298900  1
  C  C17  1  0.52760200  0.02174000  0.48348600  1
  C  C18  1  0.47250800  0.97878700  0.51671800  1
  C  C19  1  0.56888000  0.49365200  0.84572400  1
  C  C20  1  0.43123900  0.50635400  0.15396300  1
  C  C21  1  0.57022000  0.49377200  0.76805300  1
  C  C22  1  0.42983700  0.50609600  0.23174200  1
  C  C23  1  0.49689500  0.49777100  0.72811400  1
  C  C24  1  0.50309000  0.50231200  0.27171800  1
  C  C25  1  0.42279900  0.50087100  0.76689500  1
  C  C26  1  0.57716700  0.49906600  0.23304700  1
  C  C27  1  0.42095200  0.49999200  0.84523700  1
  C  C28  1  0.57908800  0.50018500  0.15476600  1
  C  C29  1  0.49512400  0.49679600  0.88481700  1
  C  C30  1  0.50503500  0.50337700  0.11513300  1
  C  C31  1  0.49831200  0.49906300  0.96586400  1
  C  C32  1  0.50184500  0.50105900  0.03389500  1
  C  C33  1  0.82852000  0.54853300  0.54746200  1
  C  C34  1  0.17150400  0.45201400  0.45181000  1
  C  C35  1  0.74349900  0.54746100  0.54759500  1
  C  C36  1  0.25643800  0.45285200  0.45189700  1
  C  C37  1  0.75007900  0.45018300  0.45557500  1
  C  C38  1  0.25004100  0.54927900  0.54475500  1
  C  C39  1  0.83498700  0.44993200  0.45406900  1
  C  C40  1  0.16502200  0.54955500  0.54631100  1
  C  C41  1  0.87451000  0.49920400  0.50058800  1
  C  C42  1  0.12544100  0.50129300  0.49859000  1
  C  C43  1  0.96286200  0.49935200  0.50018700  1
  C  C44  1  0.03707000  0.50015500  0.49967600  1
  C  C45  1  0.67947700  0.10619900  0.50097200  1
  C  C46  1  0.32078500  0.89402200  0.49920900  1
  C  C47  1  0.33957900  0.50319400  0.88323000  1
  C  C48  1  0.66025900  0.49709600  0.11674700  1
  N  N1  1  0.70566500  0.49885800  0.50236000  1
  N  N2  1  0.29432600  0.50135700  0.49759600  1
  O  O1  1  0.57254700  0.49805800  0.39107600  1
  O  O2  1  0.42744800  0.50170800  0.60904200  1
  O  O3  1  0.43066500  0.50466400  0.38940000  1
  O  O4  1  0.56933400  0.49566400  0.61075700  1
  O  O5  1  0.57768000  0.38718500  0.49719600  1
  O  O6  1  0.42200100  0.61277500  0.50338800  1
  O  O7  1  0.43627100  0.38815800  0.50038500  1
  O  O8  1  0.56403000  0.61185500  0.49952400  1
  O  O9  1  0.68901500  0.04165300  0.52815600  1
  O  O10  1  0.74870700  0.14399700  0.47901400  1
  O  O11  1  0.31100000  0.95852500  0.47193000  1
  O  O12  1  0.25189600  0.85582900  0.52126000  1
  O  O13  1  0.27737400  0.52081100  0.84681200  1
  O  O14  1  0.33143400  0.48335700  0.95901300  1
  O  O15  1  0.72236500  0.47950400  0.15320500  1
  O  O16  1  0.66847800  0.51683000  0.04095800  1
