# generated using pymatgen
data_ZnH11C23N5O6
_symmetry_space_group_name_H-M   'P 1'
_cell_length_a   17.57814000
_cell_length_b   8.54264200
_cell_length_c   15.01806500
_cell_angle_alpha   90.00000000
_cell_angle_beta   90.99802000
_cell_angle_gamma   90.00000000
_symmetry_Int_Tables_number   1
_chemical_formula_structural   ZnH11C23N5O6
_chemical_formula_sum   'Zn2 H22 C46 N10 O12'
_cell_volume   2254.82694956
_cell_formula_units_Z   2
loop_
 _symmetry_equiv_pos_site_id
 _symmetry_equiv_pos_as_xyz
  1  'x, y, z'
loop_
 _atom_site_type_symbol
 _atom_site_label
 _atom_site_symmetry_multiplicity
 _atom_site_fract_x
 _atom_site_fract_y
 _atom_site_fract_z
 _atom_site_occupancy
  Zn  Zn1  1  0.91514800  0.50540900  0.49950500  1
  Zn  Zn2  1  0.08485200  0.50540900  0.50049400  1
  H  H1  1  0.02338300  0.00544700  0.56389500  1
  H  H2  1  0.97661700  0.00544700  0.43610400  1
  H  H3  1  0.98813200  0.25687300  0.80165600  1
  H  H4  1  0.01194200  0.75393900  0.19838200  1
  H  H5  1  0.01186900  0.25687300  0.19834400  1
  H  H6  1  0.98805800  0.75393900  0.80161800  1
  H  H7  1  0.31801900  0.54117700  0.72280700  1
  H  H8  1  0.68198200  0.54117700  0.27719300  1
  H  H9  1  0.45049000  0.54410200  0.72267500  1
  H  H10  1  0.54951000  0.54410200  0.27732500  1
  H  H11  1  0.55934300  0.46036500  0.72116000  1
  H  H12  1  0.44065700  0.46036500  0.27883900  1
  H  H13  1  0.81253800  0.49755400  0.63503500  1
  H  H14  1  0.18746200  0.49755400  0.36496500  1
  H  H15  1  0.80808900  0.35757600  0.76818200  1
  H  H16  1  0.75906000  0.25922900  0.68688200  1
  H  H17  1  0.19191100  0.35757600  0.23181800  1
  H  H18  1  0.24094100  0.25922900  0.31311700  1
  H  H19  1  0.84939000  0.41019200  0.22364800  1
  H  H20  1  0.77778000  0.31987200  0.27685800  1
  H  H21  1  0.15061000  0.41019200  0.77635200  1
  H  H22  1  0.22222100  0.31987200  0.72314200  1
  C  C1  1  0.00086700  0.14508900  0.67617300  1
  C  C2  1  0.99918500  0.86576700  0.32385400  1
  C  C3  1  0.99913400  0.14508900  0.32382700  1
  C  C4  1  0.00081600  0.86576700  0.67614500  1
  C  C5  1  0.99204900  0.14618700  0.76721300  1
  C  C6  1  0.00800000  0.86463500  0.23281100  1
  C  C7  1  0.00795100  0.14618700  0.23278700  1
  C  C8  1  0.99200000  0.86463500  0.76718900  1
  C  C9  1  0.99170700  0.00540000  0.81353700  1
  C  C10  1  0.00829300  0.00540000  0.18646300  1
  C  C11  1  0.01058000  0.00543400  0.63316700  1
  C  C12  1  0.98942000  0.00543400  0.36683200  1
  C  C13  1  0.00605100  0.00538900  0.08888700  1
  C  C14  1  0.99394900  0.00538900  0.91111300  1
  C  C15  1  0.99989400  0.72366500  0.62191900  1
  C  C16  1  0.00007200  0.28721500  0.37803000  1
  C  C17  1  0.00010600  0.72366500  0.37808100  1
  C  C18  1  0.99992800  0.28721500  0.62197000  1
  C  C19  1  0.77889500  0.49647000  0.57444300  1
  C  C20  1  0.22110600  0.49647000  0.42555600  1
  C  C21  1  0.77505800  0.51214800  0.41897800  1
  C  C22  1  0.22494200  0.51214800  0.58102200  1
  C  C23  1  0.65820300  0.50181100  0.49848800  1
  C  C24  1  0.34179800  0.50181100  0.50151200  1
  C  C25  1  0.70013400  0.48931900  0.57670200  1
  C  C26  1  0.29986600  0.48931900  0.42329700  1
  C  C27  1  0.66268600  0.47265700  0.65633400  1
  C  C28  1  0.33731400  0.47265700  0.34366600  1
  C  C29  1  0.69620200  0.51332000  0.41930500  1
  C  C30  1  0.30379800  0.51332000  0.58069500  1
  C  C31  1  0.46225700  0.50856000  0.58028800  1
  C  C32  1  0.53774300  0.50856000  0.41971200  1
  C  C33  1  0.45836500  0.49867200  0.42044200  1
  C  C34  1  0.54163500  0.49867200  0.57955800  1
  C  C35  1  0.42095700  0.50280600  0.50076100  1
  C  C36  1  0.57904300  0.50280600  0.49923900  1
  C  C37  1  0.42297300  0.52552300  0.65913300  1
  C  C38  1  0.57702700  0.52552300  0.34086700  1
  C  C39  1  0.34498700  0.52725900  0.65928800  1
  C  C40  1  0.65501300  0.52725900  0.34071200  1
  C  C41  1  0.58456000  0.48044000  0.65755600  1
  C  C42  1  0.41544000  0.48044000  0.34244400  1
  C  C43  1  0.70300700  0.44159300  0.74098300  1
  C  C44  1  0.29699400  0.44159300  0.25901700  1
  C  C45  1  0.81427900  0.51942500  0.33375000  1
  C  C46  1  0.18572100  0.51942500  0.66625000  1
  N  N1  1  0.99720100  0.86924900  0.95604900  1
  N  N2  1  0.00279900  0.14152800  0.04395000  1
  N  N3  1  0.00280000  0.86924900  0.04395100  1
  N  N4  1  0.99720100  0.14152800  0.95605000  1
  N  N5  1  0.81520000  0.50521600  0.49646900  1
  N  N6  1  0.18480100  0.50521600  0.50353100  1
  N  N7  1  0.75492100  0.31345400  0.74888900  1
  N  N8  1  0.24508000  0.31345400  0.25111100  1
  N  N9  1  0.82939300  0.37857700  0.28618200  1
  N  N10  1  0.17060700  0.37857700  0.71381700  1
  O  O1  1  0.06482700  0.67484700  0.59042600  1
  O  O2  1  0.93516900  0.33624800  0.40942400  1
  O  O3  1  0.93517400  0.67484700  0.40957400  1
  O  O4  1  0.06483100  0.33624800  0.59057600  1
  O  O5  1  0.93368300  0.66882800  0.59437800  1
  O  O6  1  0.06625300  0.34179100  0.40574900  1
  O  O7  1  0.06631700  0.66882800  0.40562200  1
  O  O8  1  0.93374800  0.34179100  0.59425100  1
  O  O9  1  0.68495400  0.51304400  0.80764000  1
  O  O10  1  0.31504600  0.51304400  0.19236000  1
  O  O11  1  0.82222900  0.64532800  0.29679100  1
  O  O12  1  0.17777100  0.64532800  0.70320900  1
