# generated using pymatgen
data_CuH12C20N3O8
_symmetry_space_group_name_H-M   'P 1'
_cell_length_a   13.56155200
_cell_length_b   15.62442800
_cell_length_c   17.03131900
_cell_angle_alpha   83.63940100
_cell_angle_beta   91.02055400
_cell_angle_gamma   109.01944500
_symmetry_Int_Tables_number   1
_chemical_formula_structural   CuH12C20N3O8
_chemical_formula_sum   'Cu2 H24 C40 N6 O16'
_cell_volume   3390.13612490
_cell_formula_units_Z   2
loop_
 _symmetry_equiv_pos_site_id
 _symmetry_equiv_pos_as_xyz
  1  'x, y, z'
loop_
 _atom_site_type_symbol
 _atom_site_label
 _atom_site_symmetry_multiplicity
 _atom_site_fract_x
 _atom_site_fract_y
 _atom_site_fract_z
 _atom_site_occupancy
  Cu  Cu1  1  0.50679700  0.58696900  0.49328600  1
  Cu  Cu2  1  0.49187800  0.41143600  0.50019700  1
  H  H1  1  0.83585900  0.31108600  0.61788900  1
  H  H2  1  0.98296500  0.26446400  0.61229500  1
  H  H3  1  0.18549700  0.55649700  0.46766500  1
  H  H4  1  0.82429200  0.70053800  0.41809400  1
  H  H5  1  0.10678500  0.64532900  0.43137500  1
  H  H6  1  0.74663400  0.41925700  0.58510600  1
  H  H7  1  0.52017000  0.61287000  0.88354000  1
  H  H8  1  0.48791500  0.65642800  0.09490100  1
  H  H9  1  0.49860000  0.34440500  0.75014400  1
  H  H10  1  0.49251900  0.38150500  0.11518700  1
  H  H11  1  0.49225900  0.33089600  0.89408900  1
  H  H12  1  0.48806700  0.37558200  0.25602000  1
  H  H13  1  0.41435700  0.69339600  0.58508800  1
  H  H14  1  0.38942900  0.07771800  0.61597900  1
  H  H15  1  0.62087600  0.75947200  0.38994600  1
  H  H16  1  0.57557400  0.30624700  0.40427300  1
  H  H17  1  0.15522600  0.23768200  0.54530300  1
  H  H18  1  0.40603000  0.66126600  0.24237900  1
  H  H19  1  0.45076100  0.85765900  0.64095400  1
  H  H20  1  0.30747300  0.19561700  0.62622300  1
  H  H21  1  0.66139400  0.17108700  0.40913100  1
  H  H22  1  0.59658800  0.92691400  0.32302000  1
  H  H23  1  0.04328600  0.80456800  0.42166500  1
  H  H24  1  0.60455100  0.67703900  0.73491600  1
  C  C1  1  0.48818700  0.50722700  0.34505600  1
  C  C2  1  0.69948800  0.54421800  0.48768600  1
  C  C3  1  0.51103000  0.49164600  0.64835500  1
  C  C4  1  0.29931000  0.45416900  0.50872800  1
  C  C5  1  0.02534100  0.32847100  0.57853800  1
  C  C6  1  0.18565600  0.42933900  0.52070200  1
  C  C7  1  0.86591200  0.65453800  0.43997900  1
  C  C8  1  0.97042600  0.67926900  0.42360100  1
  C  C9  1  0.02514900  0.62082100  0.44708400  1
  C  C10  1  0.97648900  0.53661000  0.48994900  1
  C  C11  1  0.87046000  0.51320400  0.50919300  1
  C  C12  1  0.03048800  0.47520900  0.51452600  1
  C  C13  1  0.97684300  0.39244000  0.55686000  1
  C  C14  1  0.87509400  0.37357500  0.58075700  1
  C  C15  1  0.82355700  0.43450600  0.55968200  1
  C  C16  1  0.13684200  0.49327000  0.49834600  1
  C  C17  1  0.12822100  0.34565700  0.55930500  1
  C  C18  1  0.81403400  0.57063200  0.48037200  1
  C  C19  1  0.48604400  0.51239800  0.25815500  1
  C  C20  1  0.48814700  0.43797600  0.22167500  1
  C  C21  1  0.49091100  0.44176100  0.14031100  1
  C  C22  1  0.49129400  0.52066000  0.09423900  1
  C  C23  1  0.48766600  0.59431000  0.13035000  1
  C  C24  1  0.48437900  0.59078400  0.21141300  1
  C  C25  1  0.51549600  0.55247200  0.85636700  1
  C  C26  1  0.51934200  0.56039000  0.77502700  1
  C  C27  1  0.50562000  0.46971700  0.90004900  1
  C  C28  1  0.51331200  0.48589700  0.73552000  1
  C  C29  1  0.50511500  0.40391800  0.77926300  1
  C  C30  1  0.50141800  0.39598900  0.86075500  1
  C  C31  1  0.53217400  0.25577900  0.45010700  1
  C  C32  1  0.53275500  0.16774200  0.45082500  1
  C  C33  1  0.47999600  0.10228600  0.51143700  1
  C  C34  1  0.42875800  0.12835300  0.56821200  1
  C  C35  1  0.42874400  0.21725700  0.56510900  1
  C  C36  1  0.46489600  0.83279100  0.53784600  1
  C  C37  1  0.46195600  0.74335100  0.54005000  1
  C  C38  1  0.52589300  0.89825100  0.47996300  1
  C  C39  1  0.57693800  0.78047800  0.43172800  1
  C  C40  1  0.58241900  0.87062800  0.42751800  1
  N  N1  1  0.49607500  0.52883800  0.01077500  1
  N  N2  1  0.49912100  0.45886700  0.98380200  1
  N  N3  1  0.48033100  0.27993300  0.50592000  1
  N  N4  1  0.47554800  0.00988800  0.51919100  1
  N  N5  1  0.53156700  0.99135500  0.47117300  1
  N  N6  1  0.51827500  0.71847900  0.48764700  1
  O  O1  1  0.49444200  0.57987400  0.37952700  1
  O  O2  1  0.48688600  0.43028700  0.38500800  1
  O  O3  1  0.65720200  0.60864900  0.48899500  1
  O  O4  1  0.64343100  0.45821100  0.48776100  1
  O  O5  1  0.51035800  0.56780700  0.60829900  1
  O  O6  1  0.50662600  0.41931900  0.61370300  1
  O  O7  1  0.35523900  0.54030000  0.50457300  1
  O  O8  1  0.34176800  0.39012500  0.50642800  1
  O  O9  1  0.17454000  0.28225200  0.58458400  1
  O  O10  1  0.48060800  0.66587200  0.24397000  1
  O  O11  1  0.40700800  0.85250600  0.59355000  1
  O  O12  1  0.37821900  0.24102800  0.62344200  1
  O  O13  1  0.58791100  0.14894500  0.39228900  1
  O  O14  1  0.64226300  0.93229300  0.36951800  1
  O  O15  1  0.01992100  0.76152800  0.38134600  1
  O  O16  1  0.52888100  0.64335500  0.73481500  1
