# generated using pymatgen
data_Zn6H78C85(S3O8)3
_symmetry_space_group_name_H-M   'P 1'
_cell_length_a   21.54547200
_cell_length_b   24.94013100
_cell_length_c   25.04302000
_cell_angle_alpha   100.68839700
_cell_angle_beta   115.47161500
_cell_angle_gamma   64.41024600
_symmetry_Int_Tables_number   1
_chemical_formula_structural   Zn6H78C85(S3O8)3
_chemical_formula_sum   'Zn6 H78 C85 S9 O24'
_cell_volume   10957.09228181
_cell_formula_units_Z   1
loop_
 _symmetry_equiv_pos_site_id
 _symmetry_equiv_pos_as_xyz
  1  'x, y, z'
loop_
 _atom_site_type_symbol
 _atom_site_label
 _atom_site_symmetry_multiplicity
 _atom_site_fract_x
 _atom_site_fract_y
 _atom_site_fract_z
 _atom_site_occupancy
  Zn  Zn1  1  0.05349900  0.95300100  0.54977500  1
  Zn  Zn2  1  0.95763300  0.05142700  0.45815800  1
  Zn  Zn3  1  0.50405400  0.04914300  0.54911000  1
  Zn  Zn4  1  0.50706000  0.95162300  0.45662100  1
  Zn  Zn5  1  0.07165600  0.50200200  0.00499200  1
  Zn  Zn6  1  0.93032100  0.50177800  0.00358600  1
  H  H1  1  0.64777700  0.08959800  0.45272200  1
  H  H2  1  0.73639500  0.91358500  0.45306800  1
  H  H3  1  0.86337300  0.91410200  0.55555100  1
  H  H4  1  0.77570600  0.09025300  0.55450100  1
  H  H5  1  0.11704900  0.68056000  0.25703500  1
  H  H6  1  0.11684600  0.74759400  0.33097100  1
  H  H7  1  0.94717000  0.85738700  0.21959800  1
  H  H8  1  0.04814700  0.82394400  0.25061100  1
  H  H9  1  0.04633400  0.75371600  0.18038400  1
  H  H10  1  0.94617700  0.78522900  0.14845600  1
  H  H11  1  0.92639700  0.77012000  0.31194900  1
  H  H12  1  0.87739300  0.82535900  0.25612100  1
  H  H13  1  0.94175900  0.69407900  0.25328200  1
  H  H14  1  0.06427500  0.72208600  0.35260300  1
  H  H15  1  0.07240300  0.65048800  0.28290300  1
  H  H16  1  0.20231900  0.08650200  0.55631400  1
  H  H17  1  0.34741500  0.99462800  0.60298200  1
  H  H18  1  0.28443100  0.91031500  0.54848300  1
  H  H19  1  0.30804600  0.91396900  0.44745500  1
  H  H20  1  0.16285600  0.00538200  0.40124100  1
  H  H21  1  0.95965900  0.24954300  0.82979100  1
  H  H22  1  0.94748400  0.18678700  0.75227700  1
  H  H23  1  0.95068800  0.28364200  0.65777900  1
  H  H24  1  0.89049300  0.25897000  0.67018500  1
  H  H25  1  0.88691500  0.32085700  0.74833600  1
  H  H26  1  0.93122300  0.35493400  0.72638500  1
  H  H27  1  0.12881100  0.17909300  0.76555600  1
  H  H28  1  0.09056900  0.22719800  0.70352500  1
  H  H29  1  0.04785200  0.14617800  0.78501100  1
  H  H30  1  0.06006000  0.21546600  0.85665500  1
  H  H31  1  0.06650800  0.31011300  0.75832400  1
  H  H32  1  0.16151500  0.34082200  0.27537200  1
  H  H33  1  0.23492000  0.26912000  0.34555600  1
  H  H34  1  0.18607700  0.20926900  0.27288000  1
  H  H35  1  0.17728000  0.22426000  0.15500400  1
  H  H36  1  0.38530400  0.22154600  0.29227500  1
  H  H37  1  0.36081300  0.16702600  0.24038700  1
  H  H38  1  0.31438800  0.29174200  0.22204700  1
  H  H39  1  0.31614600  0.27827700  0.35157400  1
  H  H40  1  0.24299300  0.34952400  0.28234200  1
  H  H41  1  0.28623700  0.23876800  0.16856200  1
  H  H42  1  0.82258400  0.79319100  0.73798700  1
  H  H43  1  0.69256600  0.72075200  0.65821000  1
  H  H44  1  0.77047500  0.73261300  0.66013200  1
  H  H45  1  0.85207500  0.66867300  0.73674500  1
  H  H46  1  0.77716900  0.64782100  0.72537200  1
  H  H47  1  0.65125400  0.83386400  0.77046300  1
  H  H48  1  0.61608200  0.78698500  0.71265200  1
  H  H49  1  0.70952800  0.75554600  0.83241500  1
  H  H50  1  0.80752000  0.78738400  0.84891500  1
  H  H51  1  0.68761100  0.70594900  0.77156100  1
  H  H52  1  0.75649700  0.82624300  0.10204000  1
  H  H53  1  0.83567100  0.83913800  0.15608900  1
  H  H54  1  0.76375100  0.84080000  0.17703800  1
  H  H55  1  0.22978100  0.11181100  0.35205600  1
  H  H56  1  0.17003100  0.07645900  0.34721800  1
  H  H57  1  0.27137500  0.03894600  0.38307600  1
  H  H58  1  0.77162400  0.89773300  0.36557700  1
  H  H59  1  0.85095000  0.91524000  0.41661700  1
  H  H60  1  0.82149800  0.92076500  0.33829800  1
  H  H61  1  0.23433900  0.31285700  0.87313200  1
  H  H62  1  0.13620600  0.35765700  0.83586600  1
  H  H63  1  0.18969500  0.30551900  0.79430200  1
  H  H64  1  0.28833000  0.06696300  0.15298500  1
  H  H65  1  0.28230300  0.14112600  0.15868800  1
  H  H66  1  0.19797200  0.12633800  0.12163500  1
  H  H67  1  0.98542600  0.25355500  0.11010900  1
  H  H68  1  0.07575900  0.19280300  0.12957300  1
  H  H69  1  0.05270400  0.25568700  0.08693700  1
  H  H70  1  0.00117100  0.75414100  0.92930900  1
  H  H71  1  0.92165500  0.74888000  0.93168300  1
  H  H72  1  0.91101400  0.81478700  0.90095300  1
  H  H73  1  0.71476600  0.08619200  0.68078800  1
  H  H74  1  0.68327500  0.09826900  0.60332100  1
  H  H75  1  0.77542800  0.09555100  0.65444300  1
  H  H76  1  0.80656500  0.94214300  0.76704500  1
  H  H77  1  0.79442200  0.88847100  0.70881500  1
  H  H78  1  0.87341000  0.86611600  0.78021100  1
  C  C1  1  0.00259500  0.92185100  0.42052700  1
  C  C2  1  0.88414700  0.00305900  0.50445400  1
  C  C3  1  0.00834300  0.08261400  0.58741500  1
  C  C4  1  0.12701800  0.00116000  0.50328900  1
  C  C5  1  0.74889900  0.00191400  0.45021300  1
  C  C6  1  0.69739300  0.05011100  0.47659100  1
  C  C7  1  0.69561800  0.00159700  0.50370100  1
  C  C8  1  0.74573700  0.95352500  0.47631500  1
  C  C9  1  0.81404400  0.95374500  0.53169100  1
  C  C10  1  0.76260600  0.00177300  0.55814700  1
  C  C11  1  0.76564600  0.05034000  0.53199500  1
  C  C12  1  0.81571900  0.00232900  0.50462400  1
  C  C13  1  0.06575100  0.73842400  0.31507000  1
  C  C14  1  0.99689300  0.81560300  0.23723600  1
  C  C15  1  0.99579800  0.76786600  0.18997000  1
  C  C16  1  0.99727200  0.62998200  0.12997800  1
  C  C17  1  0.99678500  0.79505000  0.29049600  1
  C  C18  1  0.06766300  0.69138500  0.26720400  1
  C  C19  1  0.99659300  0.71493900  0.21222800  1
  C  C20  1  0.92984700  0.73221000  0.22842800  1
  C  C21  1  0.92677100  0.78357600  0.27234100  1
  C  C22  1  0.99659400  0.66842800  0.16706400  1
  C  C23  1  0.99805000  0.84101400  0.33611400  1
  C  C24  1  0.99979500  0.87829100  0.37429300  1
  C  C25  1  0.22739900  0.04706000  0.53208000  1
  C  C26  1  0.23943300  0.04813300  0.47712100  1
  C  C27  1  0.31564900  0.99925800  0.50205500  1
  C  C28  1  0.30490600  0.99726600  0.55722700  1
  C  C29  1  0.27187800  0.95120000  0.52742500  1
  C  C30  1  0.28343200  0.95322000  0.47209700  1
  C  C31  1  0.20570500  0.00293300  0.44680200  1
  C  C32  1  0.19553900  0.00088700  0.50229600  1
  C  C33  1  0.00231100  0.19014000  0.76812600  1
  C  C34  1  0.94276700  0.26692900  0.69145600  1
  C  C35  1  0.93688400  0.31269300  0.74008700  1
  C  C36  1  0.00458800  0.37399000  0.87842400  1
  C  C37  1  0.00906300  0.20940400  0.71764700  1
  C  C38  1  0.00800200  0.23563000  0.81734500  1
  C  C39  1  0.00676300  0.28935800  0.79587800  1
  C  C40  1  0.07468700  0.27238300  0.78157700  1
  C  C41  1  0.08104500  0.21904100  0.74086300  1
  C  C42  1  0.00556400  0.33570300  0.84119300  1
  C  C43  1  0.00990200  0.16346100  0.67194100  1
  C  C44  1  0.00973200  0.12618600  0.63371000  1
  C  C45  1  0.42291700  0.08155500  0.42017300  1
  C  C46  1  0.62665400  0.00162500  0.50371000  1
  C  C47  1  0.58801800  0.91920800  0.58555700  1
  C  C48  1  0.38461200  0.99908500  0.50211200  1
  C  C49  1  0.08330900  0.41994100  0.08625200  1
  C  C50  1  0.99821200  0.58432200  0.08572300  1
  C  C51  1  0.91869700  0.58382900  0.92229400  1
  C  C52  1  0.00373000  0.41949300  0.92282700  1
  C  C53  1  0.26660400  0.26907400  0.32044900  1
  C  C54  1  0.22225600  0.19860300  0.24833200  1
  C  C55  1  0.17714700  0.24362800  0.19812000  1
  C  C56  1  0.12766600  0.37445100  0.13065300  1
  C  C57  1  0.29173100  0.20933300  0.29106500  1
  C  C58  1  0.21734700  0.31694600  0.27336300  1
  C  C59  1  0.21129300  0.28935200  0.21269100  1
  C  C60  1  0.28920100  0.25876500  0.21252100  1
  C  C61  1  0.33751800  0.21090000  0.25971600  1
  C  C62  1  0.16523000  0.33605400  0.16776900  1
  C  C63  1  0.33833100  0.16303900  0.33637100  1
  C  C64  1  0.37701200  0.12551800  0.37433800  1
  C  C65  1  0.78329100  0.80324400  0.75946800  1
  C  C66  1  0.74135600  0.73189500  0.68711900  1
  C  C67  1  0.79468000  0.68556800  0.73539500  1
  C  C68  1  0.87450300  0.62898700  0.87757200  1
  C  C69  1  0.71496600  0.79209500  0.71535400  1
  C  C70  1  0.82159800  0.76193400  0.81156400  1
  C  C71  1  0.79242300  0.71296300  0.79440100  1
  C  C72  1  0.71197100  0.73985300  0.78865700  1
  C  C73  1  0.66770900  0.79178200  0.74608100  1
  C  C74  1  0.83748600  0.66696700  0.84003900  1
  C  C75  1  0.66993100  0.83794600  0.66960000  1
  C  C76  1  0.63264400  0.87529500  0.63146000  1
  C  C77  1  0.79622800  0.81885900  0.14902900  1
  C  C78  1  0.22286600  0.08232700  0.37528000  1
  C  C79  1  0.80154200  0.92708300  0.37401800  1
  C  C80  1  0.18155900  0.31356200  0.83636400  1
  C  C81  1  0.25352300  0.11389400  0.15903800  1
  C  C82  1  0.04588100  0.24157800  0.12286400  1
  C  C83  1  0.94012600  0.76574200  0.90562500  1
  C  C84  1  0.73302800  0.07696600  0.64366000  1
  C  C85  1  0.81344200  0.89515400  0.75739200  1
  S  S1  1  0.84322800  0.73901800  0.16294000  1
  S  S2  1  0.21909700  0.11660100  0.44509000  1
  S  S3  1  0.73836800  0.00435700  0.37449500  1
  S  S4  1  0.15991400  0.25528900  0.84865700  1
  S  S5  1  0.24315200  0.11951700  0.22865200  1
  S  S6  1  0.08037100  0.27971200  0.19117200  1
  S  S7  1  0.92252300  0.73098800  0.83314300  1
  S  S8  1  0.77373200  0.99702800  0.63364500  1
  S  S9  1  0.75680600  0.88009300  0.78458300  1
  O  O1  1  0.04164800  0.90295300  0.47533500  1
  O  O2  1  0.96568100  0.97830100  0.40587600  1
  O  O3  1  0.94938800  0.96452200  0.53792000  1
  O  O4  1  0.87602700  0.04189400  0.47055600  1
  O  O5  1  0.04522300  0.02615400  0.60203500  1
  O  O6  1  0.96947400  0.10148100  0.53259700  1
  O  O7  1  0.13510600  0.96257300  0.53742000  1
  O  O8  1  0.06176400  0.03980200  0.46991400  1
  O  O9  1  0.44270000  0.09993200  0.47514600  1
  O  O10  1  0.44250400  0.02526100  0.40499500  1
  O  O11  1  0.59559300  0.04002400  0.53759800  1
  O  O12  1  0.59993600  0.96334600  0.46961500  1
  O  O13  1  0.56863100  0.97550100  0.60072700  1
  O  O14  1  0.56819900  0.90082200  0.53057800  1
  O  O15  1  0.41125900  0.03738100  0.53623100  1
  O  O16  1  0.41539600  0.96080100  0.46798300  1
  O  O17  1  0.11813200  0.43835300  0.06650300  1
  O  O18  1  0.01013000  0.44044900  0.06712500  1
  O  O19  1  0.05329100  0.56369400  0.06774500  1
  O  O20  1  0.94367700  0.56577500  0.06504000  1
  O  O21  1  0.99186900  0.56330600  0.94143400  1
  O  O22  1  0.88382200  0.56544000  0.94202000  1
  O  O23  1  0.05827100  0.43803600  0.94350900  1
  O  O24  1  0.94864600  0.44011400  0.94080100  1
