# generated using pymatgen
data_Zn3H32(C4O)14
_symmetry_space_group_name_H-M   'P 1'
_cell_length_a   21.86815200
_cell_length_b   21.86545400
_cell_length_c   22.22658600
_cell_angle_alpha   60.56043200
_cell_angle_beta   119.44272900
_cell_angle_gamma   89.95778300
_symmetry_Int_Tables_number   1
_chemical_formula_structural   Zn3H32(C4O)14
_chemical_formula_sum   'Zn6 H64 C112 O28'
_cell_volume   7637.54570486
_cell_formula_units_Z   2
loop_
 _symmetry_equiv_pos_site_id
 _symmetry_equiv_pos_as_xyz
  1  'x, y, z'
loop_
 _atom_site_type_symbol
 _atom_site_label
 _atom_site_symmetry_multiplicity
 _atom_site_fract_x
 _atom_site_fract_y
 _atom_site_fract_z
 _atom_site_occupancy
  Zn  Zn1  1  0.49811200  0.43079300  0.49525700  1
  Zn  Zn2  1  0.50206400  0.56468200  0.50440400  1
  Zn  Zn3  1  0.07391100  0.99676600  0.50491900  1
  Zn  Zn4  1  0.93140000  0.00147400  0.49684400  1
  Zn  Zn5  1  0.95332800  0.54663900  0.40631000  1
  Zn  Zn6  1  0.04822600  0.45135300  0.59560000  1
  H  H1  1  0.35285600  0.79160700  0.05526300  1
  H  H2  1  0.56089600  0.62137900  0.31069800  1
  H  H3  1  0.45762100  0.63810400  0.18209000  1
  H  H4  1  0.75373100  0.50921000  0.38683000  1
  H  H5  1  0.74259400  0.49420700  0.60859000  1
  H  H6  1  0.87305700  0.38316800  0.72529000  1
  H  H7  1  0.97809800  0.36920300  0.85090200  1
  H  H8  1  0.04002700  0.46440900  0.83752700  1
  H  H9  1  0.99573100  0.57449800  0.69801700  1
  H  H10  1  0.89009200  0.58922200  0.57264000  1
  H  H11  1  0.63219000  0.26899200  0.94956700  1
  H  H12  1  0.30842000  0.74236300  0.94836500  1
  H  H13  1  0.73114400  0.12219900  0.05259700  1
  H  H14  1  0.74285000  0.30279200  0.05388400  1
  H  H15  1  0.79409400  0.34955400  0.94914300  1
  H  H16  1  0.89256000  0.20225100  0.05190700  1
  H  H17  1  0.51499900  0.16517400  0.77951300  1
  H  H18  1  0.39270200  0.18204000  0.66729400  1
  H  H19  1  0.29711000  0.30420000  0.56397400  1
  H  H20  1  0.44632400  0.39307400  0.68533300  1
  H  H21  1  0.54116400  0.27068500  0.78877100  1
  H  H22  1  0.23574300  0.38361400  0.59233700  1
  H  H23  1  0.20698000  0.89046200  0.95022400  1
  H  H24  1  0.26930900  0.60962200  0.41651800  1
  H  H25  1  0.12651800  0.65556300  0.28452100  1
  H  H26  1  0.03624300  0.77996200  0.19184400  1
  H  H27  1  0.00078600  0.83251300  0.25012700  1
  H  H28  1  0.05660500  0.76097800  0.40130800  1
  H  H29  1  0.14588900  0.63585900  0.49435600  1
  H  H30  1  0.30731300  0.70157000  0.83807600  1
  H  H31  1  0.31457000  0.69492800  0.73433400  1
  H  H32  1  0.20139800  0.71507800  0.61002400  1
  H  H33  1  0.07313100  0.75132600  0.69152900  1
  H  H34  1  0.17119900  0.77902800  0.05229100  1
  H  H35  1  0.18687100  0.72801300  0.81740800  1
  H  H36  1  0.10594700  0.63217700  0.61478700  1
  H  H37  1  0.89664200  0.86327500  0.39581300  1
  H  H38  1  0.88877900  0.84834600  0.27783500  1
  H  H39  1  0.77646300  0.86629100  0.15451800  1
  H  H40  1  0.69634700  0.78979300  0.17178300  1
  H  H41  1  0.72818200  0.69599100  0.31286300  1
  H  H42  1  0.83960600  0.67881300  0.43594400  1
  H  H43  1  0.13765800  0.28677800  0.31696700  1
  H  H44  1  0.12559600  0.27191300  0.42687800  1
  H  H45  1  0.12691700  0.72974100  0.94538400  1
  H  H46  1  0.91695300  0.23870000  0.31384600  1
  H  H47  1  0.92903800  0.25257900  0.20515900  1
  H  H48  1  0.02041000  0.35814900  0.40463700  1
  H  H49  1  0.97728800  0.14548300  0.58580400  1
  H  H50  1  0.06469000  0.15606300  0.71714900  1
  H  H51  1  0.03578500  0.15208900  0.81241300  1
  H  H52  1  0.92555400  0.24466200  0.75701900  1
  H  H53  1  0.84365200  0.34044400  0.60609200  1
  H  H54  1  0.87279600  0.34565500  0.51045700  1
  H  H55  1  0.80724800  0.09770800  0.88524000  1
  H  H56  1  0.27280300  0.63111200  0.05033800  1
  H  H57  1  0.71116200  0.13877500  0.79709700  1
  H  H58  1  0.74097600  0.04999100  0.89244600  1
  H  H59  1  0.05739000  0.27889500  0.08847300  1
  H  H60  1  0.99173900  0.37122500  0.00437800  1
  H  H61  1  0.96052500  0.29126500  0.02155100  1
  H  H62  1  0.45949600  0.54002800  0.15808300  1
  H  H63  1  0.56683000  0.42618000  0.26119100  1
  H  H64  1  0.67183800  0.41054100  0.38818300  1
  C  C1  1  0.61558200  0.50361600  0.49184900  1
  C  C2  1  0.27924500  0.71971800  0.08038800  1
  C  C3  1  0.98728900  0.19208500  0.54622800  1
  C  C4  1  0.99933300  0.19015300  0.49170900  1
  C  C5  1  0.01171600  0.25021400  0.44062700  1
  C  C6  1  0.01638900  0.19711300  0.69254000  1
  C  C7  1  0.00023600  0.19483700  0.74611200  1
  C  C8  1  0.93849600  0.24671200  0.71509900  1
  C  C9  1  0.89278000  0.30070800  0.63046300  1
  C  C10  1  0.90934200  0.30362800  0.57690100  1
  C  C11  1  0.97163900  0.25213500  0.60795600  1
  C  C12  1  0.73264800  0.14338500  0.89903900  1
  C  C13  1  0.17877600  0.74310000  0.97165300  1
  C  C14  1  0.74906000  0.10500300  0.86637200  1
  C  C15  1  0.98571500  0.31698500  0.11055000  1
  C  C16  1  0.99972500  0.31437900  0.05257900  1
  C  C17  1  0.20043500  0.80177400  0.92022400  1
  C  C18  1  0.20166800  0.77143900  0.02741300  1
  C  C19  1  0.22250400  0.83100300  0.97423700  1
  C  C20  1  0.32529000  0.67211000  0.17180500  1
  C  C21  1  0.15604900  0.84736100  0.82878400  1
  C  C22  1  0.56533900  0.46883100  0.27237200  1
  C  C23  1  0.62416000  0.46002500  0.34371200  1
  C  C24  1  0.62211800  0.51405800  0.35856200  1
  C  C25  1  0.41258200  0.58406900  0.33657400  1
  C  C26  1  0.56182300  0.57784500  0.30069200  1
  C  C27  1  0.50383500  0.58733500  0.22843200  1
  C  C28  1  0.50519300  0.53257700  0.21462900  1
  C  C29  1  0.75196900  0.50589100  0.43606300  1
  C  C30  1  0.81464100  0.50017000  0.50267200  1
  C  C31  1  0.81148100  0.49489300  0.56613100  1
  C  C32  1  0.74540200  0.49760300  0.55986500  1
  C  C33  1  0.68311700  0.50340100  0.49321400  1
  C  C34  1  0.68673900  0.50651500  0.43143800  1
  C  C35  1  0.89981900  0.42538700  0.71897600  1
  C  C36  1  0.38441000  0.49204800  0.50758300  1
  C  C37  1  0.95895000  0.41737200  0.78961100  1
  C  C38  1  0.99366200  0.47072000  0.78213800  1
  C  C39  1  0.96889100  0.53234300  0.70399600  1
  C  C40  1  0.90965100  0.54045700  0.63338900  1
  C  C41  1  0.87552700  0.48648700  0.64048900  1
  C  C42  1  0.74437100  0.17450500  0.02841600  1
  C  C43  1  0.69168700  0.25333500  0.97377700  1
  C  C44  1  0.63531200  0.36348500  0.75286300  1
  C  C45  1  0.88472000  0.11534600  0.24809600  1
  C  C46  1  0.77319200  0.20028800  0.97370700  1
  C  C47  1  0.58755400  0.41139000  0.66321600  1
  C  C48  1  0.72151700  0.27727700  0.91981500  1
  C  C49  1  0.83324600  0.21906300  0.02788200  1
  C  C50  1  0.80295500  0.19552700  0.08125400  1
  C  C51  1  0.78032900  0.29760800  0.97340000  1
  C  C52  1  0.75104700  0.27320500  0.02844200  1
  C  C53  1  0.67476800  0.32407300  0.82822300  1
  C  C54  1  0.84817300  0.15102600  0.17275300  1
  C  C55  1  0.40455900  0.22857700  0.67085700  1
  C  C56  1  0.35090100  0.29722800  0.61289400  1
  C  C57  1  0.36605700  0.35699400  0.61669800  1
  C  C58  1  0.27802500  0.75000900  0.97329500  1
  C  C59  1  0.43461900  0.34719700  0.68022700  1
  C  C60  1  0.48792800  0.27834200  0.73865000  1
  C  C61  1  0.47311200  0.21912900  0.73370900  1
  C  C62  1  0.24283500  0.43331300  0.55304000  1
  C  C63  1  0.18692300  0.50008800  0.49989200  1
  C  C64  1  0.19646700  0.56394400  0.45019100  1
  C  C65  1  0.26178300  0.55973400  0.45490000  1
  C  C66  1  0.31743300  0.49288700  0.50754200  1
  C  C67  1  0.30777800  0.42897900  0.55690700  1
  C  C68  1  0.11078300  0.67823200  0.31037600  1
  C  C69  1  0.30092500  0.77836400  0.02895300  1
  C  C70  1  0.06006500  0.74809000  0.25825800  1
  C  C71  1  0.04016800  0.77753400  0.29088800  1
  C  C72  1  0.07117300  0.73718400  0.37567700  1
  C  C73  1  0.12117700  0.66689400  0.42777300  1
  C  C74  1  0.14068700  0.63697500  0.39509000  1
  C  C75  1  0.00522000  0.87500900  0.51018100  1
  C  C76  1  0.07785300  0.92460900  0.66395000  1
  C  C77  1  0.00007400  0.12320300  0.49169000  1
  C  C78  1  0.92733700  0.07381000  0.33771800  1
  C  C79  1  0.99864900  0.61972400  0.49917500  1
  C  C80  1  0.36462500  0.63217200  0.24707700  1
  C  C81  1  0.88243100  0.49823900  0.50392000  1
  C  C82  1  0.00143200  0.37851600  0.50242200  1
  C  C83  1  0.11915300  0.50088700  0.49830100  1
  C  C84  1  0.26144800  0.70781900  0.72460300  1
  C  C85  1  0.19788100  0.71928600  0.65477200  1
  C  C86  1  0.12988100  0.73643100  0.64175000  1
  C  C87  1  0.12592400  0.74021200  0.69999100  1
  C  C88  1  0.18974000  0.72707000  0.77073900  1
  C  C89  1  0.25739400  0.71158900  0.78269300  1
  C  C90  1  0.05948000  0.68277400  0.56630600  1
  C  C91  1  0.12011200  0.88329800  0.75348300  1
  C  C92  1  0.99790500  0.68605900  0.50079100  1
  C  C93  1  0.93898900  0.75210800  0.43816000  1
  C  C94  1  0.94253000  0.81215100  0.44397700  1
  C  C95  1  0.00412200  0.80854300  0.50941500  1
  C  C96  1  0.06348800  0.74366000  0.57045200  1
  C  C97  1  0.85357500  0.81482400  0.28581500  1
  C  C98  1  0.79059500  0.82483000  0.21649200  1
  C  C99  1  0.74569900  0.78195300  0.22615000  1
  C  C100  1  0.76356500  0.72937100  0.30516900  1
  C  C101  1  0.82646800  0.71944300  0.37446600  1
  C  C102  1  0.25716300  0.69057300  0.02629000  1
  C  C103  1  0.87231100  0.76139100  0.36515100  1
  C  C104  1  0.08918800  0.27599500  0.31633300  1
  C  C105  1  0.08237000  0.26761200  0.37816900  1
  C  C106  1  0.02085700  0.25362100  0.37811300  1
  C  C107  1  0.96594100  0.24855400  0.31530000  1
  C  C108  1  0.97226000  0.25797400  0.25272200  1
  C  C109  1  0.03357300  0.27307500  0.25218500  1
  C  C110  1  0.01164600  0.31098200  0.44514600  1
  C  C111  1  0.00029900  0.31259200  0.50026400  1
  C  C112  1  0.98789900  0.25249900  0.55127300  1
  O  O1  1  0.58506800  0.45285600  0.48780400  1
  O  O2  1  0.95031300  0.90577900  0.50570300  1
  O  O3  1  0.11371400  0.94247900  0.62786200  1
  O  O4  1  0.00553100  0.94162700  0.62264100  1
  O  O5  1  0.05420100  0.09326500  0.49437900  1
  O  O6  1  0.94828000  0.09378200  0.49372800  1
  O  O7  1  0.99978400  0.05553800  0.37914600  1
  O  O8  1  0.89152200  0.05686000  0.37380500  1
  O  O9  1  0.96469300  0.62777800  0.42678600  1
  O  O10  1  0.03437200  0.55455200  0.57106100  1
  O  O11  1  0.87529900  0.53500200  0.43181000  1
  O  O12  1  0.59139200  0.55186400  0.50030500  1
  O  O13  1  0.94697400  0.45971900  0.57604900  1
  O  O14  1  0.96799600  0.44352900  0.43075600  1
  O  O15  1  0.03606300  0.37022200  0.57504200  1
  O  O16  1  0.05463900  0.53901800  0.42592800  1
  O  O17  1  0.12627500  0.46208900  0.57020400  1
  O  O18  1  0.78597200  0.16289700  0.94416100  1
  O  O19  1  0.67126400  0.15659300  0.88516100  1
  O  O20  1  0.04182800  0.28276000  0.19204600  1
  O  O21  1  0.92577700  0.35520200  0.08246500  1
  O  O22  1  0.42996600  0.51230400  0.37165000  1
  O  O23  1  0.43703600  0.61419800  0.37890200  1
  O  O24  1  0.40954200  0.44271200  0.50091000  1
  O  O25  1  0.41421600  0.54352100  0.51011600  1
  O  O26  1  0.56416100  0.38128700  0.62074900  1
  O  O27  1  0.56915300  0.48313200  0.62810100  1
  O  O28  1  0.05790000  0.90361500  0.50965700  1
