# generated using pymatgen
data_ZnH14C32NO5
_symmetry_space_group_name_H-M   'P 1'
_cell_length_a   8.52285600
_cell_length_b   13.01740000
_cell_length_c   17.46390200
_cell_angle_alpha   90.95804500
_cell_angle_beta   90.08718200
_cell_angle_gamma   95.31856400
_symmetry_Int_Tables_number   1
_chemical_formula_structural   ZnH14C32NO5
_chemical_formula_sum   'Zn2 H28 C64 N2 O10'
_cell_volume   1928.91951543
_cell_formula_units_Z   2
loop_
 _symmetry_equiv_pos_site_id
 _symmetry_equiv_pos_as_xyz
  1  'x, y, z'
loop_
 _atom_site_type_symbol
 _atom_site_label
 _atom_site_symmetry_multiplicity
 _atom_site_fract_x
 _atom_site_fract_y
 _atom_site_fract_z
 _atom_site_occupancy
  Zn  Zn1  1  0.50825400  0.50968500  0.91783800  1
  Zn  Zn2  1  0.50588200  0.49376900  0.08789000  1
  H  H1  1  0.00018100  0.42947700  0.97149300  1
  H  H2  1  0.01396500  0.57397900  0.03423400  1
  H  H3  1  0.70382600  0.16039100  0.01131200  1
  H  H4  1  0.31030400  0.84307200  0.99441500  1
  H  H5  1  0.68480800  0.00545800  0.98798300  1
  H  H6  1  0.32931400  0.99799800  0.01777800  1
  H  H7  1  0.66363900  0.82522800  0.99809900  1
  H  H8  1  0.35049000  0.17822700  0.00765900  1
  H  H9  1  0.47209800  0.35363700  0.81200700  1
  H  H10  1  0.53785700  0.64994300  0.19375000  1
  H  H11  1  0.44150300  0.25738000  0.69749500  1
  H  H12  1  0.56265900  0.74655900  0.30862400  1
  H  H13  1  0.56771500  0.76571600  0.68924600  1
  H  H14  1  0.44731500  0.23754500  0.31634300  1
  H  H15  1  0.42533300  0.15074000  0.43583500  1
  H  H16  1  0.57966200  0.85253800  0.56985600  1
  H  H17  1  0.54714600  0.67710400  0.80973200  1
  H  H18  1  0.46997900  0.32622100  0.19589600  1
  H  H19  1  0.37582500  0.93377900  0.63539800  1
  H  H20  1  0.15446700  0.80596900  0.60658000  1
  H  H21  1  0.93716600  0.85058500  0.52443400  1
  H  H22  1  0.94142500  0.02511300  0.47214500  1
  H  H23  1  0.15878900  0.15395500  0.50107100  1
  H  H24  1  0.56363700  0.03494000  0.32514600  1
  H  H25  1  0.36211600  0.07068200  0.23183700  1
  H  H26  1  0.11907300  0.95433900  0.21875600  1
  H  H27  1  0.07724700  0.80208400  0.30017700  1
  H  H28  1  0.27561400  0.76581300  0.39426000  1
  C  C1  1  0.11838500  0.29651700  0.99100300  1
  C  C2  1  0.89575100  0.70693800  0.01473400  1
  C  C3  1  0.98714700  0.34792200  0.98135500  1
  C  C4  1  0.02699500  0.65553500  0.02437400  1
  C  C5  1  0.84021300  0.29874400  0.99164400  1
  C  C6  1  0.17392700  0.70471700  0.01408100  1
  C  C7  1  0.82208000  0.19364800  0.00170600  1
  C  C8  1  0.19205200  0.80981300  0.00402400  1
  C  C9  1  0.95333600  0.13662300  0.99996200  1
  C  C10  1  0.06079300  0.86683500  0.00577800  1
  C  C11  1  0.10223300  0.19027600  0.99915100  1
  C  C12  1  0.91189700  0.81318100  0.00659200  1
  C  C13  1  0.93957600  0.02816900  0.00094600  1
  C  C14  1  0.07455000  0.97528900  0.00480000  1
  C  C15  1  0.22070300  0.03214500  0.00985400  1
  C  C16  1  0.79342200  0.97131300  0.99589900  1
  C  C17  1  0.23403500  0.13772000  0.00576700  1
  C  C18  1  0.78009300  0.86573700  0.99998600  1
  C  C19  1  0.74462200  0.64371800  0.01041500  1
  C  C20  1  0.26951600  0.35973300  0.99531900  1
  C  C21  1  0.70755800  0.36191900  0.99592500  1
  C  C22  1  0.30659200  0.64154700  0.00980200  1
  C  C23  1  0.48776400  0.42413400  0.77999900  1
  C  C24  1  0.52349600  0.57938900  0.22575200  1
  C  C25  1  0.53031300  0.60430300  0.77876900  1
  C  C26  1  0.48509500  0.39904900  0.22690300  1
  C  C27  1  0.46328200  0.32551600  0.66350400  1
  C  C28  1  0.54127300  0.67812800  0.34231600  1
  C  C29  1  0.48676900  0.41953500  0.70118500  1
  C  C30  1  0.52262100  0.58397300  0.30456200  1
  C  C31  1  0.50852000  0.50893900  0.66060200  1
  C  C32  1  0.50270600  0.49442700  0.34509400  1
  C  C33  1  0.53031500  0.60207900  0.69950400  1
  C  C34  1  0.48374500  0.40122500  0.30615800  1
  C  C35  1  0.55102400  0.69233600  0.65904500  1
  C  C36  1  0.46316700  0.31091700  0.34657300  1
  C  C37  1  0.44131800  0.22648100  0.54501300  1
  C  C38  1  0.55304700  0.77725000  0.46081700  1
  C  C39  1  0.46482600  0.32042900  0.58419500  1
  C  C40  1  0.53783300  0.68308100  0.42156500  1
  C  C41  1  0.48561400  0.41098700  0.54346300  1
  C  C42  1  0.52236500  0.59235800  0.46224700  1
  C  C43  1  0.44133800  0.22416200  0.46601800  1
  C  C44  1  0.56397200  0.77925500  0.53959800  1
  C  C45  1  0.46287900  0.31437600  0.42567300  1
  C  C46  1  0.54787100  0.68890400  0.57995200  1
  C  C47  1  0.50694700  0.50506200  0.58171800  1
  C  C48  1  0.50324300  0.49824600  0.42397600  1
  C  C49  1  0.52553700  0.59544600  0.54125800  1
  C  C50  1  0.48414400  0.40785000  0.46442400  1
  C  C51  1  0.42088800  0.12822100  0.58542500  1
  C  C52  1  0.28689000  0.05192700  0.56792900  1
  C  C53  1  0.28216400  0.95442600  0.59859800  1
  C  C54  1  0.15709600  0.88221200  0.58274100  1
  C  C55  1  0.03529700  0.90718100  0.53676800  1
  C  C56  1  0.03780200  0.00482900  0.50734900  1
  C  C57  1  0.16251700  0.07727000  0.52311200  1
  C  C58  1  0.55701700  0.87628800  0.42148000  1
  C  C59  1  0.43529400  0.89698000  0.36543300  1
  C  C60  1  0.45718200  0.98324200  0.32019500  1
  C  C61  1  0.34399000  0.00352400  0.26745200  1
  C  C62  1  0.20786200  0.93827000  0.26002500  1
  C  C63  1  0.18465800  0.85281400  0.30554700  1
  C  C64  1  0.29780100  0.83210500  0.35820300  1
  N  N1  1  0.50942400  0.51552200  0.81760000  1
  N  N2  1  0.50468000  0.48792300  0.18812500  1
  O  O1  1  0.68958900  0.60073000  0.07349700  1
  O  O2  1  0.32452700  0.40274300  0.93224800  1
  O  O3  1  0.68626800  0.61832800  0.94227600  1
  O  O4  1  0.32789800  0.38510800  0.06344700  1
  O  O5  1  0.66383800  0.40419700  0.93269000  1
  O  O6  1  0.35028300  0.59924800  0.07303100  1
  O  O7  1  0.65557400  0.38655000  0.06394400  1
  O  O8  1  0.35860400  0.61693000  0.94178800  1
  O  O9  1  0.52036200  0.10764800  0.63157300  1
  O  O10  1  0.65529900  0.94591100  0.44082400  1
