# generated using pymatgen
data_Zn2H23C44N5O13
_symmetry_space_group_name_H-M   'P 1'
_cell_length_a   18.96139900
_cell_length_b   8.53556400
_cell_length_c   13.43731200
_cell_angle_alpha   90.00000000
_cell_angle_beta   101.86816900
_cell_angle_gamma   90.00000000
_symmetry_Int_Tables_number   1
_chemical_formula_structural   Zn2H23C44N5O13
_chemical_formula_sum   'Zn2 H23 C44 N5 O13'
_cell_volume   2128.28896733
_cell_formula_units_Z   1
loop_
 _symmetry_equiv_pos_site_id
 _symmetry_equiv_pos_as_xyz
  1  'x, y, z'
loop_
 _atom_site_type_symbol
 _atom_site_label
 _atom_site_symmetry_multiplicity
 _atom_site_fract_x
 _atom_site_fract_y
 _atom_site_fract_z
 _atom_site_occupancy
  Zn  Zn1  1  0.51161700  0.51623600  0.89671100  1
  Zn  Zn2  1  0.50710700  0.52088100  0.11797200  1
  H  H1  1  0.91257800  0.29020400  0.84271000  1
  H  H2  1  0.98562600  0.75343100  0.20912600  1
  H  H3  1  0.03744100  0.28772900  0.82692500  1
  H  H4  1  0.11100100  0.75279600  0.19445000  1
  H  H5  1  0.27180200  0.76663100  0.98388500  1
  H  H6  1  0.27291800  0.26737400  0.99604600  1
  H  H7  1  0.75032800  0.27187300  0.05102400  1
  H  H8  1  0.74993800  0.77082600  0.03300200  1
  H  H9  1  0.45520100  0.02118800  0.93973400  1
  H  H10  1  0.56063300  0.01552800  0.06334100  1
  H  H11  1  0.39331300  0.56434900  0.22220200  1
  H  H12  1  0.68190600  0.45419200  0.63753000  1
  H  H13  1  0.38904500  0.57512800  0.39890200  1
  H  H14  1  0.39419100  0.59580300  0.55426300  1
  H  H15  1  0.61698900  0.48930500  0.29235900  1
  H  H16  1  0.40336000  0.57973500  0.73182300  1
  H  H17  1  0.64302000  0.21058300  0.67654700  1
  H  H18  1  0.55129400  0.22012300  0.69549700  1
  H  H19  1  0.67924100  0.11664500  0.85855000  1
  H  H20  1  0.58378400  0.09432300  0.85757500  1
  H  H21  1  0.57137400  0.92294900  0.70597900  1
  H  H22  1  0.63671000  0.84686600  0.81243400  1
  H  H23  1  0.66701600  0.94245700  0.70926500  1
  C  C1  1  0.88139000  0.92723300  0.09928300  1
  C  C2  1  0.85605800  0.11734400  0.97101200  1
  C  C3  1  0.92730900  0.11797400  0.96188300  1
  C  C4  1  0.95317300  0.92567800  0.09210100  1
  C  C5  1  0.97606600  0.02147800  0.02275400  1
  C  C6  1  0.94989000  0.21359200  0.89152500  1
  C  C7  1  0.00224600  0.82944300  0.15387700  1
  C  C8  1  0.02095300  0.21217900  0.88251300  1
  C  C9  1  0.07358400  0.82910100  0.14554200  1
  C  C10  1  0.06987400  0.11555300  0.94404600  1
  C  C11  1  0.09624600  0.92447700  0.07506100  1
  C  C12  1  0.04729000  0.02054100  0.01403600  1
  C  C13  1  0.14117800  0.11237000  0.93536600  1
  C  C14  1  0.16754400  0.92515400  0.06538300  1
  C  C15  1  0.29785400  0.87772100  0.97763700  1
  C  C16  1  0.29799400  0.15815000  0.98190500  1
  C  C17  1  0.36710500  0.87945500  0.96015700  1
  C  C18  1  0.36701900  0.15906100  0.96427200  1
  C  C19  1  0.40005900  0.02012900  0.94923400  1
  C  C20  1  0.26203900  0.01760500  0.98447800  1
  C  C21  1  0.72342200  0.16046000  0.05194300  1
  C  C22  1  0.72345500  0.87968500  0.04405700  1
  C  C23  1  0.65148000  0.15774600  0.05696800  1
  C  C24  1  0.65194000  0.87827500  0.05161000  1
  C  C25  1  0.61720600  0.01692600  0.06123900  1
  C  C26  1  0.76002700  0.02091200  0.04687600  1
  C  C27  1  0.41171600  0.73857400  0.97389300  1
  C  C28  1  0.41065300  0.30109400  0.97747100  1
  C  C29  1  0.60849600  0.73565200  0.03757700  1
  C  C30  1  0.60715600  0.29892500  0.04169400  1
  C  C31  1  0.56683400  0.50751600  0.31696200  1
  C  C32  1  0.44272400  0.54997500  0.27810800  1
  C  C33  1  0.44087300  0.55687600  0.38016000  1
  C  C34  1  0.50362700  0.53546900  0.45305600  1
  C  C35  1  0.56680500  0.50941700  0.41948200  1
  C  C36  1  0.44573400  0.56295300  0.59916100  1
  C  C37  1  0.50535200  0.53385100  0.55757200  1
  C  C38  1  0.56877300  0.49523200  0.62329000  1
  C  C39  1  0.63092100  0.47548300  0.58627500  1
  C  C40  1  0.45124800  0.55609200  0.70295700  1
  C  C41  1  0.56976400  0.46927800  0.72554000  1
  C  C42  1  0.60897400  0.22873600  0.73326800  1
  C  C43  1  0.62532900  0.09792400  0.81054900  1
  C  C44  1  0.62500200  0.94256000  0.75577600  1
  N  N1  1  0.83404300  0.02244300  0.03907000  1
  N  N2  1  0.18880500  0.01802400  0.99569700  1
  N  N3  1  0.50510700  0.52467200  0.24785400  1
  N  N4  1  0.62894600  0.48338200  0.48601900  1
  N  N5  1  0.51310200  0.51297500  0.76624500  1
  O  O1  1  0.85894400  0.83645400  0.16833600  1
  O  O2  1  0.80813500  0.20807700  0.90934100  1
  O  O3  1  0.16282000  0.20029500  0.86428100  1
  O  O4  1  0.21618500  0.83645600  0.12754700  1
  O  O5  1  0.43427900  0.68934500  0.06728400  1
  O  O6  1  0.43342900  0.35254300  0.07062200  1
  O  O7  1  0.43607600  0.68272600  0.89637400  1
  O  O8  1  0.43465900  0.35423300  0.89900900  1
  O  O9  1  0.58554400  0.68448700  0.94420900  1
  O  O10  1  0.58431600  0.34720600  0.94776400  1
  O  O11  1  0.58386200  0.68338800  0.11579600  1
  O  O12  1  0.58297300  0.35508600  0.11921500  1
  O  O13  1  0.62301200  0.37639500  0.77942600  1
