# generated using pymatgen
data_FeH12C23NO8
_symmetry_space_group_name_H-M   'P 1'
_cell_length_a   16.03109700
_cell_length_b   11.57453000
_cell_length_c   15.92971800
_cell_angle_alpha   89.35298100
_cell_angle_beta   99.38468800
_cell_angle_gamma   88.32318200
_symmetry_Int_Tables_number   1
_chemical_formula_structural   FeH12C23NO8
_chemical_formula_sum   'Fe2 H24 C46 N2 O16'
_cell_volume   2914.60103319
_cell_formula_units_Z   2
loop_
 _symmetry_equiv_pos_site_id
 _symmetry_equiv_pos_as_xyz
  1  'x, y, z'
loop_
 _atom_site_type_symbol
 _atom_site_label
 _atom_site_symmetry_multiplicity
 _atom_site_fract_x
 _atom_site_fract_y
 _atom_site_fract_z
 _atom_site_occupancy
  Fe  Fe1  1  0.49529600  0.97638200  0.82091100  1
  Fe  Fe2  1  0.49619300  0.01740800  0.17440100  1
  H  H1  1  0.21257500  0.99056800  0.79684000  1
  H  H2  1  0.07191300  0.97666700  0.83644700  1
  H  H3  1  0.17460800  0.03093400  0.09488100  1
  H  H4  1  0.92432700  0.98624100  0.16006300  1
  H  H5  1  0.48772700  0.22110600  0.40877000  1
  H  H6  1  0.46532900  0.20177300  0.53091600  1
  H  H7  1  0.52709500  0.79268500  0.46544400  1
  H  H8  1  0.50590600  0.77311300  0.58754600  1
  H  H9  1  0.47275500  0.45484300  0.20226300  1
  H  H10  1  0.48183100  0.65029600  0.22163200  1
  H  H11  1  0.51066900  0.34443900  0.77482700  1
  H  H12  1  0.52085600  0.53990600  0.79409800  1
  H  H13  1  0.82102900  0.78385300  0.88292300  1
  H  H14  1  0.92165400  0.84749000  0.87759500  1
  H  H15  1  0.84093200  0.84778900  0.78457300  1
  H  H16  1  0.86067300  0.13465900  0.88885400  1
  H  H17  1  0.80600200  0.09633500  0.78577700  1
  H  H18  1  0.91243200  0.04127200  0.82077400  1
  H  H19  1  0.76860300  0.79058000  0.21587000  1
  H  H20  1  0.68780700  0.87412700  0.25766400  1
  H  H21  1  0.78974100  0.84697200  0.32207600  1
  H  H22  1  0.75060400  0.14323600  0.21173300  1
  H  H23  1  0.82095500  0.10233300  0.30823400  1
  H  H24  1  0.71152100  0.06330100  0.29511800  1
  C  C1  1  0.20503200  0.99982000  0.86265800  1
  C  C2  1  0.12587200  0.99246200  0.88469200  1
  C  C3  1  0.11552300  0.00521200  0.96809500  1
  C  C4  1  0.18456400  0.02393900  0.02965900  1
  C  C5  1  0.26497100  0.03064600  0.00859600  1
  C  C6  1  0.27456100  0.02047200  0.92341600  1
  C  C7  1  0.03284300  0.99631600  0.99091500  1
  C  C8  1  0.96269800  0.98871400  0.00831900  1
  C  C9  1  0.80788100  0.97273300  0.96452500  1
  C  C10  1  0.72660100  0.96922100  0.98667300  1
  C  C11  1  0.71851400  0.96825100  0.07336100  1
  C  C12  1  0.79079500  0.97336200  0.13538100  1
  C  C13  1  0.86893600  0.98139900  0.11157200  1
  C  C14  1  0.87837000  0.98042000  0.02770700  1
  C  C15  1  0.48061700  0.14851400  0.69299700  1
  C  C16  1  0.35629200  0.02820800  0.89455800  1
  C  C17  1  0.65116300  0.97191200  0.91752300  1
  C  C18  1  0.51406000  0.76404600  0.75296900  1
  C  C19  1  0.47977300  0.23075200  0.24285400  1
  C  C20  1  0.33738700  0.03733100  0.07853000  1
  C  C21  1  0.63526300  0.96314300  0.10032500  1
  C  C22  1  0.51066700  0.84646400  0.30380400  1
  C  C23  1  0.47867800  0.32797300  0.30124300  1
  C  C24  1  0.47673800  0.43890300  0.26975800  1
  C  C25  1  0.48445400  0.53055100  0.32418200  1
  C  C26  1  0.48733800  0.63932500  0.28977500  1
  C  C27  1  0.50299500  0.73230700  0.34178800  1
  C  C28  1  0.48354200  0.30967600  0.38764400  1
  C  C29  1  0.48731400  0.40227600  0.44386700  1
  C  C30  1  0.49110100  0.51367900  0.41132100  1
  C  C31  1  0.50238200  0.60834900  0.46466200  1
  C  C32  1  0.48051000  0.27746600  0.56788100  1
  C  C33  1  0.49074900  0.38587000  0.53172600  1
  C  C34  1  0.50219600  0.48057200  0.58506100  1
  C  C35  1  0.48916400  0.26232300  0.65475000  1
  C  C36  1  0.50534900  0.35527400  0.70668900  1
  C  C37  1  0.51209000  0.71691200  0.42857200  1
  C  C38  1  0.50609200  0.59190600  0.55248000  1
  C  C39  1  0.51011500  0.68455700  0.60860500  1
  C  C40  1  0.50880600  0.46388900  0.67222000  1
  C  C41  1  0.51690000  0.55564500  0.72658100  1
  C  C42  1  0.51521300  0.66648800  0.69495500  1
  C  C43  1  0.85268100  0.85521000  0.85484200  1
  C  C44  1  0.85157800  0.06445500  0.84176400  1
  C  C45  1  0.75646200  0.86457400  0.25631900  1
  C  C46  1  0.76622600  0.07495300  0.26166900  1
  N  N1  1  0.81807900  0.96449000  0.87791500  1
  N  N2  1  0.78838500  0.96827100  0.22388000  1
  O  O1  1  0.51617600  0.12891500  0.77234100  1
  O  O2  1  0.39818900  0.12424200  0.90389400  1
  O  O3  1  0.43579800  0.06928600  0.64988700  1
  O  O4  1  0.38566000  0.94054500  0.85546000  1
  O  O5  1  0.57379800  0.95875400  0.93238700  1
  O  O6  1  0.66001900  0.99279200  0.83845300  1
  O  O7  1  0.50989800  0.87145900  0.72459900  1
  O  O8  1  0.51164100  0.74405800  0.83376700  1
  O  O9  1  0.48375100  0.12323900  0.27088900  1
  O  O10  1  0.48155600  0.25116200  0.16198100  1
  O  O11  1  0.41574700  0.03430100  0.06411300  1
  O  O12  1  0.32384500  0.03508100  0.15756900  1
  O  O13  1  0.55408800  0.92654700  0.34738900  1
  O  O14  1  0.60476900  0.05239100  0.13712400  1
  O  O15  1  0.47584500  0.86536800  0.22419900  1
  O  O16  1  0.59402100  0.86644800  0.09321600  1
