# generated using pymatgen
data_Fe2H13C36N5O17
_symmetry_space_group_name_H-M   'P 1'
_cell_length_a   9.33187100
_cell_length_b   17.21745200
_cell_length_c   15.05025900
_cell_angle_alpha   106.23239100
_cell_angle_beta   87.38157700
_cell_angle_gamma   77.01883900
_symmetry_Int_Tables_number   1
_chemical_formula_structural   Fe2H13C36N5O17
_chemical_formula_sum   'Fe2 H13 C36 N5 O17'
_cell_volume   2247.15104502
_cell_formula_units_Z   1
loop_
 _symmetry_equiv_pos_site_id
 _symmetry_equiv_pos_as_xyz
  1  'x, y, z'
loop_
 _atom_site_type_symbol
 _atom_site_label
 _atom_site_symmetry_multiplicity
 _atom_site_fract_x
 _atom_site_fract_y
 _atom_site_fract_z
 _atom_site_occupancy
  Fe  Fe1  1  0.50999800  0.98136500  0.32938300  1
  Fe  Fe2  1  0.48599100  0.00605500  0.66689500  1
  H  H1  1  0.30723000  0.05567900  0.92827300  1
  H  H2  1  0.93915000  0.03571900  0.71680600  1
  H  H3  1  0.06203500  0.96115900  0.28839000  1
  H  H4  1  0.76560000  0.97988400  0.94656600  1
  H  H5  1  0.77661100  0.98559300  0.08357000  1
  H  H6  1  0.15976500  0.43689100  0.68591000  1
  H  H7  1  0.28664100  0.32500400  0.74110600  1
  H  H8  1  0.78843300  0.54793900  0.31235700  1
  H  H9  1  0.64903600  0.66187300  0.26399300  1
  H  H10  1  0.81328700  0.71760100  0.57589000  1
  H  H11  1  0.23050100  0.32912300  0.35663500  1
  H  H12  1  0.19139300  0.22949600  0.34412700  1
  H  H13  1  0.45530000  0.28133200  0.34236600  1
  C  C1  1  0.95148000  0.02942600  0.78563400  1
  C  C2  1  0.83836500  0.01133800  0.83158500  1
  C  C3  1  0.85543500  0.99714700  0.91644000  1
  C  C4  1  0.08422200  0.03144300  0.82267200  1
  C  C5  1  0.09723300  0.02314300  0.91236000  1
  C  C6  1  0.98225700  0.00565600  0.95979000  1
  C  C7  1  0.99855700  0.99578800  0.04887800  1
  C  C8  1  0.88580700  0.98352800  0.10365400  1
  C  C9  1  0.90848700  0.97182700  0.18955700  1
  C  C10  1  0.22143700  0.03408600  0.95680000  1
  C  C11  1  0.13085300  0.00057700  0.08572100  1
  C  C12  1  0.15461300  0.98607400  0.17071200  1
  C  C13  1  0.04451900  0.96976500  0.22100000  1
  C  C14  1  0.78586800  0.96693000  0.25028700  1
  C  C15  1  0.58374000  0.82489400  0.35379200  1
  C  C16  1  0.29284200  0.99121800  0.21170800  1
  C  C17  1  0.35410200  0.13471400  0.44671300  1
  C  C18  1  0.65119300  0.85233400  0.55163100  1
  C  C19  1  0.70348100  0.00128400  0.78771300  1
  C  C20  1  0.38704600  0.16391600  0.64760500  1
  C  C21  1  0.20802700  0.03694400  0.76128700  1
  C  C22  1  0.31513600  0.21898600  0.51246400  1
  C  C23  1  0.25221800  0.28530900  0.47943800  1
  C  C24  1  0.18824600  0.36362500  0.54264700  1
  C  C25  1  0.20671800  0.37660600  0.63568100  1
  C  C26  1  0.27795800  0.31223200  0.66735100  1
  C  C27  1  0.32819200  0.23223800  0.60734600  1
  C  C28  1  0.90900700  0.55671100  0.47322500  1
  C  C29  1  0.09212900  0.43199200  0.51607100  1
  C  C30  1  0.76157200  0.61006000  0.36098600  1
  C  C31  1  0.68162300  0.67529500  0.33354800  1
  C  C32  1  0.64796900  0.75633400  0.39246500  1
  C  C33  1  0.69113400  0.77020900  0.48202900  1
  C  C34  1  0.77750500  0.70513500  0.50714400  1
  C  C35  1  0.81373600  0.62498600  0.44691400  1
  C  C36  1  0.26306800  0.27072700  0.37563600  1
  N  N1  1  0.23669500  0.02068100  0.03980200  1
  N  N2  1  0.08351600  0.51188900  0.56422700  1
  N  N3  1  0.99341700  0.57348100  0.54288300  1
  N  N4  1  0.91457900  0.47689800  0.42672300  1
  N  N5  1  0.00362100  0.41538100  0.44867500  1
  O  O1  1  0.65162700  0.97830200  0.22587300  1
  O  O2  1  0.57244800  0.80796700  0.26418200  1
  O  O3  1  0.80711300  0.95845800  0.33301500  1
  O  O4  1  0.55512100  0.90328100  0.40485400  1
  O  O5  1  0.33147400  0.95150300  0.27324500  1
  O  O6  1  0.36901500  0.04232700  0.19571600  1
  O  O7  1  0.49313200  0.09640100  0.41519300  1
  O  O8  1  0.24877700  0.09728100  0.42004400  1
  O  O9  1  0.51105000  0.89167400  0.57733800  1
  O  O10  1  0.75531400  0.88460100  0.59120400  1
  O  O11  1  0.66104900  0.03922100  0.72520100  1
  O  O12  1  0.62880500  0.95112600  0.80785300  1
  O  O13  1  0.17830900  0.06480600  0.68981200  1
  O  O14  1  0.43474600  0.08640600  0.59461100  1
  O  O15  1  0.34655000  0.00275700  0.76821000  1
  O  O16  1  0.38416200  0.17994300  0.73829300  1
  O  O17  1  0.40945500  0.23380500  0.33630600  1
