# generated using pymatgen
data_Zn2H24C45(N2O5)2
_symmetry_space_group_name_H-M   'P 1'
_cell_length_a   13.43019200
_cell_length_b   15.28472900
_cell_length_c   11.77296000
_cell_angle_alpha   90.00000000
_cell_angle_beta   90.14538300
_cell_angle_gamma   90.00000000
_symmetry_Int_Tables_number   1
_chemical_formula_structural   Zn2H24C45(N2O5)2
_chemical_formula_sum   'Zn2 H24 C45 N4 O10'
_cell_volume   2416.70830677
_cell_formula_units_Z   1
loop_
 _symmetry_equiv_pos_site_id
 _symmetry_equiv_pos_as_xyz
  1  'x, y, z'
loop_
 _atom_site_type_symbol
 _atom_site_label
 _atom_site_symmetry_multiplicity
 _atom_site_fract_x
 _atom_site_fract_y
 _atom_site_fract_z
 _atom_site_occupancy
  Zn  Zn1  1  0.88970800  0.49816000  0.49064700  1
  Zn  Zn2  1  0.11181800  0.49880300  0.50636100  1
  H  H1  1  0.13778300  0.18406400  0.90504100  1
  H  H2  1  0.13474100  0.81068400  0.90932200  1
  H  H3  1  0.83469600  0.27364000  0.70094700  1
  H  H4  1  0.83394300  0.72420900  0.69873900  1
  H  H5  1  0.14337200  0.31005400  0.77942600  1
  H  H6  1  0.13976600  0.68419100  0.78501900  1
  H  H7  1  0.83148200  0.14543200  0.82408600  1
  H  H8  1  0.83056200  0.85295500  0.82126600  1
  H  H9  1  0.86133500  0.19257500  0.08434200  1
  H  H10  1  0.86035400  0.80471300  0.08515800  1
  H  H11  1  0.16359000  0.26931200  0.29883100  1
  H  H12  1  0.16244800  0.72922300  0.30070000  1
  H  H13  1  0.86060700  0.32048400  0.20705600  1
  H  H14  1  0.85974200  0.67713900  0.20849100  1
  H  H15  1  0.16258700  0.14015900  0.17690400  1
  H  H16  1  0.16135400  0.85793800  0.17814400  1
  H  H17  1  0.95613400  0.99839500  0.79509500  1
  H  H18  1  0.03610500  0.99888400  0.20224400  1
  H  H19  1  0.73768700  0.48782600  0.30727400  1
  H  H20  1  0.57560600  0.47816200  0.21907900  1
  H  H21  1  0.43638800  0.52599900  0.68740900  1
  H  H22  1  0.58712500  0.50183300  0.68370000  1
  H  H23  1  0.25093500  0.48299900  0.33698400  1
  H  H24  1  0.76040300  0.50227400  0.66312300  1
  C  C1  1  0.98906600  0.30187100  0.73225100  1
  C  C2  1  0.98718800  0.69407400  0.73397000  1
  C  C3  1  0.98425800  0.07697300  0.94124600  1
  C  C4  1  0.98290300  0.92003700  0.94178300  1
  C  C5  1  0.07062300  0.20481000  0.86198200  1
  C  C6  1  0.06789900  0.79069000  0.86505300  1
  C  C7  1  0.90147500  0.25555800  0.74664300  1
  C  C8  1  0.90011000  0.74158300  0.74605500  1
  C  C9  1  0.07368300  0.27591600  0.79021000  1
  C  C10  1  0.07085300  0.71928500  0.79389500  1
  C  C11  1  0.98373200  0.15773800  0.87460700  1
  C  C12  1  0.98172200  0.83897200  0.87552100  1
  C  C13  1  0.89940800  0.18283600  0.81599800  1
  C  C14  1  0.89800900  0.81465500  0.81504100  1
  C  C15  1  0.01232300  0.30447800  0.26119900  1
  C  C16  1  0.01126600  0.69371600  0.26297600  1
  C  C17  1  0.00877100  0.07723000  0.05559500  1
  C  C18  1  0.00777100  0.92014500  0.05611100  1
  C  C19  1  0.92857000  0.21039900  0.12942000  1
  C  C20  1  0.92751300  0.78718900  0.13055700  1
  C  C21  1  0.09734300  0.25410900  0.25042800  1
  C  C22  1  0.09618900  0.74419400  0.25217800  1
  C  C23  1  0.92810100  0.28241200  0.19983100  1
  C  C24  1  0.92709200  0.71539700  0.20132300  1
  C  C25  1  0.01256800  0.15881600  0.12090000  1
  C  C26  1  0.01142000  0.83887400  0.12199700  1
  C  C27  1  0.09683500  0.18075200  0.18195700  1
  C  C28  1  0.09563400  0.81730300  0.18334500  1
  C  C29  1  0.97063100  0.99847000  0.88547800  1
  C  C30  1  0.02092200  0.99875400  0.11201700  1
  C  C31  1  0.99244500  0.62094500  0.65330900  1
  C  C32  1  0.99340600  0.37483000  0.65153900  1
  C  C33  1  0.00795600  0.62126800  0.34447700  1
  C  C34  1  0.00864500  0.37682100  0.34293000  1
  C  C35  1  0.29182400  0.48982500  0.41551800  1
  C  C36  1  0.29653400  0.51377700  0.61135400  1
  C  C37  1  0.39898700  0.51383300  0.60836900  1
  C  C38  1  0.45009000  0.50014200  0.50835900  1
  C  C39  1  0.39493300  0.49060800  0.41059700  1
  C  C40  1  0.61443500  0.50118100  0.59799300  1
  C  C41  1  0.55393200  0.49820500  0.50264100  1
  C  C42  1  0.59922800  0.49159600  0.39785100  1
  C  C43  1  0.54098400  0.48402300  0.30152300  1
  C  C44  1  0.71582700  0.50075400  0.58677600  1
  C  C45  1  0.70249100  0.49217400  0.38955500  1
  N  N1  1  0.24263600  0.49907100  0.51509500  1
  N  N2  1  0.44090500  0.48279800  0.30952400  1
  N  N3  1  0.75917200  0.49787100  0.48403300  1
  N  N4  1  0.25133300  0.53409100  0.71785400  1
  O  O1  1  0.08010400  0.59269800  0.62096500  1
  O  O2  1  0.08078000  0.40331600  0.61885800  1
  O  O3  1  0.90926300  0.58950900  0.61207600  1
  O  O4  1  0.90979700  0.40632700  0.61133800  1
  O  O5  1  0.92002900  0.59284700  0.37681200  1
  O  O6  1  0.92058600  0.40442200  0.37571400  1
  O  O7  1  0.09238000  0.59055700  0.38529400  1
  O  O8  1  0.09276100  0.40787500  0.38410900  1
  O  O9  1  0.29435400  0.59183900  0.78258900  1
  O  O10  1  0.19124400  0.47851200  0.76495600  1
