# generated using pymatgen
data_ZnH16C19NO4
_symmetry_space_group_name_H-M   'P 1'
_cell_length_a   8.43298900
_cell_length_b   11.47808000
_cell_length_c   15.08255800
_cell_angle_alpha   98.83310800
_cell_angle_beta   89.84883900
_cell_angle_gamma   83.57474200
_symmetry_Int_Tables_number   1
_chemical_formula_structural   ZnH16C19NO4
_chemical_formula_sum   'Zn2 H32 C38 N2 O8'
_cell_volume   1433.24069061
_cell_formula_units_Z   2
loop_
 _symmetry_equiv_pos_site_id
 _symmetry_equiv_pos_as_xyz
  1  'x, y, z'
loop_
 _atom_site_type_symbol
 _atom_site_label
 _atom_site_symmetry_multiplicity
 _atom_site_fract_x
 _atom_site_fract_y
 _atom_site_fract_z
 _atom_site_occupancy
  Zn  Zn1  1  0.51129300  0.86905500  0.49928900  1
  Zn  Zn2  1  0.48809600  0.13002200  0.49686500  1
  H  H1  1  0.99010500  0.06073000  0.56592600  1
  H  H2  1  0.00950300  0.93755300  0.43015100  1
  H  H3  1  0.74951600  0.99769600  0.79850600  1
  H  H4  1  0.24936000  0.00267800  0.19799600  1
  H  H5  1  0.25088900  0.02557600  0.80279200  1
  H  H6  1  0.74809300  0.97464900  0.19386000  1
  H  H7  1  0.07825000  0.17430800  0.94023100  1
  H  H8  1  0.91966300  0.82700000  0.05670900  1
  H  H9  1  0.23027600  0.28513800  0.49403900  1
  H  H10  1  0.76931700  0.71301300  0.49591400  1
  H  H11  1  0.82463600  0.50573100  0.49433100  1
  H  H12  1  0.17522000  0.49322300  0.49772300  1
  H  H13  1  0.83001200  0.28296000  0.12034800  1
  H  H14  1  0.87989800  0.20508100  0.21389000  1
  H  H15  1  0.94746100  0.34824600  0.21100500  1
  H  H16  1  0.16742300  0.18398500  0.16852800  1
  H  H17  1  0.11911100  0.26952100  0.08071700  1
  H  H18  1  0.14317400  0.79877700  0.80180000  1
  H  H19  1  0.16143200  0.70348100  0.88677400  1
  H  H20  1  0.05997700  0.65833200  0.78371100  1
  H  H21  1  0.87541900  0.73276900  0.91566900  1
  H  H22  1  0.84123300  0.81560400  0.82493100  1
  H  H23  1  0.81332800  0.42991900  0.62070500  1
  H  H24  1  0.78294200  0.28808800  0.64833000  1
  H  H25  1  0.96988600  0.30757900  0.59743600  1
  H  H26  1  0.78605000  0.19841800  0.49347500  1
  H  H27  1  0.84943300  0.31958600  0.45292300  1
  H  H28  1  0.20869000  0.62403700  0.62709300  1
  H  H29  1  0.16628300  0.78293900  0.64408500  1
  H  H30  1  0.02112500  0.69298100  0.59024000  1
  H  H31  1  0.21311900  0.80002200  0.49917500  1
  H  H32  1  0.15639200  0.66213700  0.45211400  1
  C  C1  1  0.85617600  0.02660900  0.67667700  1
  C  C2  1  0.14317700  0.97254800  0.31955900  1
  C  C3  1  0.85884700  0.00935800  0.76508600  1
  C  C4  1  0.14012200  0.99085200  0.23140100  1
  C  C5  1  0.00028000  0.01214500  0.81135300  1
  C  C6  1  0.99855900  0.98821100  0.18531300  1
  C  C7  1  0.13888600  0.02946300  0.76807800  1
  C  C8  1  0.86019400  0.97044500  0.22846900  1
  C  C9  1  0.13470600  0.04824600  0.67976700  1
  C  C10  1  0.86461000  0.95092100  0.31652100  1
  C  C11  1  0.99229500  0.05019500  0.63577200  1
  C  C12  1  0.00716200  0.94857700  0.36040700  1
  C  C13  1  0.04568600  0.09748400  0.96634200  1
  C  C14  1  0.95154900  0.90407700  0.03068700  1
  C  C15  1  0.04117800  0.09664200  0.05784400  1
  C  C16  1  0.95632300  0.90484200  0.93928500  1
  C  C17  1  0.99553200  0.99831000  0.08992100  1
  C  C18  1  0.00237500  0.00294100  0.90704000  1
  C  C19  1  0.71428000  0.01584500  0.62238600  1
  C  C20  1  0.28518800  0.98319400  0.37374600  1
  C  C21  1  0.28001500  0.03710100  0.62481700  1
  C  C22  1  0.71926600  0.96198600  0.37133700  1
  C  C23  1  0.70088900  0.54151000  0.49702500  1
  C  C24  1  0.29886900  0.45750300  0.49768600  1
  C  C25  1  0.66989400  0.66165300  0.49743400  1
  C  C26  1  0.32976200  0.33693600  0.49526600  1
  C  C27  1  0.39475200  0.65008400  0.50214400  1
  C  C28  1  0.60485600  0.35004300  0.49978100  1
  C  C29  1  0.42296800  0.52724200  0.49972100  1
  C  C30  1  0.57687500  0.47232300  0.49895900  1
  C  C31  1  0.07484800  0.20526000  0.11997700  1
  C  C32  1  0.92305500  0.26387300  0.16959200  1
  C  C33  1  0.92653800  0.79523200  0.87736100  1
  C  C34  1  0.08304900  0.73505500  0.83437800  1
  C  C35  1  0.77398200  0.29526100  0.50586300  1
  C  C36  1  0.83904300  0.33315900  0.59860200  1
  C  C37  1  0.22509400  0.70662500  0.50730800  1
  C  C38  1  0.15050100  0.70043700  0.59788100  1
  N  N1  1  0.47997200  0.28352100  0.49617800  1
  N  N2  1  0.51958800  0.71560200  0.50008000  1
  O  O1  1  0.65043400  0.11147700  0.59287800  1
  O  O2  1  0.34937100  0.88738100  0.40298400  1
  O  O3  1  0.67648400  0.90915300  0.59202100  1
  O  O4  1  0.32275800  0.08995900  0.40421300  1
  O  O5  1  0.34560400  0.92867900  0.59695200  1
  O  O6  1  0.65333800  0.07036100  0.39895300  1
  O  O7  1  0.31846800  0.12981700  0.59138600  1
  O  O8  1  0.68106000  0.86932300  0.40486700  1
