# generated using pymatgen
data_Fe2H23C51NO16
_symmetry_space_group_name_H-M   'P 1'
_cell_length_a   17.74669900
_cell_length_b   9.43808200
_cell_length_c   15.01351200
_cell_angle_alpha   87.57459300
_cell_angle_beta   79.61454000
_cell_angle_gamma   106.54308000
_symmetry_Int_Tables_number   1
_chemical_formula_structural   Fe2H23C51NO16
_chemical_formula_sum   'Fe2 H23 C51 N1 O16'
_cell_volume   2359.37643121
_cell_formula_units_Z   1
loop_
 _symmetry_equiv_pos_site_id
 _symmetry_equiv_pos_as_xyz
  1  'x, y, z'
loop_
 _atom_site_type_symbol
 _atom_site_label
 _atom_site_symmetry_multiplicity
 _atom_site_fract_x
 _atom_site_fract_y
 _atom_site_fract_z
 _atom_site_occupancy
  Fe  Fe1  1  0.50327700  0.99315400  0.16861200  1
  Fe  Fe2  1  0.49454800  0.99796800  0.83389900  1
  H  H1  1  0.24506100  0.08177500  0.21862800  1
  H  H2  1  0.11723600  0.11699400  0.25681200  1
  H  H3  1  0.21852800  0.84847000  0.86822400  1
  H  H4  1  0.99321600  0.11597900  0.22237400  1
  H  H5  1  0.09650300  0.84337800  0.82958800  1
  H  H6  1  0.89344700  0.13753600  0.18166400  1
  H  H7  1  0.02414400  0.94529000  0.77505400  1
  H  H8  1  0.77265500  0.12651300  0.14213500  1
  H  H9  1  0.75622700  0.95071700  0.77830700  1
  H  H10  1  0.49056400  0.53624600  0.80341100  1
  H  H11  1  0.49817700  0.43946800  0.20015900  1
  H  H12  1  0.51046400  0.74181300  0.54400400  1
  H  H13  1  0.49230400  0.71235400  0.41467200  1
  H  H14  1  0.49675700  0.13187900  0.45777700  1
  H  H15  1  0.87739800  0.02579800  0.67612200  1
  H  H16  1  0.83954000  0.82749700  0.70816200  1
  H  H17  1  0.97663500  0.80684200  0.66406900  1
  H  H18  1  0.01420400  0.00654700  0.63035300  1
  H  H19  1  0.92379900  0.97725600  0.52016600  1
  H  H20  1  0.88703700  0.77925900  0.55329800  1
  H  H21  1  0.06188500  0.95882000  0.47209300  1
  H  H22  1  0.99225700  0.83942300  0.41308400  1
  H  H23  1  0.02514700  0.76060700  0.50543000  1
  C  C1  1  0.23342200  0.04975100  0.15297700  1
  C  C2  1  0.10542900  0.08632900  0.19099000  1
  C  C3  1  0.29243200  0.01763300  0.09195200  1
  C  C4  1  0.27944300  0.98284400  0.00571800  1
  C  C5  1  0.16165400  0.04788100  0.12991200  1
  C  C6  1  0.14567400  0.00591400  0.04707600  1
  C  C7  1  0.20312400  0.96586200  0.98688500  1
  C  C8  1  0.18178600  0.90331400  0.91029600  1
  C  C9  1  0.03362900  0.08651800  0.16942300  1
  C  C10  1  0.01640000  0.04869100  0.08490200  1
  C  C11  1  0.07282200  0.00555800  0.02430800  1
  C  C12  1  0.05693100  0.96205100  0.94098300  1
  C  C13  1  0.10990500  0.90072500  0.88792200  1
  C  C14  1  0.88572900  0.09332100  0.11816100  1
  C  C15  1  0.94357000  0.04875500  0.06080400  1
  C  C16  1  0.92898300  0.00931000  0.97591700  1
  C  C17  1  0.98688600  0.97261600  0.91453100  1
  C  C18  1  0.97548900  0.95304700  0.82610900  1
  C  C19  1  0.81322900  0.08452600  0.09592800  1
  C  C20  1  0.79562800  0.03276900  0.01534800  1
  C  C21  1  0.85620300  0.00654200  0.95208000  1
  C  C22  1  0.84326600  0.97596400  0.86564500  1
  C  C23  1  0.71926700  0.01225700  0.99666000  1
  C  C24  1  0.70836300  0.98958700  0.90876800  1
  C  C25  1  0.90417700  0.95305400  0.80078700  1
  C  C26  1  0.76984400  0.97267900  0.84437600  1
  C  C27  1  0.64938000  0.99710200  0.07089400  1
  C  C28  1  0.49665200  0.71329800  0.23878000  1
  C  C29  1  0.36985400  0.03785100  0.11838900  1
  C  C30  1  0.48953000  0.19516500  0.29331800  1
  C  C31  1  0.50459300  0.79025300  0.71178600  1
  C  C32  1  0.63017000  0.96438700  0.88352200  1
  C  C33  1  0.49280900  0.26726100  0.75977700  1
  C  C34  1  0.34777500  0.98713200  0.93147200  1
  C  C35  1  0.49222200  0.52511200  0.73183700  1
  C  C36  1  0.49895500  0.64806300  0.67511900  1
  C  C37  1  0.50345300  0.63980300  0.58348200  1
  C  C38  1  0.49347600  0.39288900  0.69661800  1
  C  C39  1  0.49516500  0.38301500  0.60380400  1
  C  C40  1  0.49786900  0.50548000  0.54666100  1
  C  C41  1  0.49624500  0.49059500  0.45419800  1
  C  C42  1  0.49503700  0.60655900  0.39358300  1
  C  C43  1  0.49649000  0.58954500  0.30235500  1
  C  C44  1  0.49506400  0.23778400  0.48077600  1
  C  C45  1  0.49461900  0.35449300  0.42182800  1
  C  C46  1  0.49484900  0.33745000  0.33028900  1
  C  C47  1  0.49806000  0.45545900  0.27099900  1
  C  C48  1  0.89123700  0.92815100  0.70497200  1
  C  C49  1  0.96176500  0.90571700  0.63879700  1
  C  C50  1  0.93931600  0.87992700  0.54661300  1
  C  C51  1  0.00934700  0.85831500  0.48008000  1
  N  N1  1  0.49447700  0.25397100  0.56920700  1
  O  O1  1  0.58443800  0.02445100  0.05471600  1
  O  O2  1  0.50338100  0.69865000  0.15140600  1
  O  O3  1  0.64862500  0.94227800  0.15295900  1
  O  O4  1  0.49256000  0.84049500  0.26858100  1
  O  O5  1  0.39520800  0.92305300  0.13494900  1
  O  O6  1  0.41226000  0.17161200  0.13020800  1
  O  O7  1  0.53765300  0.19148100  0.21680600  1
  O  O8  1  0.42908200  0.07753900  0.32765900  1
  O  O9  1  0.46136500  0.79466800  0.79155900  1
  O  O10  1  0.55584200  0.91230300  0.66719500  1
  O  O11  1  0.60353200  0.07650400  0.86435400  1
  O  O12  1  0.58718400  0.82804500  0.87789900  1
  O  O13  1  0.34587500  0.02639600  0.84720600  1
  O  O14  1  0.50186300  0.14244300  0.73070800  1
  O  O15  1  0.41494000  0.97140800  0.94878500  1
  O  O16  1  0.48417100  0.28106300  0.84735400  1
