# generated using pymatgen
data_Cu3H24C29O12
_symmetry_space_group_name_H-M   'P 1'
_cell_length_a   18.64688900
_cell_length_b   18.70779200
_cell_length_c   18.75618300
_cell_angle_alpha   109.22246500
_cell_angle_beta   109.60318700
_cell_angle_gamma   109.41363100
_symmetry_Int_Tables_number   1
_chemical_formula_structural   Cu3H24C29O12
_chemical_formula_sum   'Cu6 H48 C58 O24'
_cell_volume   5047.53123252
_cell_formula_units_Z   2
loop_
 _symmetry_equiv_pos_site_id
 _symmetry_equiv_pos_as_xyz
  1  'x, y, z'
loop_
 _atom_site_type_symbol
 _atom_site_label
 _atom_site_symmetry_multiplicity
 _atom_site_fract_x
 _atom_site_fract_y
 _atom_site_fract_z
 _atom_site_occupancy
  Cu  Cu1  1  0.43905300  0.99816800  0.93914700  1
  Cu  Cu2  1  0.55771900  0.99282600  0.05653400  1
  Cu  Cu3  1  0.43839500  0.44305800  0.49565200  1
  Cu  Cu4  1  0.56077100  0.56562100  0.49926000  1
  Cu  Cu5  1  0.99815400  0.43659100  0.93342400  1
  Cu  Cu6  1  0.99335700  0.55534900  0.05529600  1
  H  H1  1  0.36905400  0.23433200  0.24747000  1
  H  H2  1  0.56363500  0.34441500  0.30961000  1
  H  H3  1  0.36943100  0.13803700  0.11789500  1
  H  H4  1  0.56333600  0.21890800  0.24992100  1
  H  H5  1  0.77038000  0.12404400  0.01568300  1
  H  H6  1  0.73366800  0.36250500  0.98629300  1
  H  H7  1  0.61940700  0.25129100  0.98585100  1
  H  H8  1  0.49321800  0.73111400  0.86990500  1
  H  H9  1  0.49265500  0.61968000  0.75649200  1
  H  H10  1  0.49935200  0.76587000  0.62297500  1
  H  H11  1  0.49651300  0.87565800  0.73468200  1
  H  H12  1  0.36504700  0.88114600  0.13514600  1
  H  H13  1  0.24906900  0.77006400  0.13444000  1
  H  H14  1  0.12529800  0.61815000  0.85778300  1
  H  H15  1  0.23844700  0.73111100  0.85788400  1
  H  H16  1  0.78729200  0.61861200  0.71355300  1
  H  H17  1  0.59206800  0.37970800  0.65864100  1
  H  H18  1  0.37217300  0.49159500  0.22988300  1
  H  H19  1  0.25580100  0.48523100  0.11348400  1
  H  H20  1  0.13064100  0.51647600  0.26589200  1
  H  H21  1  0.24427500  0.51829200  0.38004400  1
  H  H22  1  0.94160900  0.64177100  0.78699400  1
  H  H23  1  0.97266000  0.62639700  0.87875200  1
  H  H24  1  0.88872700  0.73927600  0.85365500  1
  H  H25  1  0.97068800  0.71613800  0.01064300  1
  H  H26  1  0.85490600  0.67736800  0.94507700  1
  H  H27  1  0.93226900  0.79252400  0.00897100  1
  H  H28  1  0.07736000  0.78639900  0.96934400  1
  H  H29  1  0.03682800  0.86172800  0.96869000  1
  H  H30  1  0.03839100  0.79792700  0.87377800  1
  H  H31  1  0.71523500  0.38213700  0.84888400  1
  H  H32  1  0.74380400  0.32586300  0.77486600  1
  H  H33  1  0.55819600  0.30052400  0.71603700  1
  H  H34  1  0.63034200  0.18551800  0.64302700  1
  H  H35  1  0.60971200  0.25609200  0.60322200  1
  H  H36  1  0.52044400  0.16819800  0.59224400  1
  H  H37  1  0.64358400  0.20693900  0.78609600  1
  H  H38  1  0.52655400  0.16364600  0.72370800  1
  H  H39  1  0.59140800  0.26256700  0.82763400  1
  H  H40  1  0.93178000  0.22588000  0.07773800  1
  H  H41  1  0.96014300  0.28863200  0.02847900  1
  H  H42  1  0.83294000  0.08986400  0.92898200  1
  H  H43  1  0.91879100  0.21123000  0.86920400  1
  H  H44  1  0.80428800  0.16309300  0.84057300  1
  H  H45  1  0.84777400  0.09450700  0.80536000  1
  H  H46  1  0.02482200  0.19747200  0.98025700  1
  H  H47  1  0.95539300  0.08045300  0.91055200  1
  H  H48  1  0.98456900  0.13007600  0.02368900  1
  C  C1  1  0.61783300  0.11201200  0.99926500  1
  C  C2  1  0.50096400  0.11179700  0.11719500  1
  C  C3  1  0.37887800  0.87968100  0.99676800  1
  C  C4  1  0.49538600  0.87835500  0.87870500  1
  C  C5  1  0.43114100  0.24879900  0.24928600  1
  C  C6  1  0.50290300  0.32571600  0.31119300  1
  C  C7  1  0.43130100  0.18453300  0.17805200  1
  C  C8  1  0.50292300  0.17815100  0.18777200  1
  C  C9  1  0.76140000  0.17534600  0.00705400  1
  C  C10  1  0.82538500  0.23643700  0.00394000  1
  C  C11  1  0.81521900  0.30465600  0.99622600  1
  C  C12  1  0.74174800  0.30958300  0.99168600  1
  C  C13  1  0.67682800  0.24629700  0.99100200  1
  C  C14  1  0.68648900  0.17894100  0.99899500  1
  C  C15  1  0.49437400  0.73918200  0.81576400  1
  C  C16  1  0.49341800  0.67566900  0.75112700  1
  C  C17  1  0.49616600  0.68506800  0.68189900  1
  C  C18  1  0.49785600  0.75764500  0.67694600  1
  C  C19  1  0.49550900  0.81954400  0.73990700  1
  C  C20  1  0.49473600  0.81110600  0.81014300  1
  C  C21  1  0.31228700  0.82364400  0.07395600  1
  C  C22  1  0.24639300  0.76137500  0.07353000  1
  C  C23  1  0.17975300  0.68669900  0.99611300  1
  C  C24  1  0.17760400  0.67604500  0.91888900  1
  C  C25  1  0.24116200  0.74015000  0.91888000  1
  C  C26  1  0.30957100  0.81339800  0.99655600  1
  C  C27  1  0.61564800  0.50144300  0.61341300  1
  C  C28  1  0.50105600  0.39025500  0.37981400  1
  C  C29  1  0.38357100  0.50634100  0.38105400  1
  C  C30  1  0.49751800  0.61875500  0.61438900  1
  C  C31  1  0.87469500  0.49343500  0.87472200  1
  C  C32  1  0.88058200  0.37398400  0.99518400  1
  C  C33  1  0.11705100  0.49898200  0.11392800  1
  C  C34  1  0.11294000  0.61774100  0.99563200  1
  C  C35  1  0.76844700  0.56586500  0.72746400  1
  C  C36  1  0.83167700  0.56520700  0.79143400  1
  C  C37  1  0.80857000  0.49540900  0.80716000  1
  C  C38  1  0.72235200  0.42707700  0.75919900  1
  C  C39  1  0.65965000  0.43040300  0.69637900  1
  C  C40  1  0.68255700  0.49937600  0.68052600  1
  C  C41  1  0.31923900  0.49715300  0.23807500  1
  C  C42  1  0.25311700  0.49266100  0.17201800  1
  C  C43  1  0.18565000  0.50050300  0.18210100  1
  C  C44  1  0.18349300  0.51088800  0.25753400  1
  C  C45  1  0.24734500  0.51132000  0.32176700  1
  C  C46  1  0.31589300  0.50550300  0.31264300  1
  C  C47  1  0.92477700  0.63796900  0.83748300  1
  C  C48  1  0.93614300  0.72586300  0.89329600  1
  C  C49  1  0.92253200  0.72765000  0.96915400  1
  C  C50  1  0.02816600  0.79750900  0.92860100  1
  C  C51  1  0.70075900  0.35382900  0.78034400  1
  C  C52  1  0.60642300  0.27755100  0.72345800  1
  C  C53  1  0.59094300  0.21845000  0.63498000  1
  C  C54  1  0.59126900  0.22422600  0.76816900  1
  C  C55  1  0.90676700  0.23020800  0.01758200  1
  C  C56  1  0.88756200  0.14888500  0.94186100  1
  C  C57  1  0.86308100  0.15526900  0.85925100  1
  C  C58  1  0.96839700  0.13871800  0.96566100  1
  O  O1  1  0.53868100  0.10349900  0.96803300  1
  O  O2  1  0.63767600  0.06261400  0.02979500  1
  O  O3  1  0.43204400  0.06759700  0.03776700  1
  O  O4  1  0.56915400  0.09929300  0.13708300  1
  O  O5  1  0.35815300  0.89201800  0.92883400  1
  O  O6  1  0.45900900  0.92402400  0.06480000  1
  O  O7  1  0.46477100  0.92781500  0.85908500  1
  O  O8  1  0.52746300  0.88710400  0.95747400  1
  O  O9  1  0.53550100  0.43313000  0.56520000  1
  O  O10  1  0.63810400  0.57146300  0.60425200  1
  O  O11  1  0.43146700  0.36707800  0.38992400  1
  O  O12  1  0.57027600  0.46957800  0.42870700  1
  O  O13  1  0.36054200  0.47228300  0.42665100  1
  O  O14  1  0.46415800  0.54024400  0.39356400  1
  O  O15  1  0.46455200  0.53837900  0.60188700  1
  O  O16  1  0.53188400  0.64236400  0.56913300  1
  O  O17  1  0.90667500  0.44307200  0.85080300  1
  O  O18  1  0.90114700  0.54436200  0.95639800  1
  O  O19  1  0.90875400  0.35248800  0.94050100  1
  O  O20  1  0.90592000  0.45515800  0.04732600  1
  O  O21  1  0.09390000  0.45146100  0.03237300  1
  O  O22  1  0.08117300  0.54502500  0.13755600  1
  O  O23  1  0.08183500  0.53673900  0.93805100  1
  O  O24  1  0.08662700  0.63943900  0.05207600  1
