# generated using pymatgen
data_ZnH8C18NO6
_symmetry_space_group_name_H-M   'P 1'
_cell_length_a   14.46390100
_cell_length_b   14.56023500
_cell_length_c   9.09956300
_cell_angle_alpha   89.99674400
_cell_angle_beta   89.99485900
_cell_angle_gamma   90.00000000
_symmetry_Int_Tables_number   1
_chemical_formula_structural   ZnH8C18NO6
_chemical_formula_sum   'Zn2 H16 C36 N2 O12'
_cell_volume   1916.34791590
_cell_formula_units_Z   2
loop_
 _symmetry_equiv_pos_site_id
 _symmetry_equiv_pos_as_xyz
  1  'x, y, z'
loop_
 _atom_site_type_symbol
 _atom_site_label
 _atom_site_symmetry_multiplicity
 _atom_site_fract_x
 _atom_site_fract_y
 _atom_site_fract_z
 _atom_site_occupancy
  Zn  Zn1  1  0.48771000  0.50252200  0.66405300  1
  Zn  Zn2  1  0.51179900  0.49886300  0.33415100  1
  H  H1  1  0.67210700  0.71198800  0.45118400  1
  H  H2  1  0.32740200  0.28939800  0.54702000  1
  H  H3  1  0.54769100  0.74662300  0.23041400  1
  H  H4  1  0.45181700  0.25476200  0.76778900  1
  H  H5  1  0.67582000  0.66338600  0.92909500  1
  H  H6  1  0.32369000  0.33799900  0.06910900  1
  H  H7  1  0.78345100  0.77410800  0.03249400  1
  H  H8  1  0.21606000  0.22727800  0.96571100  1
  H  H9  1  0.66754700  0.49789300  0.98559900  1
  H  H10  1  0.33196300  0.50349300  0.01260600  1
  H  H11  1  0.99762500  0.91031800  0.21880600  1
  H  H12  1  0.98536600  0.84169900  0.38305600  1
  H  H13  1  0.92181800  0.94866600  0.36415200  1
  H  H14  1  0.00188600  0.09106600  0.77940000  1
  H  H15  1  0.07769400  0.05271800  0.63405500  1
  H  H16  1  0.01414500  0.15968400  0.61514900  1
  C  C1  1  0.49544500  0.32076000  0.51111500  1
  C  C2  1  0.50406400  0.68062500  0.48708800  1
  C  C3  1  0.31976800  0.50823000  0.47495800  1
  C  C4  1  0.67974100  0.49315500  0.52324500  1
  C  C5  1  0.22090400  0.50805800  0.46247700  1
  C  C6  1  0.77860500  0.49332900  0.53572600  1
  C  C7  1  0.13771000  0.50605900  0.46911700  1
  C  C8  1  0.86179900  0.49532800  0.52908600  1
  C  C9  1  0.04091200  0.50241300  0.48905600  1
  C  C10  1  0.95859700  0.49897400  0.50914700  1
  C  C11  1  0.49882800  0.22175800  0.50673800  1
  C  C12  1  0.50068100  0.77962800  0.49146500  1
  C  C13  1  0.49992600  0.13901900  0.50353200  1
  C  C14  1  0.49958300  0.86236700  0.49467100  1
  C  C15  1  0.49992200  0.04206500  0.50037300  1
  C  C16  1  0.49958700  0.95932100  0.49783000  1
  C  C17  1  0.66219700  0.71575000  0.33365000  1
  C  C18  1  0.33731200  0.28563600  0.66455400  1
  C  C19  1  0.58119600  0.68412300  0.26622600  1
  C  C20  1  0.41831400  0.31726300  0.73197700  1
  C  C21  1  0.60152400  0.64335600  0.13095700  1
  C  C22  1  0.39798600  0.35803000  0.86724600  1
  C  C23  1  0.66889700  0.68287500  0.04320300  1
  C  C24  1  0.33061300  0.31851100  0.95500000  1
  C  C25  1  0.73037800  0.74469800  0.10158200  1
  C  C26  1  0.26913100  0.25668800  0.89662300  1
  C  C27  1  0.73105300  0.75662900  0.25123900  1
  C  C28  1  0.26845700  0.24475600  0.74696500  1
  C  C29  1  0.59289500  0.49933800  0.99073600  1
  C  C30  1  0.40661500  0.50204700  0.00746900  1
  C  C31  1  0.45173200  0.43279600  0.93168900  1
  C  C32  1  0.54777800  0.56859000  0.06651400  1
  C  C33  1  0.80747200  0.80594600  0.32257700  1
  C  C34  1  0.94859300  0.88752600  0.30513100  1
  C  C35  1  0.19203800  0.19543900  0.67562700  1
  C  C36  1  0.05091800  0.11385700  0.69307400  1
  N  N1  1  0.54442900  0.43215600  0.92507300  1
  N  N2  1  0.45508100  0.56923000  0.07313100  1
  O  O1  1  0.47947600  0.36458900  0.63644600  1
  O  O2  1  0.52003300  0.63679700  0.36175700  1
  O  O3  1  0.50699400  0.36355100  0.38543100  1
  O  O4  1  0.49251500  0.63783500  0.61277100  1
  O  O5  1  0.35242100  0.50493200  0.60849300  1
  O  O6  1  0.64708800  0.49645300  0.38971000  1
  O  O7  1  0.37243600  0.50803200  0.35669000  1
  O  O8  1  0.62707300  0.49335400  0.64151300  1
  O  O9  1  0.80813900  0.81580800  0.45566600  1
  O  O10  1  0.87676600  0.84097600  0.24082800  1
  O  O11  1  0.19137100  0.18557700  0.54253800  1
  O  O12  1  0.12274500  0.16040800  0.75737700  1
