# generated using pymatgen
data_ZnH7C16N2ClO4
_symmetry_space_group_name_H-M   'P 1'
_cell_length_a   8.54341200
_cell_length_b   12.79707600
_cell_length_c   14.21418600
_cell_angle_alpha   108.51366100
_cell_angle_beta   91.67089000
_cell_angle_gamma   86.40744700
_symmetry_Int_Tables_number   1
_chemical_formula_structural   ZnH7C16N2ClO4
_chemical_formula_sum   'Zn2 H14 C32 N4 Cl2 O8'
_cell_volume   1470.65545837
_cell_formula_units_Z   2
loop_
 _symmetry_equiv_pos_site_id
 _symmetry_equiv_pos_as_xyz
  1  'x, y, z'
loop_
 _atom_site_type_symbol
 _atom_site_label
 _atom_site_symmetry_multiplicity
 _atom_site_fract_x
 _atom_site_fract_y
 _atom_site_fract_z
 _atom_site_occupancy
  Zn  Zn1  1  0.49989800  0.45494300  0.88941100  1
  Zn  Zn2  1  0.50010200  0.54505700  0.11058900  1
  H  H1  1  0.71411300  0.85373400  0.01249200  1
  H  H2  1  0.28588800  0.14626600  0.98750700  1
  H  H3  1  0.21563400  0.86029300  0.00713300  1
  H  H4  1  0.78436700  0.13970700  0.99286700  1
  H  H5  1  0.00099600  0.55941500  0.96236300  1
  H  H6  1  0.99900500  0.44058400  0.03763700  1
  H  H7  1  0.50892100  0.20760800  0.41413800  1
  H  H8  1  0.49108000  0.79239200  0.58586200  1
  H  H9  1  0.50627500  0.43684600  0.24545800  1
  H  H10  1  0.49372500  0.56315400  0.75454100  1
  H  H11  1  0.49362500  0.76261100  0.24756700  1
  H  H12  1  0.50637500  0.23738800  0.75243300  1
  H  H13  1  0.50633100  0.32891600  0.32239700  1
  H  H14  1  0.49367000  0.67108400  0.67760300  1
  C  C1  1  0.84427400  0.70054100  0.99099900  1
  C  C2  1  0.15572700  0.29945800  0.00900100  1
  C  C3  1  0.82916900  0.81183000  0.00453100  1
  C  C4  1  0.17083200  0.18817000  0.99546800  1
  C  C5  1  0.96062200  0.86919200  0.00410900  1
  C  C6  1  0.03937900  0.13080700  0.99589100  1
  C  C7  1  0.10954500  0.81653900  0.00040100  1
  C  C8  1  0.89045500  0.18346000  0.99959900  1
  C  C9  1  0.12288500  0.70468500  0.98800200  1
  C  C10  1  0.87711500  0.29531500  0.01199700  1
  C  C11  1  0.98996500  0.64706300  0.97707900  1
  C  C12  1  0.01003500  0.35293700  0.02292100  1
  C  C13  1  0.70982800  0.63748600  0.99472600  1
  C  C14  1  0.29017200  0.36251400  0.00527400  1
  C  C15  1  0.72723800  0.35593100  0.00763200  1
  C  C16  1  0.27276300  0.64406900  0.99236800  1
  C  C17  1  0.50582700  0.25770300  0.60935300  1
  C  C18  1  0.49417300  0.74229700  0.39064700  1
  C  C19  1  0.50416600  0.29539000  0.71121000  1
  C  C20  1  0.49583400  0.70461000  0.28879000  1
  C  C21  1  0.49748300  0.47816800  0.70991300  1
  C  C22  1  0.50251800  0.52183200  0.29008700  1
  C  C23  1  0.49994300  0.44450400  0.60638000  1
  C  C24  1  0.50005800  0.55549600  0.39362000  1
  C  C25  1  0.50393200  0.33223400  0.55663500  1
  C  C26  1  0.49606900  0.66776500  0.44336500  1
  C  C27  1  0.49874500  0.51951300  0.55185800  1
  C  C28  1  0.50125600  0.48048700  0.44814200  1
  C  C29  1  0.50465900  0.36697300  0.40127000  1
  C  C30  1  0.49534200  0.63302700  0.59873000  1
  C  C31  1  0.50607500  0.29466000  0.45471700  1
  C  C32  1  0.49392600  0.70534000  0.54528200  1
  N  N1  1  0.93876800  0.98096100  0.00845600  1
  N  N2  1  0.06123300  0.01903900  0.99154400  1
  N  N3  1  0.50012200  0.40411700  0.75947200  1
  N  N4  1  0.49987800  0.59588200  0.24052800  1
  Cl  Cl1  1  0.51114600  0.11469200  0.54959200  1
  Cl  Cl2  1  0.48885400  0.88530700  0.45040800  1
  O  O1  1  0.66276100  0.63809100  0.08200700  1
  O  O2  1  0.33724000  0.36190900  0.91799300  1
  O  O3  1  0.65706900  0.57146600  0.91086800  1
  O  O4  1  0.34293100  0.42853400  0.08913200  1
  O  O5  1  0.67532400  0.35743600  0.92004000  1
  O  O6  1  0.32467600  0.64256400  0.07996000  1
  O  O7  1  0.67066900  0.42411000  0.09099100  1
  O  O8  1  0.32933100  0.57589000  0.90900900  1
