# generated using pymatgen
data_ZnH26C33N4O5
_symmetry_space_group_name_H-M   'P 1'
_cell_length_a   14.23621100
_cell_length_b   16.53830100
_cell_length_c   16.58370300
_cell_angle_alpha   90.00000000
_cell_angle_beta   98.83694900
_cell_angle_gamma   90.00000000
_symmetry_Int_Tables_number   1
_chemical_formula_structural   ZnH26C33N4O5
_chemical_formula_sum   'Zn2 H52 C66 N8 O10'
_cell_volume   3858.16407229
_cell_formula_units_Z   2
loop_
 _symmetry_equiv_pos_site_id
 _symmetry_equiv_pos_as_xyz
  1  'x, y, z'
loop_
 _atom_site_type_symbol
 _atom_site_label
 _atom_site_symmetry_multiplicity
 _atom_site_fract_x
 _atom_site_fract_y
 _atom_site_fract_z
 _atom_site_occupancy
  Zn  Zn1  1  0.10366700  0.51618700  0.50780100  1
  Zn  Zn2  1  0.89220100  0.51541800  0.49143200  1
  H  H1  1  0.93106500  0.93859100  0.70594400  1
  H  H2  1  0.93228400  0.09866400  0.70738500  1
  H  H3  1  0.04512400  0.32241800  0.93285400  1
  H  H4  1  0.04095900  0.71028900  0.92726100  1
  H  H5  1  0.02662200  0.32112800  0.08779400  1
  H  H6  1  0.02204900  0.70894800  0.08213100  1
  H  H7  1  0.87098800  0.09428300  0.25430400  1
  H  H8  1  0.86936200  0.93472700  0.25283500  1
  H  H9  1  0.03966800  0.01487400  0.07977800  1
  H  H10  1  0.06076500  0.01611300  0.94107100  1
  H  H11  1  0.86616900  0.77630500  0.79382100  1
  H  H12  1  0.87104500  0.26319500  0.80221400  1
  H  H13  1  0.15735900  0.72022900  0.67789200  1
  H  H14  1  0.15739100  0.31019700  0.67638700  1
  H  H15  1  0.15807900  0.82361400  0.78365400  1
  H  H16  1  0.15836400  0.20678700  0.78225800  1
  H  H17  1  0.86824400  0.36531100  0.69687900  1
  H  H18  1  0.86331000  0.67430900  0.68813400  1
  H  H19  1  0.13049800  0.80654200  0.23261500  1
  H  H20  1  0.13249600  0.21926900  0.23908700  1
  H  H21  1  0.13491700  0.70399100  0.33824600  1
  H  H22  1  0.13642100  0.32185100  0.34483200  1
  H  H23  1  0.83122000  0.68682500  0.28958200  1
  H  H24  1  0.83355200  0.34435900  0.28985700  1
  H  H25  1  0.82872100  0.78896400  0.18277000  1
  H  H26  1  0.83165700  0.24225300  0.18312100  1
  H  H27  1  0.55951100  0.62522600  0.44744900  1
  H  H28  1  0.55015500  0.50155800  0.36899200  1
  H  H29  1  0.41182700  0.63928200  0.47516000  1
  H  H30  1  0.39756100  0.53272000  0.37793800  1
  H  H31  1  0.38453400  0.42897400  0.40773000  1
  H  H32  1  0.44534900  0.62033900  0.58158200  1
  H  H33  1  0.53941800  0.40618100  0.41773900  1
  H  H34  1  0.60065800  0.62853000  0.55418500  1
  H  H35  1  0.42959900  0.45396800  0.62686800  1
  H  H36  1  0.44050600  0.39283200  0.54465000  1
  H  H37  1  0.48871100  0.54501200  0.70037000  1
  H  H38  1  0.57879400  0.61704700  0.68635100  1
  H  H39  1  0.59810600  0.48221100  0.81380100  1
  H  H40  1  0.57054200  0.58638200  0.82951600  1
  H  H41  1  0.73987700  0.44623600  0.78668800  1
  H  H42  1  0.82731600  0.52033100  0.77241300  1
  H  H43  1  0.75276400  0.46524900  0.64172300  1
  H  H44  1  0.73126100  0.57200900  0.64925600  1
  H  H45  1  0.53771200  0.35525700  0.68791500  1
  H  H46  1  0.66522400  0.34395600  0.69912400  1
  H  H47  1  0.51896300  0.23008500  0.60341100  1
  H  H48  1  0.58412000  0.21370600  0.70359300  1
  H  H49  1  0.59214900  0.23372100  0.49497600  1
  H  H50  1  0.71857900  0.22268200  0.50452300  1
  H  H51  1  0.67216100  0.36057100  0.47759300  1
  H  H52  1  0.74463000  0.35092400  0.57593900  1
  C  C1  1  0.02944200  0.26966300  0.96690600  1
  C  C2  1  0.02582000  0.76251800  0.96230400  1
  C  C3  1  0.02016800  0.26888400  0.04814700  1
  C  C4  1  0.01641500  0.76193500  0.04352400  1
  C  C5  1  0.99991600  0.18995500  0.06672300  1
  C  C6  1  0.99698900  0.84063500  0.06355600  1
  C  C7  1  0.01475700  0.19115400  0.93939400  1
  C  C8  1  0.01207300  0.84157400  0.93627000  1
  C  C9  1  0.98157100  0.16483200  0.13933000  1
  C  C10  1  0.97883600  0.86464400  0.13659700  1
  C  C11  1  0.95738000  0.08025100  0.15511900  1
  C  C12  1  0.95606700  0.94922500  0.15388900  1
  C  C13  1  0.90449600  0.05622700  0.21405000  1
  C  C14  1  0.90365200  0.97295800  0.21327200  1
  C  C15  1  0.01190300  0.86666700  0.85965100  1
  C  C16  1  0.01421700  0.16736300  0.86230800  1
  C  C17  1  0.99653400  0.95181100  0.83505900  1
  C  C18  1  0.99770100  0.08274900  0.83620100  1
  C  C19  1  0.95738400  0.97644900  0.75762600  1
  C  C20  1  0.95806800  0.05972900  0.75836400  1
  C  C21  1  0.93003000  0.76396700  0.76814900  1
  C  C22  1  0.93398200  0.27367400  0.77459800  1
  C  C23  1  0.92876100  0.70644200  0.70812000  1
  C  C24  1  0.93259200  0.33115400  0.71456200  1
  C  C25  1  0.01031100  0.68969500  0.67540700  1
  C  C26  1  0.01263200  0.34519400  0.67884500  1
  C  C27  1  0.09292900  0.73197200  0.70287700  1
  C  C28  1  0.09417700  0.30063900  0.70382000  1
  C  C29  1  0.09355000  0.79053700  0.76235500  1
  C  C30  1  0.09488000  0.24203500  0.76329200  1
  C  C31  1  0.01224300  0.80601700  0.79547300  1
  C  C32  1  0.01492500  0.22899800  0.79910400  1
  C  C33  1  0.06483700  0.78025100  0.24538600  1
  C  C34  1  0.06692100  0.24666300  0.25062900  1
  C  C35  1  0.06691300  0.72198000  0.30489700  1
  C  C36  1  0.06874400  0.30494000  0.31012000  1
  C  C37  1  0.98323100  0.68793900  0.32159500  1
  C  C38  1  0.98514000  0.34058700  0.32489700  1
  C  C39  1  0.89747000  0.71279000  0.27789100  1
  C  C40  1  0.89970300  0.31705800  0.27970800  1
  C  C41  1  0.89578100  0.77049900  0.21757900  1
  C  C42  1  0.89833100  0.25943400  0.21940500  1
  C  C43  1  0.97946600  0.80451300  0.20149800  1
  C  C44  1  0.98192500  0.22409600  0.20492200  1
  C  C45  1  0.00779900  0.62760000  0.61204200  1
  C  C46  1  0.00939900  0.40632700  0.61445300  1
  C  C47  1  0.98800700  0.40350800  0.38738900  1
  C  C48  1  0.98648400  0.62580300  0.38499000  1
  C  C49  1  0.45184300  0.59745100  0.52016200  1
  C  C50  1  0.42415600  0.48593000  0.42370100  1
  C  C51  1  0.52911200  0.47190600  0.42347500  1
  C  C52  1  0.55441500  0.59467600  0.50613700  1
  C  C53  1  0.41045900  0.51358000  0.50779300  1
  C  C54  1  0.58755400  0.50737300  0.50087400  1
  C  C55  1  0.56944500  0.45873100  0.57869300  1
  C  C56  1  0.46020100  0.45371000  0.56980300  1
  C  C57  1  0.68796600  0.51180000  0.48962700  1
  C  C58  1  0.30875100  0.51559500  0.51313500  1
  C  C59  1  0.56560200  0.55399400  0.70398400  1
  C  C60  1  0.60816000  0.54484100  0.79280400  1
  C  C61  1  0.74994400  0.50751100  0.76241200  1
  C  C62  1  0.71442800  0.51130300  0.67143400  1
  C  C63  1  0.59737900  0.33355100  0.65801200  1
  C  C64  1  0.58651600  0.24352700  0.64406600  1
  C  C65  1  0.66043300  0.24829700  0.53408900  1
  C  C66  1  0.67375400  0.33917000  0.54048100  1
  N  N1  1  0.99627600  0.14253100  0.00022800  1
  N  N2  1  0.99396800  0.88922400  0.99795500  1
  N  N3  1  0.98993200  0.01482400  0.11962500  1
  N  N4  1  0.02234500  0.01678500  0.88239800  1
  N  N5  1  0.76787000  0.51476500  0.48346600  1
  N  N6  1  0.22797700  0.51671600  0.51576800  1
  N  N7  1  0.61296600  0.49822800  0.65593300  1
  N  N8  1  0.59938700  0.37330500  0.58085200  1
  O  O1  1  0.92458400  0.59863400  0.58025800  1
  O  O2  1  0.92588300  0.43423200  0.58203900  1
  O  O3  1  0.08787300  0.60303000  0.58997000  1
  O  O4  1  0.08913500  0.43083200  0.59178800  1
  O  O5  1  0.07121700  0.43251000  0.41907100  1
  O  O6  1  0.07001400  0.59785200  0.41730900  1
  O  O7  1  0.90800600  0.42821200  0.40933900  1
  O  O8  1  0.90668800  0.60112000  0.40745500  1
  O  O9  1  0.70444200  0.56571900  0.80384200  1
  O  O10  1  0.66457600  0.21366000  0.61151500  1
