# generated using pymatgen
data_Fe2H15C52I3(NO10)2
_symmetry_space_group_name_H-M   'P 1'
_cell_length_a   16.51525800
_cell_length_b   21.23936800
_cell_length_c   10.95890200
_cell_angle_alpha   112.78328700
_cell_angle_beta   95.47302500
_cell_angle_gamma   109.46895200
_symmetry_Int_Tables_number   1
_chemical_formula_structural   Fe2H15C52I3(NO10)2
_chemical_formula_sum   'Fe2 H15 C52 I3 N2 O20'
_cell_volume   3228.20773075
_cell_formula_units_Z   1
loop_
 _symmetry_equiv_pos_site_id
 _symmetry_equiv_pos_as_xyz
  1  'x, y, z'
loop_
 _atom_site_type_symbol
 _atom_site_label
 _atom_site_symmetry_multiplicity
 _atom_site_fract_x
 _atom_site_fract_y
 _atom_site_fract_z
 _atom_site_occupancy
  Fe  Fe1  1  0.49702500  0.99462300  0.26310900  1
  Fe  Fe2  1  0.49781900  0.00531200  0.73290500  1
  H  H1  1  0.79962200  0.98746500  0.24222400  1
  H  H2  1  0.76989800  0.02385000  0.82795600  1
  H  H3  1  0.91533400  0.03046300  0.81851900  1
  H  H4  1  0.05674600  0.03041600  0.79889900  1
  H  H5  1  0.19877500  0.03095000  0.77716600  1
  H  H6  1  0.23317300  0.97780400  0.17131500  1
  H  H7  1  0.70870800  0.66361800  0.64559900  1
  H  H8  1  0.72082900  0.57353200  0.72120100  1
  H  H9  1  0.29977700  0.34611000  0.37698800  1
  H  H10  1  0.28791700  0.43585300  0.30034900  1
  H  H11  1  0.49136200  0.23792500  0.44128300  1
  H  H12  1  0.58103600  0.29027900  0.92232000  1
  H  H13  1  0.57304300  0.38853200  0.86638200  1
  H  H14  1  0.51354600  0.77095600  0.56629900  1
  H  H15  1  0.44174800  0.61426400  0.14714900  1
  C  C1  1  0.79492700  0.99709000  0.15304700  1
  C  C2  1  0.71623500  0.99789600  0.09928800  1
  C  C3  1  0.70721100  0.00770700  0.98093800  1
  C  C4  1  0.77746200  0.01764700  0.92121000  1
  C  C5  1  0.85454300  0.01419200  0.97320600  1
  C  C6  1  0.86401600  0.00423800  0.08982800  1
  C  C7  1  0.92221800  0.02097800  0.90827400  1
  C  C8  1  0.99715000  0.01285100  0.95398600  1
  C  C9  1  0.00559100  0.99902400  0.06687300  1
  C  C10  1  0.94207600  0.00116100  0.14188900  1
  C  C11  1  0.06336700  0.01840900  0.88569700  1
  C  C12  1  0.13895700  0.01072200  0.92983300  1
  C  C13  1  0.14567300  0.99257200  0.03709700  1
  C  C14  1  0.07718200  0.98304300  0.10177000  1
  C  C15  1  0.20657400  0.01913800  0.86396900  1
  C  C16  1  0.28336200  0.01233800  0.90799000  1
  C  C17  1  0.29143700  0.99755200  0.02033600  1
  C  C18  1  0.22209900  0.98559100  0.08082400  1
  C  C19  1  0.64600400  0.99033300  0.17287300  1
  C  C20  1  0.47542200  0.85557100  0.24351700  1
  C  C21  1  0.37521300  0.00288600  0.08941600  1
  C  C22  1  0.49154900  0.12076900  0.46168300  1
  C  C23  1  0.51186300  0.88436500  0.53345500  1
  C  C24  1  0.62227700  0.99900500  0.90699700  1
  C  C25  1  0.53659100  0.14653100  0.75139200  1
  C  C26  1  0.35292900  0.01864500  0.83263400  1
  C  C27  1  0.41674000  0.56747000  0.36219600  1
  C  C28  1  0.56464200  0.64773200  0.48437100  1
  C  C29  1  0.57250800  0.59686500  0.52896800  1
  C  C30  1  0.50090600  0.53043300  0.48918700  1
  C  C31  1  0.42251500  0.51548400  0.40521600  1
  C  C32  1  0.65143500  0.61189500  0.61283200  1
  C  C33  1  0.65833900  0.56053200  0.65609200  1
  C  C34  1  0.58629600  0.49381200  0.61608600  1
  C  C35  1  0.50773800  0.47913200  0.53289700  1
  C  C36  1  0.43613300  0.41271400  0.49305700  1
  C  C37  1  0.35707200  0.39781500  0.40973100  1
  C  C38  1  0.35031600  0.44896900  0.36584400  1
  C  C39  1  0.59261900  0.44107700  0.65662400  1
  C  C40  1  0.44428600  0.36140500  0.53607000  1
  C  C41  1  0.51091000  0.24949400  0.54729100  1
  C  C42  1  0.51654700  0.19359800  0.57719400  1
  C  C43  1  0.54050500  0.20680900  0.71306100  1
  C  C44  1  0.56225000  0.27793700  0.81580800  1
  C  C45  1  0.55798800  0.33401800  0.78449400  1
  C  C46  1  0.53080400  0.31955600  0.64987800  1
  C  C47  1  0.49667200  0.75734000  0.45881300  1
  C  C48  1  0.49136100  0.81108400  0.42177600  1
  C  C49  1  0.47136900  0.79561400  0.28367400  1
  C  C50  1  0.45167400  0.72315900  0.18520100  1
  C  C51  1  0.45572000  0.66968300  0.22480100  1
  C  C52  1  0.47984300  0.68688000  0.36132200  1
  I  I1  1  0.41130900  0.68636600  0.97158800  1
  I  I2  1  0.07031200  0.92256200  0.21904600  1
  I  I3  1  0.97410000  0.02274800  0.35081600  1
  N  N1  1  0.48737600  0.63250500  0.40230700  1
  N  N2  1  0.52213500  0.37578700  0.61555300  1
  O  O1  1  0.57938500  0.00746100  0.14644100  1
  O  O2  1  0.48310800  0.84818500  0.12129800  1
  O  O3  1  0.65312600  0.97152400  0.27294200  1
  O  O4  1  0.47880100  0.91945600  0.33367100  1
  O  O5  1  0.37429800  0.95956800  0.14862700  1
  O  O6  1  0.44918800  0.05997500  0.11537300  1
  O  O7  1  0.55229200  0.09519400  0.42633400  1
  O  O8  1  0.40871700  0.08289700  0.38875000  1
  O  O9  1  0.44733800  0.90350400  0.57286200  1
  O  O10  1  0.59492800  0.92928900  0.59941300  1
  O  O11  1  0.61989400  0.04443500  0.85378700  1
  O  O12  1  0.55049100  0.93906400  0.87586400  1
  O  O13  1  0.35173900  0.04670200  0.74515600  1
  O  O14  1  0.51468100  0.07817700  0.65701700  1
  O  O15  1  0.41270200  0.99175100  0.84556200  1
  O  O16  1  0.54817300  0.15982900  0.88053500  1
  O  O17  1  0.33976100  0.55421000  0.28334200  1
  O  O18  1  0.63480900  0.71212600  0.52066000  1
  O  O19  1  0.67013800  0.45369200  0.73306800  1
  O  O20  1  0.37395400  0.29712300  0.49988900  1
