# generated using pymatgen
data_ZnH22C31N2O9
_symmetry_space_group_name_H-M   'P 1'
_cell_length_a   16.28445800
_cell_length_b   17.48324500
_cell_length_c   23.43864400
_cell_angle_alpha   90.00382400
_cell_angle_beta   92.92118000
_cell_angle_gamma   89.07578200
_symmetry_Int_Tables_number   1
_chemical_formula_structural   ZnH22C31N2O9
_chemical_formula_sum   'Zn2 H44 C62 N4 O18'
_cell_volume   6663.56305778
_cell_formula_units_Z   2
loop_
 _symmetry_equiv_pos_site_id
 _symmetry_equiv_pos_as_xyz
  1  'x, y, z'
loop_
 _atom_site_type_symbol
 _atom_site_label
 _atom_site_symmetry_multiplicity
 _atom_site_fract_x
 _atom_site_fract_y
 _atom_site_fract_z
 _atom_site_occupancy
  Zn  Zn1  1  0.41240800  0.50380300  0.49730200  1
  Zn  Zn2  1  0.59896700  0.51059400  0.50207700  1
  H  H1  1  0.51814600  0.69566300  0.05382500  1
  H  H2  1  0.51778900  0.31696200  0.94658000  1
  H  H3  1  0.39418300  0.46518200  0.78518600  1
  H  H4  1  0.38648400  0.54759600  0.20566200  1
  H  H5  1  0.63281300  0.55066700  0.68337000  1
  H  H6  1  0.62815000  0.46373500  0.32490500  1
  H  H7  1  0.63773100  0.55035400  0.78741300  1
  H  H8  1  0.63289800  0.46286500  0.22130000  1
  H  H9  1  0.62251100  0.75479200  0.49850900  1
  H  H10  1  0.38873800  0.25975400  0.50130800  1
  H  H11  1  0.65153300  0.26723000  0.50532600  1
  H  H12  1  0.35973200  0.74708300  0.49410400  1
  H  H13  1  0.59471800  0.00797900  0.52419100  1
  H  H14  1  0.41636100  0.00647500  0.47575400  1
  H  H15  1  0.35315500  0.88589500  0.49126900  1
  H  H16  1  0.65798500  0.12842500  0.50841600  1
  H  H17  1  0.39523900  0.12263900  0.50565100  1
  H  H18  1  0.61591200  0.89188900  0.49436400  1
  H  H19  1  0.73307200  0.43084900  0.44194800  1
  H  H20  1  0.27794200  0.58676400  0.55489700  1
  H  H21  1  0.28768600  0.40790000  0.43581600  1
  H  H22  1  0.72417400  0.60316400  0.56641500  1
  H  H23  1  0.00650900  0.42347400  0.48116700  1
  H  H24  1  0.00410100  0.59087700  0.51887800  1
  H  H25  1  0.12977700  0.57771500  0.55632200  1
  H  H26  1  0.88149400  0.44006000  0.44071200  1
  H  H27  1  0.88797200  0.52687400  0.62579900  1
  H  H28  1  0.83695900  0.60923600  0.65595500  1
  H  H29  1  0.94778000  0.60629500  0.65241500  1
  H  H30  1  0.14983600  0.32597600  0.50300700  1
  H  H31  1  0.19648100  0.28466000  0.44123200  1
  H  H32  1  0.08659500  0.27943000  0.44850900  1
  H  H33  1  0.64765300  0.68506000  0.95732300  1
  H  H34  1  0.61474800  0.77401400  0.98952700  1
  H  H35  1  0.62253600  0.76716500  0.91295500  1
  H  H36  1  0.64298600  0.32185400  0.05461100  1
  H  H37  1  0.60994400  0.23442800  0.01934700  1
  H  H38  1  0.61470600  0.24087700  0.09648900  1
  H  H39  1  0.44644300  0.36052800  0.68045900  1
  H  H40  1  0.35663100  0.35661600  0.63242300  1
  H  H41  1  0.34541500  0.35368300  0.70888000  1
  H  H42  1  0.26451800  0.49548900  0.34190500  1
  H  H43  1  0.34170600  0.43722100  0.30946500  1
  H  H44  1  0.27371600  0.49908900  0.26557800  1
  C  C1  1  0.49620300  0.65689300  0.49831200  1
  C  C2  1  0.51515200  0.35751100  0.50109600  1
  C  C3  1  0.50840900  0.50830800  0.61158000  1
  C  C4  1  0.50294700  0.50592900  0.38778800  1
  C  C5  1  0.51510400  0.43793900  0.11824300  1
  C  C6  1  0.52071700  0.57467500  0.88211800  1
  C  C7  1  0.51428200  0.57200900  0.11851500  1
  C  C8  1  0.51834200  0.44066000  0.88175700  1
  C  C9  1  0.51729900  0.57329200  0.05975700  1
  C  C10  1  0.51898500  0.43933500  0.94066600  1
  C  C11  1  0.51863400  0.50563300  0.02974600  1
  C  C12  1  0.51992200  0.50694400  0.97076700  1
  C  C13  1  0.51787600  0.43690600  0.05897300  1
  C  C14  1  0.52129900  0.57564300  0.94155300  1
  C  C15  1  0.51912600  0.64201100  0.03098200  1
  C  C16  1  0.51860200  0.37058000  0.96949800  1
  C  C17  1  0.52249700  0.64369600  0.97238500  1
  C  C18  1  0.51941700  0.36879700  0.02827600  1
  C  C19  1  0.44660500  0.48364100  0.76257400  1
  C  C20  1  0.43898000  0.52834900  0.23224600  1
  C  C21  1  0.44319400  0.48299800  0.70364500  1
  C  C22  1  0.43457500  0.52707700  0.29095100  1
  C  C23  1  0.50998500  0.50778600  0.67435300  1
  C  C24  1  0.50311400  0.50472100  0.32507100  1
  C  C25  1  0.57993500  0.53131100  0.70503300  1
  C  C26  1  0.57421400  0.48201800  0.29942900  1
  C  C27  1  0.58281700  0.53169200  0.76392000  1
  C  C28  1  0.57712500  0.48109600  0.24080800  1
  C  C29  1  0.51617200  0.50784900  0.79280500  1
  C  C30  1  0.50972500  0.50470200  0.20712100  1
  C  C31  1  0.49167400  0.74071600  0.49710700  1
  C  C32  1  0.51960400  0.27370000  0.50246700  1
  C  C33  1  0.56281700  0.78278800  0.49748500  1
  C  C34  1  0.44841100  0.23170400  0.50228100  1
  C  C35  1  0.55890600  0.86159700  0.49585800  1
  C  C36  1  0.45225500  0.15289500  0.50403700  1
  C  C37  1  0.48346200  0.89956400  0.49426600  1
  C  C38  1  0.52766700  0.11487200  0.50559600  1
  C  C39  1  0.41254500  0.85724500  0.49308800  1
  C  C40  1  0.59862300  0.15712500  0.50662500  1
  C  C41  1  0.41640300  0.77844900  0.49476900  1
  C  C42  1  0.59483800  0.23591200  0.50480100  1
  C  C43  1  0.47518300  0.98362400  0.49166300  1
  C  C44  1  0.53589400  0.03081800  0.50828200  1
  C  C45  1  0.76482000  0.47040400  0.47045800  1
  C  C46  1  0.24639200  0.54552100  0.52771900  1
  C  C47  1  0.84924800  0.47517000  0.47043800  1
  C  C48  1  0.16199400  0.54064500  0.52789100  1
  C  C49  1  0.89013500  0.52645700  0.50629500  1
  C  C50  1  0.12127600  0.48709100  0.49387700  1
  C  C51  1  0.84437100  0.57238100  0.54120100  1
  C  C52  1  0.16750900  0.43818100  0.46140700  1
  C  C53  1  0.75990100  0.56648300  0.53964500  1
  C  C54  1  0.25178400  0.44550300  0.46179300  1
  C  C55  1  0.98001000  0.53564900  0.50672800  1
  C  C56  1  0.03118200  0.47856400  0.49309200  1
  C  C57  1  0.88882000  0.59000400  0.63031100  1
  C  C58  1  0.14156400  0.31526500  0.45644200  1
  C  C59  1  0.60641800  0.73593200  0.95190200  1
  C  C60  1  0.60075100  0.27284900  0.05621000  1
  C  C61  1  0.38089800  0.37828000  0.67434100  1
  C  C62  1  0.30842800  0.49308500  0.30732800  1
  N  N1  1  0.51321900  0.50493400  0.14653300  1
  N  N2  1  0.51907400  0.50772100  0.85366400  1
  N  N3  1  0.72163900  0.51572300  0.50479200  1
  N  N4  1  0.28974500  0.49862800  0.49465000  1
  O  O1  1  0.42747000  0.61866000  0.49681500  1
  O  O2  1  0.58389600  0.39574000  0.50280300  1
  O  O3  1  0.56897900  0.62350000  0.50051000  1
  O  O4  1  0.44239900  0.39090300  0.49866400  1
  O  O5  1  0.43727100  0.50587100  0.58283700  1
  O  O6  1  0.57415400  0.50819900  0.41652700  1
  O  O7  1  0.57868000  0.51076800  0.58665200  1
  O  O8  1  0.43264900  0.50401900  0.41272400  1
  O  O9  1  0.51229800  0.37263100  0.14822500  1
  O  O10  1  0.51935000  0.64009600  0.85200000  1
  O  O11  1  0.51350300  0.63775300  0.14819400  1
  O  O12  1  0.51795200  0.37487100  0.85210100  1
  O  O13  1  0.88213600  0.62478500  0.57659200  1
  O  O14  1  0.13003300  0.38443000  0.42705100  1
  O  O15  1  0.52451600  0.71334200  0.94588800  1
  O  O16  1  0.51917600  0.29911000  0.05485500  1
  O  O17  1  0.37329200  0.45798100  0.67510800  1
  O  O18  1  0.36409500  0.55271300  0.31460100  1
