# generated using pymatgen
data_Cu3H26(C19O7)2
_symmetry_space_group_name_H-M   'P 1'
_cell_length_a   30.61488400
_cell_length_b   31.70708500
_cell_length_c   21.60057200
_cell_angle_alpha   90.00000000
_cell_angle_beta   135.11149400
_cell_angle_gamma   90.00000000
_symmetry_Int_Tables_number   1
_chemical_formula_structural   Cu3H26(C19O7)2
_chemical_formula_sum   'Cu12 H104 C152 O56'
_cell_volume   14797.63914752
_cell_formula_units_Z   4
loop_
 _symmetry_equiv_pos_site_id
 _symmetry_equiv_pos_as_xyz
  1  'x, y, z'
loop_
 _atom_site_type_symbol
 _atom_site_label
 _atom_site_symmetry_multiplicity
 _atom_site_fract_x
 _atom_site_fract_y
 _atom_site_fract_z
 _atom_site_occupancy
  Cu  Cu1  1  0.43972600  0.00115200  0.43358800  1
  Cu  Cu2  1  0.93973000  0.49881500  0.43349100  1
  Cu  Cu3  1  0.56289700  0.99639400  0.55673900  1
  Cu  Cu4  1  0.06290000  0.50357800  0.55664200  1
  Cu  Cu5  1  0.49628700  0.49837900  0.43341700  1
  Cu  Cu6  1  0.99628300  0.00159400  0.43350500  1
  Cu  Cu7  1  0.49659000  0.49902500  0.55438500  1
  Cu  Cu8  1  0.99658600  0.00094200  0.55447400  1
  Cu  Cu9  1  0.49872400  0.96077300  0.99075200  1
  Cu  Cu10  1  0.49414400  0.04277100  0.98978500  1
  Cu  Cu11  1  0.99414500  0.45720100  0.98968500  1
  Cu  Cu12  1  0.99873300  0.53919500  0.99066500  1
  H  H1  1  0.44104700  0.72232100  0.34201700  1
  H  H2  1  0.45106100  0.27497400  0.35924000  1
  H  H3  1  0.95093600  0.22496500  0.35925100  1
  H  H4  1  0.94106200  0.77768500  0.34203100  1
  H  H5  1  0.59476500  0.72209600  0.59738500  1
  H  H6  1  0.61471600  0.27731700  0.60750100  1
  H  H7  1  0.11471600  0.22264000  0.60738400  1
  H  H8  1  0.09475700  0.77787100  0.59740800  1
  H  H9  1  0.53611500  0.77434400  0.62741200  1
  H  H10  1  0.56791000  0.22330600  0.65417000  1
  H  H11  1  0.06806000  0.27668600  0.65424500  1
  H  H12  1  0.03607900  0.72560600  0.62736500  1
  H  H13  1  0.43154000  0.72125300  0.51597700  1
  H  H14  1  0.46127600  0.27455600  0.55292700  1
  H  H15  1  0.96143100  0.22544200  0.55320200  1
  H  H16  1  0.93151500  0.77870900  0.51594600  1
  H  H17  1  0.38258300  0.77423000  0.37386500  1
  H  H18  1  0.40472000  0.22142200  0.40797700  1
  H  H19  1  0.90474400  0.27855400  0.40817500  1
  H  H20  1  0.88256900  0.72575600  0.37381200  1
  H  H21  1  0.58010300  0.95764800  0.37855400  1
  H  H22  1  0.08011100  0.54231700  0.37845600  1
  H  H23  1  0.57763600  0.95742100  0.26256600  1
  H  H24  1  0.07763600  0.54254000  0.26245500  1
  H  H25  1  0.36165600  0.03223700  0.04908600  1
  H  H26  1  0.41400800  0.07985700  0.10329100  1
  H  H27  1  0.91401900  0.42010000  0.10321400  1
  H  H28  1  0.86166600  0.46771800  0.04897900  1
  H  H29  1  0.36165100  0.03057700  0.16166000  1
  H  H30  1  0.41451300  0.07793600  0.21631900  1
  H  H31  1  0.91450200  0.42204100  0.21621800  1
  H  H32  1  0.86164400  0.46940300  0.16153400  1
  H  H33  1  0.59707600  0.98232800  0.78895500  1
  H  H34  1  0.09704800  0.51771300  0.78883200  1
  H  H35  1  0.59425900  0.98472600  0.89967900  1
  H  H36  1  0.09423000  0.51531600  0.89955300  1
  H  H37  1  0.37827900  0.05978200  0.67603500  1
  H  H38  1  0.35471200  0.00255300  0.65367300  1
  H  H39  1  0.85471300  0.49732300  0.65357500  1
  H  H40  1  0.87835800  0.44010900  0.67601200  1
  H  H41  1  0.30283800  0.44760400  0.37108500  1
  H  H42  1  0.80282900  0.05236800  0.37116800  1
  H  H43  1  0.68933300  0.05332200  0.25527500  1
  H  H44  1  0.18935000  0.44664700  0.25520800  1
  H  H45  1  0.69056900  0.95945100  0.05663500  1
  H  H46  1  0.69114300  0.91732100  0.11888300  1
  H  H47  1  0.19114600  0.58264600  0.11878800  1
  H  H48  1  0.19058000  0.54052000  0.05654500  1
  H  H49  1  0.30360900  0.58192900  0.23185000  1
  H  H50  1  0.30304900  0.54005100  0.16923000  1
  H  H51  1  0.80303500  0.95992200  0.16931000  1
  H  H52  1  0.80360300  0.91803600  0.23192100  1
  H  H53  1  0.69081400  0.55515500  0.75018300  1
  H  H54  1  0.19081000  0.94481100  0.75026200  1
  H  H55  1  0.30434100  0.94432600  0.86094200  1
  H  H56  1  0.80434800  0.55563900  0.86086600  1
  H  H57  1  0.29993500  0.05618500  0.67716300  1
  H  H58  1  0.29999100  0.09187700  0.74703400  1
  H  H59  1  0.79999000  0.40810600  0.74692800  1
  H  H60  1  0.79993800  0.44379800  0.67705700  1
  H  H61  1  0.68754400  0.40949600  0.63530100  1
  H  H62  1  0.68777800  0.44490000  0.56530700  1
  H  H63  1  0.18777900  0.05507700  0.56541800  1
  H  H64  1  0.18754400  0.09048600  0.63541200  1
  H  H65  1  0.56079900  0.71738600  0.43343300  1
  H  H66  1  0.63020500  0.74435200  0.52949300  1
  H  H67  1  0.62682800  0.78979400  0.43315900  1
  H  H68  1  0.63004000  0.73444600  0.41589200  1
  H  H69  1  0.55755800  0.76290500  0.33769800  1
  H  H70  1  0.63973800  0.25630100  0.52558700  1
  H  H71  1  0.56699200  0.28224800  0.43418100  1
  H  H72  1  0.55558700  0.23726800  0.33026900  1
  H  H73  1  0.62710400  0.26704300  0.40029100  1
  H  H74  1  0.62824100  0.21151900  0.42111000  1
  H  H75  1  0.06681900  0.21767900  0.43397100  1
  H  H76  1  0.13958500  0.24364100  0.52527100  1
  H  H77  1  0.12792800  0.28839500  0.42061900  1
  H  H78  1  0.12678500  0.23286700  0.39982800  1
  H  H79  1  0.05525900  0.26262800  0.32988900  1
  H  H80  1  0.13020400  0.75565900  0.52950900  1
  H  H81  1  0.06079900  0.78262900  0.43345700  1
  H  H82  1  0.05758400  0.73715400  0.33771400  1
  H  H83  1  0.13008500  0.76558700  0.41597600  1
  H  H84  1  0.12682600  0.71023200  0.43315300  1
  H  H85  1  0.45904300  0.08145300  0.60324700  1
  H  H86  1  0.44363600  0.09598100  0.66867100  1
  H  H87  1  0.36836100  0.14813300  0.55751100  1
  H  H88  1  0.44432000  0.15716900  0.60078000  1
  H  H89  1  0.38386600  0.13366300  0.49343900  1
  H  H90  1  0.28191000  0.02464800  0.41362400  1
  H  H91  1  0.27636800  0.02903400  0.49188900  1
  H  H92  1  0.25090400  0.95352400  0.47341300  1
  H  H93  1  0.19661500  0.98159100  0.37005700  1
  H  H94  1  0.25607900  0.94892400  0.39519900  1
  H  H95  1  0.77640500  0.47079800  0.49182600  1
  H  H96  1  0.78194100  0.47519200  0.41355500  1
  H  H97  1  0.75601700  0.55090300  0.39504900  1
  H  H98  1  0.69659200  0.51819700  0.36993100  1
  H  H99  1  0.75083600  0.54629100  0.47325700  1
  H  H100  1  0.94376800  0.40395400  0.66868800  1
  H  H101  1  0.95915500  0.41850200  0.60324500  1
  H  H102  1  0.88404900  0.36624500  0.49349900  1
  H  H103  1  0.94454100  0.34277400  0.60086600  1
  H  H104  1  0.86857100  0.35175400  0.55759500  1
  C  C1  1  0.50069900  0.99805400  0.37583800  1
  C  C2  1  0.00070400  0.50190900  0.37574100  1
  C  C3  1  0.49507600  0.91800100  0.49050700  1
  C  C4  1  0.50751300  0.07952700  0.50122400  1
  C  C5  1  0.00752200  0.42044200  0.50114700  1
  C  C6  1  0.99507300  0.58196900  0.49039800  1
  C  C7  1  0.50197200  0.99968400  0.61464200  1
  C  C8  1  0.00197400  0.50029400  0.61454400  1
  C  C9  1  0.46189400  0.73452300  0.40631000  1
  C  C10  1  0.47694500  0.26284000  0.42582400  1
  C  C11  1  0.97688000  0.23711600  0.42584700  1
  C  C12  1  0.96189500  0.76547000  0.40630800  1
  C  C13  1  0.51898900  0.76169700  0.46846800  1
  C  C14  1  0.53520400  0.23667600  0.48243500  1
  C  C15  1  0.03514000  0.26327500  0.48235200  1
  C  C16  1  0.01898400  0.73829100  0.46845600  1
  C  C17  1  0.49158800  0.87281600  0.48725400  1
  C  C18  1  0.51067600  0.12471000  0.50498400  1
  C  C19  1  0.01069000  0.37525900  0.50493700  1
  C  C20  1  0.99157900  0.62715600  0.48716400  1
  C  C21  1  0.49066500  0.62362700  0.48692800  1
  C  C22  1  0.50373700  0.37381600  0.50226600  1
  C  C23  1  0.00373200  0.12615400  0.50235600  1
  C  C24  1  0.99066500  0.87634700  0.48700300  1
  C  C25  1  0.43055500  0.76186100  0.42379500  1
  C  C26  1  0.45210700  0.23467700  0.45238900  1
  C  C27  1  0.95212400  0.26529700  0.45251400  1
  C  C28  1  0.93054200  0.73812200  0.42375700  1
  C  C29  1  0.48813600  0.78873900  0.48505700  1
  C  C30  1  0.51066000  0.20878000  0.50788600  1
  C  C31  1  0.01067600  0.29118900  0.50790200  1
  C  C32  1  0.98811800  0.71123700  0.48501000  1
  C  C33  1  0.45740000  0.73417900  0.50186800  1
  C  C34  1  0.48320200  0.26241200  0.53209100  1
  C  C35  1  0.98329000  0.23757500  0.53225800  1
  C  C36  1  0.95738300  0.76579000  0.50184500  1
  C  C37  1  0.48901500  0.70773800  0.48491500  1
  C  C38  1  0.50837400  0.28975900  0.50606600  1
  C  C39  1  0.00837900  0.21020900  0.50612900  1
  C  C40  1  0.98901300  0.79223900  0.48492900  1
  C  C41  1  0.51493100  0.76188300  0.56311000  1
  C  C42  1  0.54177100  0.23570900  0.58767400  1
  C  C43  1  0.04185800  0.26427300  0.58773200  1
  C  C44  1  0.01490700  0.73808000  0.56307800  1
  C  C45  1  0.54690300  0.73459800  0.54665200  1
  C  C46  1  0.56733500  0.26395700  0.56213200  1
  C  C47  1  0.06734000  0.23600600  0.56208600  1
  C  C48  1  0.04689400  0.76537500  0.54665600  1
  C  C49  1  0.48955800  0.83484700  0.48567100  1
  C  C50  1  0.51152200  0.16268800  0.50695800  1
  C  C51  1  0.01153900  0.33728100  0.50693900  1
  C  C52  1  0.98954200  0.66512700  0.48559900  1
  C  C53  1  0.48964100  0.66161700  0.48568900  1
  C  C54  1  0.50604100  0.33585200  0.50437600  1
  C  C55  1  0.00603800  0.16411700  0.50445600  1
  C  C56  1  0.98964100  0.83835700  0.48574000  1
  C  C57  1  0.45678200  0.01910800  0.23098400  1
  C  C58  1  0.95678100  0.48086200  0.23088000  1
  C  C59  1  0.50044800  0.99755900  0.30816400  1
  C  C60  1  0.00045100  0.50240700  0.30806400  1
  C  C61  1  0.54472600  0.97547100  0.31921600  1
  C  C62  1  0.04473100  0.52449400  0.31911600  1
  C  C63  1  0.54307800  0.97512000  0.25304400  1
  C  C64  1  0.04308200  0.52484400  0.25294300  1
  C  C65  1  0.49882400  0.99837700  0.17690900  1
  C  C66  1  0.99883000  0.50158600  0.17681200  1
  C  C67  1  0.45693300  0.02034000  0.16983200  1
  C  C68  1  0.95693900  0.47962300  0.16973500  1
  C  C69  1  0.40220500  0.04839600  0.11049700  1
  C  C70  1  0.90221300  0.45156500  0.11040300  1
  C  C71  1  0.40231000  0.04719800  0.18283400  1
  C  C72  1  0.90230700  0.45277600  0.18272800  1
  C  C73  1  0.45094700  0.01427500  0.66344800  1
  C  C74  1  0.95096700  0.48566600  0.66336900  1
  C  C75  1  0.50238200  0.00179200  0.68253200  1
  C  C76  1  0.00238300  0.49818600  0.68243600  1
  C  C77  1  0.55490000  0.99192400  0.76951100  1
  C  C78  1  0.05488600  0.50808700  0.76940100  1
  C  C79  1  0.55347400  0.99321200  0.83258900  1
  C  C80  1  0.05345800  0.50680100  0.83247700  1
  C  C81  1  0.49977300  0.00449800  0.80955200  1
  C  C82  1  0.99977400  0.49547700  0.80945700  1
  C  C83  1  0.44969900  0.01487000  0.72372200  1
  C  C84  1  0.94971800  0.48506700  0.72364300  1
  C  C85  1  0.38376900  0.02767100  0.66205700  1
  C  C86  1  0.88380500  0.47222400  0.66199300  1
  C  C87  1  0.38475300  0.02658200  0.59074500  1
  C  C88  1  0.88478900  0.47331600  0.59068100  1
  C  C89  1  0.37934100  0.49583600  0.37658300  1
  C  C90  1  0.87933400  0.00413400  0.37666800  1
  C  C91  1  0.49237700  0.57839200  0.48895800  1
  C  C92  1  0.50080300  0.41902100  0.49911100  1
  C  C93  1  0.00079900  0.08095000  0.49920400  1
  C  C94  1  0.99237400  0.92157900  0.48904000  1
  C  C95  1  0.61350600  0.50146200  0.61117700  1
  C  C96  1  0.11350200  0.99850900  0.61126900  1
  C  C97  1  0.61348200  0.00462800  0.10781800  1
  C  C98  1  0.11348100  0.49534000  0.10772300  1
  C  C99  1  0.49729600  0.99949800  0.10798100  1
  C  C100  1  0.99729800  0.50046900  0.10788100  1
  C  C101  1  0.37935400  0.99894600  0.87361400  1
  C  C102  1  0.87935700  0.50102800  0.87351900  1
  C  C103  1  0.49659700  0.00400300  0.87362700  1
  C  C104  1  0.99659900  0.49597000  0.87353300  1
  C  C105  1  0.27734900  0.51935200  0.23530500  1
  C  C106  1  0.77734100  0.98061000  0.23540000  1
  C  C107  1  0.31158600  0.49445300  0.30863700  1
  C  C108  1  0.81157900  0.00551100  0.30872900  1
  C  C109  1  0.27858700  0.46820500  0.31510100  1
  C  C110  1  0.77858100  0.03176200  0.31519100  1
  C  C111  1  0.71388000  0.03249900  0.24883600  1
  C  C112  1  0.21388600  0.46746900  0.24874800  1
  C  C113  1  0.68126500  0.00586000  0.17671200  1
  C  C114  1  0.18126800  0.49410600  0.17661700  1
  C  C115  1  0.71591800  0.98012700  0.17405700  1
  C  C116  1  0.21592500  0.51983500  0.17396200  1
  C  C117  1  0.71087100  0.94714900  0.12055500  1
  C  C118  1  0.21087800  0.55281800  0.12046600  1
  C  C119  1  0.28309400  0.55241400  0.19287100  1
  C  C120  1  0.78308600  0.94755500  0.19295500  1
  C  C121  1  0.71487300  0.47414700  0.67878600  1
  C  C122  1  0.21486900  0.02583500  0.67889300  1
  C  C123  1  0.68121300  0.50248900  0.67893600  1
  C  C124  1  0.18121100  0.99748600  0.67903600  1
  C  C125  1  0.71472300  0.53183400  0.74661900  1
  C  C126  1  0.21472100  0.96813700  0.74671100  1
  C  C127  1  0.27942500  0.96773400  0.80943900  1
  C  C128  1  0.77942700  0.53223700  0.80935100  1
  C  C129  1  0.31152100  0.99771000  0.80726700  1
  C  C130  1  0.81152300  0.50226500  0.80717200  1
  C  C131  1  0.27627300  0.02659200  0.74033600  1
  C  C132  1  0.77627800  0.47338900  0.74023100  1
  C  C133  1  0.28030700  0.06399400  0.70334200  1
  C  C134  1  0.78030900  0.43598800  0.70323500  1
  C  C135  1  0.70813200  0.43679100  0.63134500  1
  C  C136  1  0.20813000  0.06319100  0.63145300  1
  C  C137  1  0.58623800  0.74773000  0.45933300  1
  C  C138  1  0.60117400  0.75950600  0.40809500  1
  C  C139  1  0.59339300  0.25235200  0.45776900  1
  C  C140  1  0.60164200  0.24130800  0.39838900  1
  C  C141  1  0.09320800  0.24757600  0.45748600  1
  C  C142  1  0.10134900  0.25860200  0.39797700  1
  C  C143  1  0.08624000  0.75228500  0.45934600  1
  C  C144  1  0.10119300  0.74052900  0.40812200  1
  C  C145  1  0.42393200  0.09228700  0.60180900  1
  C  C146  1  0.40376400  0.13572800  0.56065400  1
  C  C147  1  0.28845100  0.00796000  0.46487200  1
  C  C148  1  0.24509500  0.97049100  0.42306300  1
  C  C149  1  0.78846200  0.49188200  0.46478500  1
  C  C150  1  0.74505700  0.52932500  0.42293100  1
  C  C151  1  0.92406000  0.40764000  0.60182300  1
  C  C152  1  0.90395400  0.36418700  0.56071900  1
  O  O1  1  0.44770000  0.00242800  0.35156100  1
  O  O2  1  0.94770600  0.49753400  0.35146500  1
  O  O3  1  0.55395900  0.99408600  0.45787800  1
  O  O4  1  0.05396400  0.50587700  0.45778200  1
  O  O5  1  0.44343600  0.93961400  0.43528800  1
  O  O6  1  0.45263000  0.06206400  0.44392900  1
  O  O7  1  0.95263900  0.43790400  0.44384300  1
  O  O8  1  0.94343600  0.56035300  0.43518100  1
  O  O9  1  0.54995000  0.93548300  0.54274300  1
  O  O10  1  0.55915600  0.05788100  0.54950200  1
  O  O11  1  0.05916300  0.44209000  0.54942300  1
  O  O12  1  0.04994900  0.56448900  0.54262900  1
  O  O13  1  0.44871800  0.00280100  0.53252400  1
  O  O14  1  0.94872100  0.49717100  0.53242600  1
  O  O15  1  0.55488900  0.99583100  0.63873100  1
  O  O16  1  0.05489000  0.50414900  0.63863200  1
  O  O17  1  0.40761300  0.50855300  0.35397500  1
  O  O18  1  0.90760800  0.99142300  0.35405800  1
  O  O19  1  0.40913200  0.48460700  0.45741000  1
  O  O20  1  0.90912700  0.01535700  0.45750000  1
  O  O21  1  0.51112800  0.55889100  0.45706600  1
  O  O22  1  0.48152900  0.43796400  0.42878600  1
  O  O23  1  0.98152900  0.06200900  0.42888000  1
  O  O24  1  0.01111600  0.94108100  0.45714100  1
  O  O25  1  0.47557000  0.55855500  0.52320800  1
  O  O26  1  0.51761100  0.43940200  0.56665800  1
  O  O27  1  0.01759900  0.06056700  0.56674300  1
  O  O28  1  0.97557000  0.94141100  0.52330000  1
  O  O29  1  0.58499100  0.48828400  0.53194600  1
  O  O30  1  0.08498800  0.01168300  0.53203800  1
  O  O31  1  0.58401100  0.51334300  0.63231000  1
  O  O32  1  0.08400900  0.98663000  0.63240300  1
  O  O33  1  0.58628800  0.96984800  0.06044300  1
  O  O34  1  0.58256100  0.03810900  0.09639500  1
  O  O35  1  0.08255900  0.46186200  0.09630600  1
  O  O36  1  0.08629400  0.53011800  0.06034300  1
  O  O37  1  0.51709000  0.96598100  0.09739600  1
  O  O38  1  0.47657200  0.03403600  0.05991900  1
  O  O39  1  0.97655900  0.46593600  0.05980200  1
  O  O40  1  0.01710800  0.53398400  0.09731600  1
  O  O41  1  0.41045100  0.96468600  0.92100200  1
  O  O42  1  0.40642300  0.03445100  0.88341200  1
  O  O43  1  0.90642700  0.46552500  0.88330200  1
  O  O44  1  0.91046100  0.53528400  0.92092800  1
  O  O45  1  0.47983600  0.96849100  0.88409200  1
  O  O46  1  0.51249800  0.03857300  0.91988200  1
  O  O47  1  0.01251100  0.46140100  0.91979700  1
  O  O48  1  0.97983200  0.53148100  0.88399500  1
  O  O49  1  0.55031700  0.77967900  0.44972400  1
  O  O50  1  0.56160700  0.21961000  0.45534000  1
  O  O51  1  0.06145900  0.28032400  0.45512000  1
  O  O52  1  0.05031700  0.72032600  0.44970800  1
  O  O53  1  0.37189400  0.06572500  0.54921200  1
  O  O54  1  0.34947800  0.99348200  0.53091200  1
  O  O55  1  0.84947000  0.50639700  0.53080700  1
  O  O56  1  0.87198400  0.43416800  0.54919600  1
