# generated using pymatgen
data_Zn2H14C33N2O9
_symmetry_space_group_name_H-M   'P 1'
_cell_length_a   8.51718800
_cell_length_b   13.00885200
_cell_length_c   14.24410000
_cell_angle_alpha   90.96874300
_cell_angle_beta   90.08634100
_cell_angle_gamma   95.31723300
_symmetry_Int_Tables_number   1
_chemical_formula_structural   Zn2H14C33N2O9
_chemical_formula_sum   'Zn2 H14 C33 N2 O9'
_cell_volume   1571.20630523
_cell_formula_units_Z   1
loop_
 _symmetry_equiv_pos_site_id
 _symmetry_equiv_pos_as_xyz
  1  'x, y, z'
loop_
 _atom_site_type_symbol
 _atom_site_label
 _atom_site_symmetry_multiplicity
 _atom_site_fract_x
 _atom_site_fract_y
 _atom_site_fract_z
 _atom_site_occupancy
  Zn  Zn1  1  0.56323300  0.51031100  0.89335300  1
  Zn  Zn2  1  0.55746600  0.48691000  0.10121500  1
  H  H1  1  0.62672100  0.17540800  0.00184100  1
  H  H2  1  0.59892000  0.99366800  0.01767300  1
  H  H3  1  0.07019600  0.57058700  0.03667500  1
  H  H4  1  0.35771100  0.84829300  0.99124100  1
  H  H5  1  0.24526700  0.00276100  0.98617300  1
  H  H6  1  0.26973900  0.15965300  0.00552300  1
  H  H7  1  0.04646100  0.42665600  0.95054700  1
  H  H8  1  0.31784200  0.41745800  0.56321600  1
  H  H9  1  0.33870800  0.57967100  0.43342400  1
  H  H10  1  0.53399200  0.31669100  0.45216500  1
  H  H11  1  0.78198200  0.41753500  0.56114100  1
  H  H12  1  0.80284400  0.57974700  0.43134900  1
  H  H13  1  0.58669600  0.68051200  0.54240200  1
  H  H14  1  0.61041300  0.77873700  0.96757800  1
  C  C1  1  0.01353600  0.13482800  0.99491400  1
  C  C2  1  0.87898700  0.18807900  0.99268400  1
  C  C3  1  0.73242100  0.13553000  0.00278800  1
  C  C4  1  0.71731100  0.03033600  0.01183900  1
  C  C5  1  0.84888200  0.97496200  0.01001500  1
  C  C6  1  0.99796100  0.02672400  0.00151200  1
  C  C7  1  0.83027700  0.86784700  0.01506800  1
  C  C8  1  0.96080800  0.81094500  0.01234300  1
  C  C9  1  0.10944400  0.86250200  0.00408200  1
  C  C10  1  0.12724600  0.96861500  0.99688700  1
  C  C11  1  0.94800200  0.70380800  0.02014100  1
  C  C12  1  0.08161500  0.65291300  0.02759600  1
  C  C13  1  0.22841300  0.70315300  0.01550800  1
  C  C14  1  0.24242100  0.80821300  0.00152600  1
  C  C15  1  0.16029000  0.19200200  0.99283100  1
  C  C16  1  0.17063100  0.29611100  0.97572400  1
  C  C17  1  0.03691200  0.34498800  0.96330900  1
  C  C18  1  0.89167100  0.29376800  0.97837300  1
  C  C19  1  0.80017800  0.63796900  0.01243600  1
  C  C20  1  0.75818000  0.35693500  0.98462200  1
  C  C21  1  0.32043800  0.35942900  0.98239200  1
  C  C22  1  0.36228600  0.64026000  0.00975300  1
  C  C23  1  0.43943900  0.54317500  0.46378900  1
  C  C24  1  0.42791700  0.45400500  0.53189400  1
  C  C25  1  0.57468200  0.59789900  0.52063300  1
  C  C26  1  0.56312400  0.50859000  0.58692300  1
  C  C27  1  0.69277100  0.54319900  0.46267200  1
  C  C28  1  0.55756400  0.48861300  0.40764300  1
  C  C29  1  0.68125000  0.45402900  0.53077700  1
  C  C30  1  0.54600600  0.39930500  0.47393300  1
  C  C31  1  0.56562000  0.51767900  0.68945100  1
  C  C32  1  0.55507100  0.47952700  0.30511500  1
  C  C33  1  0.67172300  0.81649500  0.02714900  1
  N  N1  1  0.56675700  0.52197300  0.77065200  1
  N  N2  1  0.55393700  0.47523500  0.22391400  1
  O  O1  1  0.74336900  0.59328600  0.08845500  1
  O  O2  1  0.74281600  0.61604400  0.92807600  1
  O  O3  1  0.71621600  0.40239800  0.90824300  1
  O  O4  1  0.70554300  0.37954700  0.06846700  1
  O  O5  1  0.37703900  0.40413400  0.90622000  1
  O  O6  1  0.37830400  0.38093200  0.06654900  1
  O  O7  1  0.40407700  0.59463300  0.08624600  1
  O  O8  1  0.41539300  0.61779500  0.92606200  1
  O  O9  1  0.60580500  0.82073200  0.10285500  1
