# generated using pymatgen
data_Zn2H41C73(NO4)3
_symmetry_space_group_name_H-M   'P 1'
_cell_length_a   13.46254900
_cell_length_b   15.19365400
_cell_length_c   11.99473400
_cell_angle_alpha   90.00000000
_cell_angle_beta   90.14303900
_cell_angle_gamma   90.00000000
_symmetry_Int_Tables_number   1
_chemical_formula_structural   Zn2H41C73(NO4)3
_chemical_formula_sum   'Zn2 H41 C73 N3 O12'
_cell_volume   2453.45895632
_cell_formula_units_Z   1
loop_
 _symmetry_equiv_pos_site_id
 _symmetry_equiv_pos_as_xyz
  1  'x, y, z'
loop_
 _atom_site_type_symbol
 _atom_site_label
 _atom_site_symmetry_multiplicity
 _atom_site_fract_x
 _atom_site_fract_y
 _atom_site_fract_z
 _atom_site_occupancy
  Zn  Zn1  1  0.90049700  0.51650900  0.48128500  1
  Zn  Zn2  1  0.12240900  0.51915900  0.47743600  1
  H  H1  1  0.15974000  0.19775400  0.88401700  1
  H  H2  1  0.14148100  0.81769600  0.91638800  1
  H  H3  1  0.86707400  0.28377600  0.66704600  1
  H  H4  1  0.86690700  0.75424400  0.65896300  1
  H  H5  1  0.85724500  0.16104300  0.79579400  1
  H  H6  1  0.85751300  0.88042400  0.78240300  1
  H  H7  1  0.85441400  0.18521400  0.10932500  1
  H  H8  1  0.85786100  0.82436300  0.06940100  1
  H  H9  1  0.16943400  0.31506700  0.23583800  1
  H  H10  1  0.15795100  0.75077100  0.28427100  1
  H  H11  1  0.85133800  0.31177900  0.23417200  1
  H  H12  1  0.85547000  0.69810000  0.19625300  1
  H  H13  1  0.17051600  0.18750300  0.11266300  1
  H  H14  1  0.15797100  0.87749400  0.16081700  1
  H  H15  1  0.98790000  0.01625700  0.77705000  1
  H  H16  1  0.02158300  0.01952800  0.18425600  1
  H  H17  1  0.25629100  0.53076400  0.64783400  1
  H  H18  1  0.76143500  0.50964800  0.31411500  1
  H  H19  1  0.43024400  0.53950100  0.66189100  1
  H  H20  1  0.58236200  0.53047100  0.66420400  1
  H  H21  1  0.26983500  0.51147900  0.29912900  1
  H  H22  1  0.58066500  0.53612000  0.95888000  1
  H  H23  1  0.49060600  0.44429800  0.82516500  1
  H  H24  1  0.41923300  0.30245400  0.88423900  1
  H  H25  1  0.43844600  0.25303600  0.07775300  1
  H  H26  1  0.52733100  0.34453700  0.21266000  1
  H  H27  1  0.83022300  0.49479700  0.90509600  1
  H  H28  1  0.80406200  0.37031800  0.02894500  1
  H  H29  1  0.70997500  0.24093300  0.96535800  1
  H  H30  1  0.64259400  0.23674400  0.77487400  1
  H  H31  1  0.66804700  0.35934400  0.64867000  1
  H  H32  1  0.39062600  0.36162300  0.68993300  1
  H  H33  1  0.49666700  0.29013500  0.55273800  1
  H  H34  1  0.43347100  0.16605500  0.44190500  1
  H  H35  1  0.26253000  0.11384800  0.46930800  1
  H  H36  1  0.15512800  0.18378200  0.60503700  1
  H  H37  1  0.34582900  0.60764600  0.88282100  1
  H  H38  1  0.51293200  0.66957600  0.86885800  1
  H  H39  1  0.54074700  0.80866800  0.76963600  1
  H  H40  1  0.40019000  0.88597000  0.68260200  1
  H  H41  1  0.23305500  0.82530600  0.69408600  1
  C  C1  1  0.01748100  0.31687900  0.70702000  1
  C  C2  1  0.01060800  0.71225300  0.71594100  1
  C  C3  1  0.00221800  0.09604900  0.92204400  1
  C  C4  1  0.99686300  0.93800400  0.92415700  1
  C  C5  1  0.09390800  0.22041500  0.84096800  1
  C  C6  1  0.08076600  0.80266600  0.86045000  1
  C  C7  1  0.93060300  0.26928600  0.71862100  1
  C  C8  1  0.92740400  0.76592800  0.71644500  1
  C  C9  1  0.10150700  0.28864900  0.76527300  1
  C  C10  1  0.08813400  0.73121900  0.78931700  1
  C  C11  1  0.00539700  0.17644900  0.85540100  1
  C  C12  1  0.99812200  0.85624900  0.85912400  1
  C  C13  1  0.92497800  0.19902100  0.79076900  1
  C  C14  1  0.92183400  0.83791100  0.78608800  1
  C  C15  1  0.01013900  0.32353500  0.24363000  1
  C  C16  1  0.00667300  0.71506300  0.24880000  1
  C  C17  1  0.01277500  0.09722200  0.03685700  1
  C  C18  1  0.00798600  0.93900300  0.03916000  1
  C  C19  1  0.92355700  0.21510100  0.13530900  1
  C  C20  1  0.92421500  0.80714300  0.11541800  1
  C  C21  1  0.09941500  0.28839600  0.20741200  1
  C  C22  1  0.09172900  0.76517400  0.23657600  1
  C  C23  1  0.92215500  0.28653300  0.20653300  1
  C  C24  1  0.92271800  0.73636600  0.18786300  1
  C  C25  1  0.01255400  0.17959000  0.10052600  1
  C  C26  1  0.00875600  0.85811700  0.10550200  1
  C  C27  1  0.10046400  0.21627200  0.13721000  1
  C  C28  1  0.09203400  0.83718500  0.16693800  1
  C  C29  1  0.99302300  0.01672700  0.86700400  1
  C  C30  1  0.01558000  0.01860100  0.09437200  1
  C  C31  1  0.01406600  0.63992600  0.63369300  1
  C  C32  1  0.01720500  0.39208500  0.62874100  1
  C  C33  1  0.00646000  0.64195100  0.32867900  1
  C  C34  1  0.00906600  0.39590800  0.32536300  1
  C  C35  1  0.30668100  0.51685400  0.37898900  1
  C  C36  1  0.29891700  0.52831300  0.57206500  1
  C  C37  1  0.40066400  0.53230800  0.57924800  1
  C  C38  1  0.45852200  0.52601700  0.48393000  1
  C  C39  1  0.40957600  0.51882100  0.38350300  1
  C  C40  1  0.61619100  0.52643000  0.58349900  1
  C  C41  1  0.56264600  0.52483600  0.48539700  1
  C  C42  1  0.61511500  0.51842500  0.38657100  1
  C  C43  1  0.56161400  0.51299900  0.28689100  1
  C  C44  1  0.71763600  0.51895500  0.58442900  1
  C  C45  1  0.71917400  0.51471000  0.38987700  1
  C  C46  1  0.60796900  0.50426000  0.17703900  1
  C  C47  1  0.55938600  0.44704800  0.09497400  1
  C  C48  1  0.55000600  0.47393300  0.98561700  1
  C  C49  1  0.49876900  0.42248700  0.91033300  1
  C  C50  1  0.45864800  0.34320200  0.94336800  1
  C  C51  1  0.46945700  0.31539200  0.05191100  1
  C  C52  1  0.51935400  0.36727600  0.12772400  1
  C  C53  1  0.76311400  0.51549800  0.69580300  1
  C  C54  1  0.75042500  0.43742800  0.76762000  1
  C  C55  1  0.78885600  0.43870100  0.87476000  1
  C  C56  1  0.77451000  0.36825100  0.94523700  1
  C  C57  1  0.72152800  0.29595700  0.90976200  1
  C  C58  1  0.68363000  0.29373700  0.80307500  1
  C  C59  1  0.69802800  0.36392000  0.73198000  1
  C  C60  1  0.20124200  0.32224200  0.74198600  1
  C  C61  1  0.26495100  0.27842300  0.65864400  1
  C  C62  1  0.36125200  0.30731400  0.64233900  1
  C  C63  1  0.42151200  0.26705100  0.56480400  1
  C  C64  1  0.38617900  0.19755700  0.50269900  1
  C  C65  1  0.29040800  0.16834600  0.51814600  1
  C  C66  1  0.22985400  0.20839800  0.59561800  1
  C  C67  1  0.17630000  0.67502500  0.79930700  1
  C  C68  1  0.27690800  0.71259100  0.79111700  1
  C  C69  1  0.35658500  0.66884500  0.83852900  1
  C  C70  1  0.45098600  0.70360700  0.83108600  1
  C  C71  1  0.46665300  0.78167500  0.77552900  1
  C  C72  1  0.38785300  0.82504000  0.72699300  1
  C  C73  1  0.29330100  0.79072800  0.73450400  1
  N  N1  1  0.25270100  0.52044700  0.47325800  1
  N  N2  1  0.46161500  0.51271300  0.28875100  1
  N  N3  1  0.76983600  0.51582800  0.48757300  1
  O  O1  1  0.09931900  0.61283300  0.59367300  1
  O  O2  1  0.10138900  0.42265600  0.59013700  1
  O  O3  1  0.92938800  0.60826900  0.59812800  1
  O  O4  1  0.93085700  0.42355700  0.59638400  1
  O  O5  1  0.92121300  0.61212100  0.36700000  1
  O  O6  1  0.92293900  0.42269900  0.36510900  1
  O  O7  1  0.09296600  0.61188700  0.36203400  1
  O  O8  1  0.09487600  0.42821600  0.35894200  1
  O  O9  1  0.67263900  0.55536400  0.14750200  1
  O  O10  1  0.78931900  0.58418500  0.73928200  1
  O  O11  1  0.23293900  0.38437100  0.79567600  1
  O  O12  1  0.16581600  0.59753000  0.82300400  1
