# generated using pymatgen
data_Zn3H36C52(NO4)4
_symmetry_space_group_name_H-M   'P 1'
_cell_length_a   38.87390700
_cell_length_b   38.87365000
_cell_length_c   18.60384800
_cell_angle_alpha   90.00000000
_cell_angle_beta   90.00000000
_cell_angle_gamma   90.00000000
_symmetry_Int_Tables_number   1
_chemical_formula_structural   Zn3H36C52(NO4)4
_chemical_formula_sum   'Zn12 H144 C208 N16 O64'
_cell_volume   28113.58916490
_cell_formula_units_Z   4
loop_
 _symmetry_equiv_pos_site_id
 _symmetry_equiv_pos_as_xyz
  1  'x, y, z'
loop_
 _atom_site_type_symbol
 _atom_site_label
 _atom_site_symmetry_multiplicity
 _atom_site_fract_x
 _atom_site_fract_y
 _atom_site_fract_z
 _atom_site_occupancy
  Zn  Zn1  1  0.49988500  0.03898600  0.50006800  1
  Zn  Zn2  1  0.96107200  0.50009700  0.50003100  1
  Zn  Zn3  1  0.50002100  0.96106300  0.49996000  1
  Zn  Zn4  1  0.03899500  0.49996100  0.50001300  1
  Zn  Zn5  1  0.99998300  0.53898500  0.99992900  1
  Zn  Zn6  1  0.46099300  0.99995300  0.99998000  1
  Zn  Zn7  1  0.00009700  0.46106200  0.00011000  1
  Zn  Zn8  1  0.53891500  0.00010800  0.00004700  1
  Zn  Zn9  1  0.00002000  0.00017700  0.58147900  1
  Zn  Zn10  1  0.99995200  0.99980800  0.41854800  1
  Zn  Zn11  1  0.50002500  0.49984100  0.08142700  1
  Zn  Zn12  1  0.49998500  0.50015400  0.91849400  1
  H  H1  1  0.89055900  0.99726000  0.38646600  1
  H  H2  1  0.00374200  0.89036500  0.38744600  1
  H  H3  1  0.10978800  0.00330700  0.38415900  1
  H  H4  1  0.99729000  0.10957800  0.38320000  1
  H  H5  1  0.10941600  0.99649300  0.61350200  1
  H  H6  1  0.99642200  0.89039000  0.61672300  1
  H  H7  1  0.89019900  0.00291800  0.61592000  1
  H  H8  1  0.00253800  0.10961400  0.61269600  1
  H  H9  1  0.39059400  0.49646800  0.88640500  1
  H  H10  1  0.50337400  0.39035800  0.88340000  1
  H  H11  1  0.60981800  0.50264100  0.88412600  1
  H  H12  1  0.49747200  0.60958800  0.88712500  1
  H  H13  1  0.60940700  0.49724400  0.11360700  1
  H  H14  1  0.49628600  0.39040500  0.11271000  1
  H  H15  1  0.39018300  0.50363600  0.11570000  1
  H  H16  1  0.50284900  0.60961400  0.11660800  1
  H  H17  1  0.78127700  0.95607200  0.56815300  1
  H  H18  1  0.04439100  0.78160000  0.57014800  1
  H  H19  1  0.21845200  0.04393300  0.56725200  1
  H  H20  1  0.95535100  0.21836600  0.56538300  1
  H  H21  1  0.21845200  0.95543900  0.43191400  1
  H  H22  1  0.95614800  0.78145800  0.43410000  1
  H  H23  1  0.78168000  0.04452600  0.43268300  1
  H  H24  1  0.04400600  0.21863400  0.43048700  1
  H  H25  1  0.28132200  0.45607000  0.06810500  1
  H  H26  1  0.54381500  0.28147400  0.06600800  1
  H  H27  1  0.71850100  0.54406400  0.06724500  1
  H  H28  1  0.45606900  0.71862200  0.06931000  1
  H  H29  1  0.71852600  0.45546700  0.93218100  1
  H  H30  1  0.45545300  0.28159000  0.93029600  1
  H  H31  1  0.28175900  0.54437300  0.93222900  1
  H  H32  1  0.54465900  0.71838500  0.93422600  1
  H  H33  1  0.71876200  0.95660500  0.56958400  1
  H  H34  1  0.04422300  0.71903800  0.57160800  1
  H  H35  1  0.28100500  0.04347000  0.56927700  1
  H  H36  1  0.95560200  0.28087500  0.56738100  1
  H  H37  1  0.28100700  0.95562000  0.43068900  1
  H  H38  1  0.95661900  0.71890500  0.43234700  1
  H  H39  1  0.71916600  0.04428200  0.43045300  1
  H  H40  1  0.04347600  0.28115200  0.42879000  1
  H  H41  1  0.21876500  0.45654100  0.06926400  1
  H  H42  1  0.54335800  0.21892100  0.06778200  1
  H  H43  1  0.78101300  0.54352500  0.06956300  1
  H  H44  1  0.45658000  0.78114000  0.07101300  1
  H  H45  1  0.78104100  0.45570500  0.93082300  1
  H  H46  1  0.45563700  0.21903000  0.92884000  1
  H  H47  1  0.21920600  0.54420200  0.93015700  1
  H  H48  1  0.54439000  0.78089600  0.93224600  1
  H  H49  1  0.67169500  0.94561000  0.49424400  1
  H  H50  1  0.05546700  0.67210800  0.49498000  1
  H  H51  1  0.32816400  0.05434900  0.49311600  1
  H  H52  1  0.94449600  0.32804800  0.49249400  1
  H  H53  1  0.32791900  0.94454300  0.50736600  1
  H  H54  1  0.94564500  0.67177500  0.50856600  1
  H  H55  1  0.67197400  0.05552300  0.50530100  1
  H  H56  1  0.05439800  0.32825100  0.50405700  1
  H  H57  1  0.17179400  0.44559700  0.99261300  1
  H  H58  1  0.55428700  0.17179800  0.99153900  1
  H  H59  1  0.82829800  0.55445400  0.99478300  1
  H  H60  1  0.44561900  0.82824800  0.99577700  1
  H  H61  1  0.82802100  0.44455100  0.00625700  1
  H  H62  1  0.44447300  0.17208700  0.00544600  1
  H  H63  1  0.17211000  0.55541900  0.00629300  1
  H  H64  1  0.55552400  0.82805400  0.00719400  1
  H  H65  1  0.60951200  0.94571500  0.49534000  1
  H  H66  1  0.05571800  0.60989900  0.49554900  1
  H  H67  1  0.39036900  0.05429200  0.49433900  1
  H  H68  1  0.94431200  0.39022500  0.49423000  1
  H  H69  1  0.39012300  0.94433100  0.50644900  1
  H  H70  1  0.94574200  0.60957300  0.50702100  1
  H  H71  1  0.60979200  0.05574100  0.50391500  1
  H  H72  1  0.05432700  0.39043800  0.50328700  1
  H  H73  1  0.10958800  0.44570300  0.99358600  1
  H  H74  1  0.55421200  0.10959400  0.99301100  1
  H  H75  1  0.89048000  0.55435800  0.99616900  1
  H  H76  1  0.44568200  0.89043300  0.99664900  1
  H  H77  1  0.89020300  0.44434000  0.00515200  1
  H  H78  1  0.44424400  0.10987900  0.00479300  1
  H  H79  1  0.10990700  0.55567800  0.00513800  1
  H  H80  1  0.55570000  0.89023200  0.00557000  1
  H  H81  1  0.83479500  0.00837100  0.32778600  1
  H  H82  1  0.80618700  0.97652300  0.24330300  1
  H  H83  1  0.77776500  0.94376300  0.27797400  1
  H  H84  1  0.82222600  0.93348300  0.25909400  1
  H  H85  1  0.99309300  0.83442600  0.32894100  1
  H  H86  1  0.02557100  0.80578700  0.24555300  1
  H  H87  1  0.05825300  0.77758900  0.28133500  1
  H  H88  1  0.06843800  0.82206000  0.26232200  1
  H  H89  1  0.16576900  0.99233800  0.32610600  1
  H  H90  1  0.19467200  0.02450900  0.24259500  1
  H  H91  1  0.22295600  0.05714900  0.27824700  1
  H  H92  1  0.17855900  0.06748300  0.25884700  1
  H  H93  1  0.00831000  0.16548300  0.32498100  1
  H  H94  1  0.97650100  0.19409200  0.24043500  1
  H  H95  1  0.94356000  0.22232500  0.27503400  1
  H  H96  1  0.93349900  0.17785100  0.25577100  1
  H  H97  1  0.16525600  0.00728400  0.67232100  1
  H  H98  1  0.19374400  0.97499700  0.75625600  1
  H  H99  1  0.22199700  0.94222700  0.72102300  1
  H  H100  1  0.17749200  0.93209300  0.73980000  1
  H  H101  1  0.00727100  0.83450100  0.67529600  1
  H  H102  1  0.97491100  0.80575700  0.75872700  1
  H  H103  1  0.94233800  0.77742200  0.72298900  1
  H  H104  1  0.93198000  0.82185800  0.74195100  1
  H  H105  1  0.83419900  0.99201400  0.67380800  1
  H  H106  1  0.80543400  0.02397600  0.75787200  1
  H  H107  1  0.77725500  0.05684600  0.72278600  1
  H  H108  1  0.82169300  0.06695300  0.74230800  1
  H  H109  1  0.99133900  0.16547000  0.67087900  1
  H  H110  1  0.02303900  0.19423200  0.75537800  1
  H  H111  1  0.05584700  0.22260600  0.72073100  1
  H  H112  1  0.06611000  0.17818100  0.74001700  1
  H  H113  1  0.33481000  0.50731100  0.82744000  1
  H  H114  1  0.30622400  0.47498400  0.74371900  1
  H  H115  1  0.27783800  0.44238300  0.77916700  1
  H  H116  1  0.32230900  0.43204900  0.76052200  1
  H  H117  1  0.49245700  0.33445300  0.82495100  1
  H  H118  1  0.52472700  0.30567500  0.74141700  1
  H  H119  1  0.55733600  0.27735100  0.77705100  1
  H  H120  1  0.56767800  0.32177900  0.75797200  1
  H  H121  1  0.66578200  0.49150500  0.82632500  1
  H  H122  1  0.69468400  0.52326200  0.74212700  1
  H  H123  1  0.72299000  0.55605600  0.77707500  1
  H  H124  1  0.67859600  0.56632000  0.75747800  1
  H  H125  1  0.50863400  0.66543700  0.82885300  1
  H  H126  1  0.47687300  0.69415800  0.74439500  1
  H  H127  1  0.44406900  0.72252500  0.77908600  1
  H  H128  1  0.43381900  0.67808800  0.75987800  1
  H  H129  1  0.66520300  0.50826800  0.17226100  1
  H  H130  1  0.69367600  0.47642000  0.25694200  1
  H  H131  1  0.72197800  0.44350600  0.22247200  1
  H  H132  1  0.67747500  0.43342100  0.24137900  1
  H  H133  1  0.50700400  0.33448600  0.17123900  1
  H  H134  1  0.47462700  0.30586900  0.25482900  1
  H  H135  1  0.44190900  0.27765500  0.21925000  1
  H  H136  1  0.43173800  0.32213000  0.23825300  1
  H  H137  1  0.33414200  0.49291900  0.17375700  1
  H  H138  1  0.30535000  0.52533000  0.25702800  1
  H  H139  1  0.27720600  0.55803000  0.22113400  1
  H  H140  1  0.32164000  0.56821400  0.24051200  1
  H  H141  1  0.49186600  0.66552900  0.17479400  1
  H  H142  1  0.52371800  0.69417700  0.25921400  1
  H  H143  1  0.55662700  0.72241200  0.22448500  1
  H  H144  1  0.56671700  0.67794800  0.24377900  1
  C  C1  1  0.56732800  0.00083300  0.49966400  1
  C  C2  1  0.00084100  0.56740400  0.50082600  1
  C  C3  1  0.43257700  0.99921500  0.50036200  1
  C  C4  1  0.99922500  0.43265400  0.49921900  1
  C  C5  1  0.06741600  0.50080900  0.99950700  1
  C  C6  1  0.49913100  0.06740600  0.99929600  1
  C  C7  1  0.93266500  0.49923800  0.00052900  1
  C  C8  1  0.50077800  0.93265500  0.00072800  1
  C  C9  1  0.50019100  0.99933600  0.64053000  1
  C  C10  1  0.99940400  0.49970100  0.64053600  1
  C  C11  1  0.49971400  0.00071400  0.35949900  1
  C  C12  1  0.00066300  0.50035600  0.35950500  1
  C  C13  1  0.00023600  0.50074100  0.14053600  1
  C  C14  1  0.49928500  0.00031600  0.14053000  1
  C  C15  1  0.99984300  0.49930700  0.85950600  1
  C  C16  1  0.50062300  0.99974300  0.85949900  1
  C  C17  1  0.50035400  0.99946400  0.71763500  1
  C  C18  1  0.99955800  0.49954100  0.71764100  1
  C  C19  1  0.49955200  0.00058800  0.28239500  1
  C  C20  1  0.00051100  0.50051100  0.28240100  1
  C  C21  1  0.00038000  0.50062800  0.21764100  1
  C  C22  1  0.49942100  0.00046700  0.21763500  1
  C  C23  1  0.99969400  0.49942100  0.78240100  1
  C  C24  1  0.50048600  0.99958800  0.78239500  1
  C  C25  1  0.87699100  0.99873800  0.43705200  1
  C  C26  1  0.00196400  0.87688900  0.43809600  1
  C  C27  1  0.12318800  0.00159900  0.43490800  1
  C  C28  1  0.99863300  0.12307600  0.43388400  1
  C  C29  1  0.12298000  0.99815800  0.56293800  1
  C  C30  1  0.99824100  0.87690200  0.56609200  1
  C  C31  1  0.87678900  0.00148400  0.56514500  1
  C  C32  1  0.00115100  0.12309400  0.56199600  1
  C  C33  1  0.37702200  0.49824900  0.93694200  1
  C  C34  1  0.50160400  0.37688700  0.93405800  1
  C  C35  1  0.62321600  0.50123000  0.93491700  1
  C  C36  1  0.49889000  0.62308200  0.93780400  1
  C  C37  1  0.62298600  0.49862700  0.06302200  1
  C  C38  1  0.49800800  0.37691400  0.06206900  1
  C  C39  1  0.37679200  0.50188400  0.06494800  1
  C  C40  1  0.50147700  0.62309800  0.06591100  1
  C  C41  1  0.84152400  0.99807800  0.43663600  1
  C  C42  1  0.00270800  0.84142400  0.43798100  1
  C  C43  1  0.15865600  0.00221800  0.43501100  1
  C  C44  1  0.99784500  0.15854300  0.43370000  1
  C  C45  1  0.15844500  0.99741600  0.56332900  1
  C  C46  1  0.99762200  0.84143300  0.56625100  1
  C  C47  1  0.84132400  0.00227400  0.56505500  1
  C  C48  1  0.00181300  0.15856100  0.56215300  1
  C  C49  1  0.34155500  0.49760900  0.93651600  1
  C  C50  1  0.50221800  0.34141700  0.93394400  1
  C  C51  1  0.65868400  0.50191100  0.93502600  1
  C  C52  1  0.49822200  0.65854900  0.93761000  1
  C  C53  1  0.65845100  0.49786200  0.06346700  1
  C  C54  1  0.49726500  0.34144800  0.06223700  1
  C  C55  1  0.34132500  0.50261100  0.06480100  1
  C  C56  1  0.50226200  0.65856400  0.06605200  1
  C  C57  1  0.82342300  0.00021100  0.50071700  1
  C  C58  1  0.00019500  0.82343800  0.50212600  1
  C  C59  1  0.17654100  0.99978200  0.49929400  1
  C  C60  1  0.99978900  0.17655400  0.49792200  1
  C  C61  1  0.32345000  0.50013700  0.00051200  1
  C  C62  1  0.49970900  0.32344200  0.99810500  1
  C  C63  1  0.67656900  0.49985900  0.99938700  1
  C  C64  1  0.50027500  0.67655900  0.00181600  1
  C  C65  1  0.89480600  0.00008000  0.50122500  1
  C  C66  1  0.00007000  0.89481400  0.50208100  1
  C  C67  1  0.10516600  0.99990700  0.49879900  1
  C  C68  1  0.99991700  0.10516900  0.49794900  1
  C  C69  1  0.39482400  0.50005000  0.00108900  1
  C  C70  1  0.49983900  0.39481800  0.99805100  1
  C  C71  1  0.60518500  0.49994400  0.99883000  1
  C  C72  1  0.50015600  0.60517500  0.00187000  1
  C  C73  1  0.76765200  0.97568900  0.53841800  1
  C  C74  1  0.02488800  0.76784000  0.54035300  1
  C  C75  1  0.23217900  0.02431400  0.53772400  1
  C  C76  1  0.97494900  0.23213900  0.53589100  1
  C  C77  1  0.23217900  0.97499400  0.46162400  1
  C  C78  1  0.97570800  0.76776100  0.46385900  1
  C  C79  1  0.76787700  0.02496800  0.46223100  1
  C  C80  1  0.02434000  0.23228900  0.46002300  1
  C  C81  1  0.26769000  0.47564500  0.03825800  1
  C  C82  1  0.52423000  0.26777200  0.03633200  1
  C  C83  1  0.73222000  0.52441200  0.03780000  1
  C  C84  1  0.47571500  0.73228400  0.03973000  1
  C  C85  1  0.73223500  0.47505300  0.96183900  1
  C  C86  1  0.47498400  0.26783600  0.96002500  1
  C  C87  1  0.26793500  0.52485800  0.96185900  1
  C  C88  1  0.52506900  0.73215100  0.96375700  1
  C  C89  1  0.73220700  0.97574800  0.53824200  1
  C  C90  1  0.02502500  0.73239400  0.54023900  1
  C  C91  1  0.26762400  0.02428300  0.53792800  1
  C  C92  1  0.97484800  0.26758300  0.53603300  1
  C  C93  1  0.26762300  0.97486400  0.46187900  1
  C  C94  1  0.97574300  0.73231700  0.46380700  1
  C  C95  1  0.73243300  0.02507300  0.46195000  1
  C  C96  1  0.02428200  0.26773500  0.46004900  1
  C  C97  1  0.23224600  0.47567900  0.03796900  1
  C  C98  1  0.52420300  0.23232700  0.03639300  1
  C  C99  1  0.76766500  0.52434800  0.03813200  1
  C  C100  1  0.47576200  0.76773000  0.03970900  1
  C  C101  1  0.76767900  0.47494300  0.96206100  1
  C  C102  1  0.47485600  0.23239000  0.96014200  1
  C  C103  1  0.23249100  0.52499300  0.96162600  1
  C  C104  1  0.52516000  0.76759500  0.96362400  1
  C  C105  1  0.71430300  0.00045300  0.49998500  1
  C  C106  1  0.00043100  0.71435300  0.50196900  1
  C  C107  1  0.28562700  0.99953300  0.50001700  1
  C  C108  1  0.99952700  0.28567700  0.49809200  1
  C  C109  1  0.21436500  0.50038100  0.99967200  1
  C  C110  1  0.49948800  0.21435500  0.99832000  1
  C  C111  1  0.78568900  0.49960000  0.00023900  1
  C  C112  1  0.50049500  0.78568000  0.00162400  1
  C  C113  1  0.78566200  0.00028900  0.50044600  1
  C  C114  1  0.00026000  0.78568900  0.50213200  1
  C  C115  1  0.21429100  0.99969600  0.49955300  1
  C  C116  1  0.99968800  0.21431500  0.49792900  1
  C  C117  1  0.28570100  0.50021200  0.00019800  1
  C  C118  1  0.49964300  0.28569200  0.99814300  1
  C  C119  1  0.71432900  0.49977600  0.99967700  1
  C  C120  1  0.50035500  0.71431900  0.00177500  1
  C  C121  1  0.65838300  0.96995200  0.49756000  1
  C  C122  1  0.03122900  0.65863200  0.49876600  1
  C  C123  1  0.34150900  0.03004900  0.49719000  1
  C  C124  1  0.96877400  0.34146300  0.49606100  1
  C  C125  1  0.34137300  0.96878600  0.50338800  1
  C  C126  1  0.96995900  0.65844900  0.50460000  1
  C  C127  1  0.65854000  0.03125000  0.50189300  1
  C  C128  1  0.03006700  0.34157900  0.50066900  1
  C  C129  1  0.15846300  0.46991300  0.99646900  1
  C  C130  1  0.52998000  0.15846300  0.99556300  1
  C  C131  1  0.84160800  0.53011700  0.99829000  1
  C  C132  1  0.46994900  0.84157800  0.99915200  1
  C  C133  1  0.84145600  0.46882300  0.00285300  1
  C  C134  1  0.46871400  0.15862200  0.00157300  1
  C  C135  1  0.15864100  0.53118200  0.00235200  1
  C  C136  1  0.53124400  0.84146800  0.00368200  1
  C  C137  1  0.62292500  0.97003200  0.49753100  1
  C  C138  1  0.03134100  0.62317300  0.49843100  1
  C  C139  1  0.37696700  0.02998500  0.49723100  1
  C  C140  1  0.96868900  0.37692000  0.49639900  1
  C  C141  1  0.37683100  0.96869700  0.50352500  1
  C  C142  1  0.97004600  0.62299100  0.50437800  1
  C  C143  1  0.62308100  0.03135500  0.50175300  1
  C  C144  1  0.03000700  0.37703900  0.50088200  1
  C  C145  1  0.12300500  0.47000400  0.99636300  1
  C  C146  1  0.52990600  0.12300400  0.99574400  1
  C  C147  1  0.87706700  0.53004200  0.99843300  1
  C  C148  1  0.47000500  0.87703700  0.99899900  1
  C  C149  1  0.87691300  0.46872300  0.00287900  1
  C  C150  1  0.46861400  0.12316300  0.00185800  1
  C  C151  1  0.12318300  0.53129900  0.00235000  1
  C  C152  1  0.53132400  0.87692500  0.00340900  1
  C  C153  1  0.60504800  0.00074000  0.49961900  1
  C  C154  1  0.00074300  0.60512600  0.50124000  1
  C  C155  1  0.39485500  0.99930200  0.50040200  1
  C  C156  1  0.99931000  0.39493400  0.49880500  1
  C  C157  1  0.10513800  0.50070400  0.99935900  1
  C  C158  1  0.49921700  0.10512700  0.99893800  1
  C  C159  1  0.89494500  0.49933800  0.00066300  1
  C  C160  1  0.50070000  0.89493600  0.00107500  1
  C  C161  1  0.67647900  0.00055400  0.49979100  1
  C  C162  1  0.00054200  0.67654500  0.50180100  1
  C  C163  1  0.32343600  0.99945600  0.50022000  1
  C  C164  1  0.99945600  0.32350200  0.49825100  1
  C  C165  1  0.17655700  0.50049400  0.99946900  1
  C  C166  1  0.49939200  0.17654700  0.99846900  1
  C  C167  1  0.82351300  0.49951300  0.00049100  1
  C  C168  1  0.50056300  0.82350400  0.00150200  1
  C  C169  1  0.00001600  0.93254000  0.50203800  1
  C  C170  1  0.06744100  0.99995600  0.49854500  1
  C  C171  1  0.99996000  0.06744600  0.49798900  1
  C  C172  1  0.93253000  0.00002800  0.50148200  1
  C  C173  1  0.49991100  0.43254400  0.99804000  1
  C  C174  1  0.56746100  0.49996300  0.99854600  1
  C  C175  1  0.50009600  0.56745100  0.00188200  1
  C  C176  1  0.43255000  0.50003100  0.00137600  1
  C  C177  1  0.81389700  0.96297200  0.35418500  1
  C  C178  1  0.80449400  0.95371500  0.27890900  1
  C  C179  1  0.03842100  0.81378700  0.35670900  1
  C  C180  1  0.04817200  0.80427300  0.28176700  1
  C  C181  1  0.18656200  0.03763800  0.35357400  1
  C  C182  1  0.19622800  0.04718300  0.27860100  1
  C  C183  1  0.96277700  0.18615400  0.35115400  1
  C  C184  1  0.95362100  0.19563600  0.27586800  1
  C  C185  1  0.18593500  0.96188800  0.64517200  1
  C  C186  1  0.19531600  0.95231200  0.72028500  1
  C  C187  1  0.96202200  0.81367700  0.64756500  1
  C  C188  1  0.95231500  0.80414600  0.72252200  1
  C  C189  1  0.81356500  0.03749300  0.64710300  1
  C  C190  1  0.80394800  0.04678900  0.72224000  1
  C  C191  1  0.03677700  0.18633700  0.64465300  1
  C  C192  1  0.04590500  0.19587200  0.71992500  1
  C  C193  1  0.31395300  0.46204100  0.85491200  1
  C  C194  1  0.30455700  0.45236800  0.77986100  1
  C  C195  1  0.53773300  0.31363400  0.85250700  1
  C  C196  1  0.54736200  0.30407500  0.77752200  1
  C  C197  1  0.68659400  0.53693100  0.85282700  1
  C  C198  1  0.69625700  0.54610700  0.77765200  1
  C  C199  1  0.46320100  0.68628700  0.85516300  1
  C  C200  1  0.45402600  0.69579600  0.77990100  1
  C  C201  1  0.68593100  0.46275600  0.14613000  1
  C  C202  1  0.69528700  0.45356000  0.22146400  1
  C  C203  1  0.46164700  0.31383200  0.14372600  1
  C  C204  1  0.45198500  0.30434100  0.21873100  1
  C  C205  1  0.31353800  0.53826000  0.14597200  1
  C  C206  1  0.30389300  0.54795600  0.22087200  1
  C  C207  1  0.53737400  0.68621100  0.14846700  1
  C  C208  1  0.54657500  0.69571800  0.22371500  1
  N  N1  1  0.82411800  0.99526200  0.37032700  1
  N  N2  1  0.00599000  0.82389000  0.37191600  1
  N  N3  1  0.17629700  0.00528400  0.36902400  1
  N  N4  1  0.99508000  0.17604100  0.36748800  1
  N  N5  1  0.17586500  0.99428500  0.62955800  1
  N  N6  1  0.99441300  0.82390300  0.63233800  1
  N  N7  1  0.82371200  0.00516200  0.63111400  1
  N  N8  1  0.00451600  0.17607900  0.62835500  1
  N  N9  1  0.32414200  0.49442700  0.87028900  1
  N  N10  1  0.50535900  0.32386800  0.86786600  1
  N  N11  1  0.67631400  0.50465800  0.86896300  1
  N  N12  1  0.49547500  0.67605000  0.87139600  1
  N  N13  1  0.67583800  0.49506500  0.12980100  1
  N  N14  1  0.49405900  0.32393500  0.12834400  1
  N  N15  1  0.32367600  0.50584200  0.13074300  1
  N  N16  1  0.50506500  0.67608100  0.13223800  1
  O  O1  1  0.55129400  0.03052600  0.49815800  1
  O  O2  1  0.97121400  0.55121300  0.50228600  1
  O  O3  1  0.44861300  0.96952500  0.50197500  1
  O  O4  1  0.02885600  0.44884300  0.49785900  1
  O  O5  1  0.44876200  0.02884400  0.49866800  1
  O  O6  1  0.03053100  0.55137500  0.49890900  1
  O  O7  1  0.55114400  0.97120300  0.50125700  1
  O  O8  1  0.96953400  0.44868300  0.50103000  1
  O  O9  1  0.05139300  0.53050400  0.00127600  1
  O  O10  1  0.46944400  0.05136800  0.00116400  1
  O  O11  1  0.94868700  0.46954100  0.99886700  1
  O  O12  1  0.53046600  0.94869200  0.99896800  1
  O  O13  1  0.94886100  0.52886500  0.00189700  1
  O  O14  1  0.52876200  0.05122200  0.99784100  1
  O  O15  1  0.05121800  0.47118500  0.99804000  1
  O  O16  1  0.47114300  0.94883700  0.00208400  1
  O  O17  1  0.50088000  0.02899500  0.60693800  1
  O  O18  1  0.96964500  0.49896200  0.60740400  1
  O  O19  1  0.49934900  0.96958700  0.60736700  1
  O  O20  1  0.02905100  0.50056600  0.60691400  1
  O  O21  1  0.50059400  0.03046100  0.39266200  1
  O  O22  1  0.03042300  0.50105900  0.39263700  1
  O  O23  1  0.49899000  0.97105500  0.39309100  1
  O  O24  1  0.97101500  0.49952700  0.39312700  1
  O  O25  1  0.00097600  0.53048200  0.10733200  1
  O  O26  1  0.46953300  0.00102100  0.10736800  1
  O  O27  1  0.99942900  0.47107400  0.10698300  1
  O  O28  1  0.52894100  0.99950500  0.10693600  1
  O  O29  1  0.00068600  0.52897300  0.89305800  1
  O  O30  1  0.53037500  0.99900200  0.89266100  1
  O  O31  1  0.99906800  0.46956700  0.89270900  1
  O  O32  1  0.47096800  0.00059100  0.89309200  1
  O  O33  1  0.99917700  0.94867800  0.56393600  1
  O  O34  1  0.05122600  0.99928200  0.56039900  1
  O  O35  1  0.99927800  0.05134500  0.55997300  1
  O  O36  1  0.94855300  0.99941400  0.56352000  1
  O  O37  1  0.00080200  0.94864200  0.44006100  1
  O  O38  1  0.94874400  0.00059400  0.43962200  1
  O  O39  1  0.00068400  0.05130900  0.43608400  1
  O  O40  1  0.05141600  0.00068200  0.43651200  1
  O  O41  1  0.49912900  0.44866800  0.05999200  1
  O  O42  1  0.55123800  0.50056900  0.06039300  1
  O  O43  1  0.49934800  0.55133600  0.06381000  1
  O  O44  1  0.44856400  0.50076100  0.06342000  1
  O  O45  1  0.50077200  0.44866100  0.93611900  1
  O  O46  1  0.44877400  0.49931700  0.93953500  1
  O  O47  1  0.50077200  0.55132900  0.93992200  1
  O  O48  1  0.55144700  0.49934500  0.93649600  1
  O  O49  1  0.81254100  0.94105100  0.40097000  1
  O  O50  1  0.06006700  0.81263100  0.40407400  1
  O  O51  1  0.18774000  0.05938200  0.40073900  1
  O  O52  1  0.94076500  0.18734700  0.39777100  1
  O  O53  1  0.18717000  0.94013300  0.59803600  1
  O  O54  1  0.94037900  0.81242300  0.60020800  1
  O  O55  1  0.81245000  0.05941700  0.60029700  1
  O  O56  1  0.05877400  0.18762000  0.59801700  1
  O  O57  1  0.31262400  0.44037300  0.90221100  1
  O  O58  1  0.55942500  0.31239600  0.89976900  1
  O  O59  1  0.68779000  0.55890200  0.89953000  1
  O  O60  1  0.44122800  0.68757200  0.90185000  1
  O  O61  1  0.68721100  0.44077000  0.09946800  1
  O  O62  1  0.43994800  0.31265800  0.09647100  1
  O  O63  1  0.31245800  0.55993800  0.09866400  1
  O  O64  1  0.55935600  0.68739800  0.10178600  1
