# generated using pymatgen
data_CuH26C43(NO5)2
_symmetry_space_group_name_H-M   'P 1'
_cell_length_a   14.31036400
_cell_length_b   15.18008800
_cell_length_c   27.50674600
_cell_angle_alpha   76.57200300
_cell_angle_beta   103.65158700
_cell_angle_gamma   114.52608100
_symmetry_Int_Tables_number   1
_chemical_formula_structural   CuH26C43(NO5)2
_chemical_formula_sum   'Cu2 H52 C86 N4 O20'
_cell_volume   5221.37569355
_cell_formula_units_Z   2
loop_
 _symmetry_equiv_pos_site_id
 _symmetry_equiv_pos_as_xyz
  1  'x, y, z'
loop_
 _atom_site_type_symbol
 _atom_site_label
 _atom_site_symmetry_multiplicity
 _atom_site_fract_x
 _atom_site_fract_y
 _atom_site_fract_z
 _atom_site_occupancy
  Cu  Cu1  1  0.08999700  0.48554500  0.52223200  1
  Cu  Cu2  1  0.92517500  0.53690700  0.49003400  1
  H  H1  1  0.84376700  0.52451200  0.63497900  1
  H  H2  1  0.17989000  0.51753200  0.37618400  1
  H  H3  1  0.84127000  0.52816300  0.72295600  1
  H  H4  1  0.18265300  0.51177700  0.28851200  1
  H  H5  1  0.78423500  0.31013200  0.88547400  1
  H  H6  1  0.20392700  0.72733800  0.12334300  1
  H  H7  1  0.86425100  0.49566100  0.33534900  1
  H  H8  1  0.14132600  0.50118700  0.67930300  1
  H  H9  1  0.86813400  0.49007200  0.24828100  1
  H  H10  1  0.13684600  0.50348100  0.76649600  1
  H  H11  1  0.83922600  0.27812200  0.13613500  1
  H  H12  1  0.20465200  0.72202100  0.88114900  1
  H  H13  1  0.82837800  0.27929100  0.04966200  1
  H  H14  1  0.21669600  0.72076200  0.96763400  1
  H  H15  1  0.79017100  0.30338700  0.97209700  1
  H  H16  1  0.19720200  0.73519600  0.03664100  1
  H  H17  1  0.66786800  0.88487300  0.50537700  1
  H  H18  1  0.34341200  0.14255600  0.48865900  1
  H  H19  1  0.33341200  0.77111800  0.50827200  1
  H  H20  1  0.68328000  0.25039400  0.50888800  1
  H  H21  1  0.07015200  0.84344200  0.48914400  1
  H  H22  1  0.94287600  0.18215600  0.51222600  1
  H  H23  1  0.83146700  0.01177800  0.50926100  1
  H  H24  1  0.18003300  0.01508400  0.48624700  1
  H  H25  1  0.48671700  0.82337100  0.50060500  1
  H  H26  1  0.52474700  0.20389200  0.49447100  1
  H  H27  1  0.52447900  0.69071200  0.39700300  1
  H  H28  1  0.48105600  0.31733700  0.60845500  1
  H  H29  1  0.28497100  0.55635800  0.49159600  1
  H  H30  1  0.73856500  0.47830900  0.52612800  1
  H  H31  1  0.39201300  0.61386100  0.44387500  1
  H  H32  1  0.61528100  0.39678100  0.56292400  1
  H  H33  1  0.93977800  0.16040300  0.62461600  1
  H  H34  1  0.04284700  0.15402600  0.67668200  1
  H  H35  1  0.96284300  0.03053600  0.59088600  1
  H  H36  1  0.92307300  0.98968300  0.65278900  1
  H  H37  1  0.05704600  0.02216100  0.64667900  1
  H  H38  1  0.97159400  0.70873100  0.31292400  1
  H  H39  1  0.92818900  0.80827100  0.30560300  1
  H  H40  1  0.81480500  0.62988600  0.25004900  1
  H  H41  1  0.90196800  0.74877300  0.22388300  1
  H  H42  1  0.78215300  0.73609500  0.24128900  1
  H  H43  1  0.59614100  0.72534100  0.24865300  1
  H  H44  1  0.65637500  0.83234600  0.27948000  1
  H  H45  1  0.42833500  0.69009700  0.27522900  1
  H  H46  1  0.47673400  0.81037700  0.23795100  1
  H  H47  1  0.48907600  0.79823800  0.30598900  1
  H  H48  1  0.24230500  0.03343900  0.64133600  1
  H  H49  1  0.30351500  0.10418000  0.69244900  1
  H  H50  1  0.41492800  0.07815900  0.61744300  1
  H  H51  1  0.40875700  0.01740500  0.68227800  1
  H  H52  1  0.47637200  0.14890400  0.66909600  1
  C  C1  1  0.88534000  0.32968700  0.51130100  1
  C  C2  1  0.12972900  0.69285600  0.50079500  1
  C  C3  1  0.99603700  0.51038400  0.59811100  1
  C  C4  1  0.01925800  0.51199400  0.41419600  1
  C  C5  1  0.91642800  0.44469900  0.82741500  1
  C  C6  1  0.09065000  0.57936600  0.18433900  1
  C  C7  1  0.06342900  0.59059300  0.82579600  1
  C  C8  1  0.96081100  0.42195000  0.18860200  1
  C  C9  1  0.07254200  0.50856100  0.73763200  1
  C  C10  1  0.93660400  0.49570200  0.27637100  1
  C  C11  1  0.07435900  0.50645500  0.68813800  1
  C  C12  1  0.93495500  0.49973400  0.32562600  1
  C  C13  1  0.90868200  0.51997900  0.66353000  1
  C  C14  1  0.11084800  0.51121100  0.34840500  1
  C  C15  1  0.90687100  0.52164800  0.71329800  1
  C  C16  1  0.11273100  0.50836400  0.29883600  1
  C  C17  1  0.98903600  0.51621200  0.75048500  1
  C  C18  1  0.02554100  0.50073800  0.26263700  1
  C  C19  1  0.99664900  0.51501300  0.90357600  1
  C  C20  1  0.01937600  0.50386200  0.10947500  1
  C  C21  1  0.91981600  0.44229300  0.87841000  1
  C  C22  1  0.08774000  0.58209200  0.13337200  1
  C  C23  1  0.84686700  0.36713100  0.90436200  1
  C  C24  1  0.15097500  0.66393800  0.10593500  1
  C  C25  1  0.06835300  0.58997600  0.87669900  1
  C  C26  1  0.95599900  0.42309400  0.13763700  1
  C  C27  1  0.99245900  0.51205300  0.65073600  1
  C  C28  1  0.02219600  0.50809700  0.36187000  1
  C  C29  1  0.94143300  0.42836500  0.03427700  1
  C  C30  1  0.07841700  0.58827100  0.97931500  1
  C  C31  1  0.08065900  0.58778900  0.03058000  1
  C  C32  1  0.93170100  0.43384900  0.98188600  1
  C  C33  1  0.01391800  0.50662800  0.05796600  1
  C  C34  1  0.00217800  0.51245200  0.95506900  1
  C  C35  1  0.88102600  0.34578600  0.06394600  1
  C  C36  1  0.15133200  0.66249700  0.95151500  1
  C  C37  1  0.88819500  0.34354000  0.11481100  1
  C  C38  1  0.14603400  0.66317400  0.90098700  1
  C  C39  1  0.85229800  0.36291500  0.95528400  1
  C  C40  1  0.14758500  0.66706200  0.05531500  1
  C  C41  1  0.81757300  0.22618200  0.51061200  1
  C  C42  1  0.19710100  0.79711900  0.49830700  1
  C  C43  1  0.79720000  0.06334400  0.50902200  1
  C  C44  1  0.21529700  0.96252000  0.49048300  1
  C  C45  1  0.86026300  0.15975000  0.51097800  1
  C  C46  1  0.15310300  0.86514300  0.49202000  1
  C  C47  1  0.71121200  0.19547800  0.50781300  1
  C  C48  1  0.30374200  0.82767800  0.50232700  1
  C  C49  1  0.64569500  0.09747400  0.50521500  1
  C  C50  1  0.36793800  0.92716400  0.49933000  1
  C  C51  1  0.69131400  0.03234600  0.50650300  1
  C  C52  1  0.32146300  0.99325200  0.49427600  1
  C  C53  1  0.53670100  0.06262500  0.50146200  1
  C  C54  1  0.47658300  0.96247000  0.50152500  1
  C  C55  1  0.52636500  0.90019900  0.50267500  1
  C  C56  1  0.48608600  0.12586300  0.49666900  1
  C  C57  1  0.63181000  0.93518000  0.50486200  1
  C  C58  1  0.38026900  0.09129400  0.49276100  1
  C  C59  1  0.69873500  0.65685700  0.40943600  1
  C  C60  1  0.30118900  0.34264300  0.59202800  1
  C  C61  1  0.78838400  0.63707200  0.42250000  1
  C  C62  1  0.21491600  0.36740900  0.58115500  1
  C  C63  1  0.72437000  0.52820800  0.49363100  1
  C  C64  1  0.29232800  0.49633200  0.51939200  1
  C  C65  1  0.63142300  0.54438000  0.48150500  1
  C  C66  1  0.37927800  0.47124700  0.52739800  1
  C  C67  1  0.62120500  0.61210900  0.43952200  1
  C  C68  1  0.38400100  0.39532800  0.56561200  1
  C  C69  1  0.54930300  0.49557500  0.51038300  1
  C  C70  1  0.46123400  0.51980100  0.49840800  1
  C  C71  1  0.45650000  0.59112600  0.45696500  1
  C  C72  1  0.55252700  0.42203000  0.55084000  1
  C  C73  1  0.53450500  0.63586700  0.42825800  1
  C  C74  1  0.47170000  0.37311200  0.57761300  1
  C  C75  1  0.12641700  0.30414200  0.60786300  1
  C  C76  1  0.01160900  0.14461800  0.63646700  1
  C  C77  1  0.98685600  0.03976700  0.63131500  1
  C  C78  1  0.86586500  0.68361100  0.38791200  1
  C  C79  1  0.90278500  0.72912400  0.30409200  1
  C  C80  1  0.84676100  0.70961400  0.25130700  1
  C  C81  1  0.68818700  0.72772000  0.36397700  1
  C  C82  1  0.59514000  0.75766300  0.28067700  1
  C  C83  1  0.49030900  0.76454500  0.27455100  1
  C  C84  1  0.30333200  0.25958800  0.63184600  1
  C  C85  1  0.30919600  0.09852200  0.65392300  1
  C  C86  1  0.40898700  0.08482200  0.65580800  1
  N  N1  1  0.98834400  0.51808300  0.80202200  1
  N  N2  1  0.02715600  0.49993300  0.21107200  1
  N  N3  1  0.80218900  0.57599700  0.46578100  1
  N  N4  1  0.21309400  0.44658700  0.54627100  1
  O  O1  1  0.98586000  0.35218000  0.52277200  1
  O  O2  1  0.02926100  0.67010500  0.49022400  1
  O  O3  1  0.84385100  0.39594700  0.49800900  1
  O  O4  1  0.17122800  0.62657400  0.51367200  1
  O  O5  1  0.07175200  0.49230300  0.58920700  1
  O  O6  1  0.94434500  0.53154900  0.42295600  1
  O  O7  1  0.92498300  0.52814300  0.56201800  1
  O  O8  1  0.08961100  0.49328100  0.45030500  1
  O  O9  1  0.84339700  0.37180600  0.80341400  1
  O  O10  1  0.15456500  0.65748900  0.20702500  1
  O  O11  1  0.89945300  0.34252600  0.21606200  1
  O  O12  1  0.13331000  0.66431000  0.79964500  1
  O  O13  1  0.10024100  0.33667900  0.63654700  1
  O  O14  1  0.08445400  0.20685100  0.60655000  1
  O  O15  1  0.95345400  0.73880400  0.40251700  1
  O  O16  1  0.83634500  0.67487800  0.33833900  1
  O  O17  1  0.75051400  0.81242400  0.36140900  1
  O  O18  1  0.61002100  0.69785700  0.32525900  1
  O  O19  1  0.29898900  0.26227900  0.67522800  1
  O  O20  1  0.30825300  0.18033100  0.61970200  1
