# generated using pymatgen
data_Zn3H21C40BrO12
_symmetry_space_group_name_H-M   'P 1'
_cell_length_a   37.11282100
_cell_length_b   30.35043800
_cell_length_c   21.80871800
_cell_angle_alpha   90.00000000
_cell_angle_beta   54.88615800
_cell_angle_gamma   90.00000000
_symmetry_Int_Tables_number   1
_chemical_formula_structural   Zn3H21C40BrO12
_chemical_formula_sum   'Zn12 H84 C160 Br4 O48'
_cell_volume   20094.54112330
_cell_formula_units_Z   4
loop_
 _symmetry_equiv_pos_site_id
 _symmetry_equiv_pos_as_xyz
  1  'x, y, z'
loop_
 _atom_site_type_symbol
 _atom_site_label
 _atom_site_symmetry_multiplicity
 _atom_site_fract_x
 _atom_site_fract_y
 _atom_site_fract_z
 _atom_site_occupancy
  Zn  Zn1  1  0.99966700  0.55015800  0.49682300  1
  Zn  Zn2  1  0.49966700  0.05015800  0.49682300  1
  Zn  Zn3  1  0.99977200  0.45048700  0.50265000  1
  Zn  Zn4  1  0.49977200  0.95048700  0.50265000  1
  Zn  Zn5  1  0.95048900  0.50015600  0.04539300  1
  Zn  Zn6  1  0.05016900  0.49991600  0.95289000  1
  Zn  Zn7  1  0.45048900  0.00015600  0.04539300  1
  Zn  Zn8  1  0.55016900  0.99991600  0.95289000  1
  Zn  Zn9  1  0.49929800  0.50035000  0.07046200  1
  Zn  Zn10  1  0.50001600  0.49879200  0.93105400  1
  Zn  Zn11  1  0.99929800  0.00035000  0.07046200  1
  Zn  Zn12  1  0.00001600  0.99879200  0.93105400  1
  H  H1  1  0.06608900  0.63991000  0.90825200  1
  H  H2  1  0.93359200  0.64014600  0.10457800  1
  H  H3  1  0.56608900  0.13991000  0.90825200  1
  H  H4  1  0.43359200  0.14014600  0.10457800  1
  H  H5  1  0.95515800  0.45845300  0.73795300  1
  H  H6  1  0.04272100  0.54415400  0.26316300  1
  H  H7  1  0.45515800  0.95845300  0.73795200  1
  H  H8  1  0.54272100  0.04415400  0.26316300  1
  H  H9  1  0.07450000  0.55248500  0.56475500  1
  H  H10  1  0.92598800  0.44623100  0.43263800  1
  H  H11  1  0.57450000  0.05248500  0.56475500  1
  H  H12  1  0.42598800  0.94623100  0.43263800  1
  H  H13  1  0.12128400  0.60267600  0.57411300  1
  H  H14  1  0.88172500  0.39405400  0.42041300  1
  H  H15  1  0.62128400  0.10267600  0.57411300  1
  H  H16  1  0.38172500  0.89405400  0.42041300  1
  H  H17  1  0.11296400  0.61234700  0.69330400  1
  H  H18  1  0.89153300  0.38417400  0.30004700  1
  H  H19  1  0.61296400  0.11234700  0.69330400  1
  H  H20  1  0.39153300  0.88417400  0.30004700  1
  H  H21  1  0.05903300  0.57057400  0.80214600  1
  H  H22  1  0.94439600  0.42777800  0.19288400  1
  H  H23  1  0.55903300  0.07057400  0.80214600  1
  H  H24  1  0.44439600  0.92777800  0.19288400  1
  H  H25  1  0.95387400  0.46031800  0.85050400  1
  H  H26  1  0.04444900  0.54230600  0.15012300  1
  H  H27  1  0.45387400  0.96031800  0.85050400  1
  H  H28  1  0.54444900  0.04230600  0.15012300  1
  H  H29  1  0.21938600  0.43378700  0.24407000  1
  H  H30  1  0.77982500  0.43576800  0.76634700  1
  H  H31  1  0.71938600  0.93378700  0.24407000  1
  H  H32  1  0.27982500  0.93576800  0.76634700  1
  H  H33  1  0.13914700  0.43388500  0.32477000  1
  H  H34  1  0.86002100  0.43526500  0.68515600  1
  H  H35  1  0.63914700  0.93388500  0.32477000  1
  H  H36  1  0.36002100  0.93526500  0.68515600  1
  H  H37  1  0.14039400  0.56815700  0.38283300  1
  H  H38  1  0.85916700  0.56435300  0.60740700  1
  H  H39  1  0.64039400  0.06815700  0.38283300  1
  H  H40  1  0.35916700  0.06435300  0.60740700  1
  H  H41  1  0.22052600  0.56755600  0.30337300  1
  H  H42  1  0.77909500  0.56427000  0.68751300  1
  H  H43  1  0.72052600  0.06755600  0.30337300  1
  H  H44  1  0.27909500  0.06427000  0.68751300  1
  H  H45  1  0.27903600  0.52798200  0.30590900  1
  H  H46  1  0.72024500  0.52116200  0.69183100  1
  H  H47  1  0.77903600  0.02798200  0.30590900  1
  H  H48  1  0.22024500  0.02116200  0.69183100  1
  H  H49  1  0.35912800  0.52716900  0.22852900  1
  H  H50  1  0.64018500  0.52068500  0.76958300  1
  H  H51  1  0.85912800  0.02716900  0.22852900  1
  H  H52  1  0.14018500  0.02068500  0.76958300  1
  H  H53  1  0.35959800  0.47239600  0.04741500  1
  H  H54  1  0.63983200  0.47880400  0.95715100  1
  H  H55  1  0.85959800  0.97239600  0.04741500  1
  H  H56  1  0.13983200  0.97880400  0.95715100  1
  H  H57  1  0.27935200  0.47243100  0.12580000  1
  H  H58  1  0.72007300  0.47851700  0.87851300  1
  H  H59  1  0.77935200  0.97243100  0.12580000  1
  H  H60  1  0.22007300  0.97851700  0.87851300  1
  H  H61  1  0.47409000  0.36061000  0.11934400  1
  H  H62  1  0.52519200  0.35821000  0.88657500  1
  H  H63  1  0.97409000  0.86061000  0.11934400  1
  H  H64  1  0.02519200  0.85821000  0.88657500  1
  H  H65  1  0.06597100  0.72002300  0.90776000  1
  H  H66  1  0.93395600  0.72035200  0.10444100  1
  H  H67  1  0.56597100  0.22002300  0.90776000  1
  H  H68  1  0.43395600  0.22035200  0.10444100  1
  H  H69  1  0.47393900  0.28044900  0.12123000  1
  H  H70  1  0.52564400  0.27812400  0.88861000  1
  H  H71  1  0.97393900  0.78045000  0.12123000  1
  H  H72  1  0.02564400  0.77812400  0.88861000  1
  H  H73  1  0.03980900  0.28041500  0.03753100  1
  H  H74  1  0.96063200  0.27970100  0.95287200  1
  H  H75  1  0.53980900  0.78041500  0.03753100  1
  H  H76  1  0.46063200  0.77970100  0.95287200  1
  H  H77  1  0.50688700  0.71860700  0.89218600  1
  H  H78  1  0.49266500  0.72088100  0.10121900  1
  H  H79  1  0.00688700  0.21860700  0.89218600  1
  H  H80  1  0.99266500  0.22088100  0.10121900  1
  H  H81  1  0.50597700  0.63891200  0.89474900  1
  H  H82  1  0.49324400  0.64129300  0.10263500  1
  H  H83  1  0.00597700  0.13891200  0.89474900  1
  H  H84  1  0.99324400  0.14129300  0.10263500  1
  C  C1  1  0.08585900  0.50117400  0.40866900  1
  C  C2  1  0.91357800  0.49949500  0.59085700  1
  C  C3  1  0.58585900  0.00117400  0.40866900  1
  C  C4  1  0.41357800  0.99949500  0.59085700  1
  C  C5  1  0.00548400  0.50297100  0.61371300  1
  C  C6  1  0.99393700  0.49767200  0.38574600  1
  C  C7  1  0.50548400  0.00297100  0.61371300  1
  C  C8  1  0.49393700  0.99767200  0.38574600  1
  C  C9  1  0.03694700  0.65723100  0.95188900  1
  C  C10  1  0.96289100  0.65738500  0.06119900  1
  C  C11  1  0.53694700  0.15723100  0.95188900  1
  C  C12  1  0.46289100  0.15738500  0.06119900  1
  C  C13  1  0.49965800  0.63420400  0.99878700  1
  C  C14  1  0.99965800  0.13420400  0.99878700  1
  C  C15  1  0.06924400  0.55577600  0.61856600  1
  C  C16  1  0.93202100  0.44278400  0.37827600  1
  C  C17  1  0.56924400  0.05577600  0.61856600  1
  C  C18  1  0.43202100  0.94278400  0.37827600  1
  C  C19  1  0.09662600  0.58407500  0.62290600  1
  C  C20  1  0.90599500  0.41337600  0.37233000  1
  C  C21  1  0.59662600  0.08407500  0.62290600  1
  C  C22  1  0.40599500  0.91337600  0.37233000  1
  C  C23  1  0.09219000  0.58924400  0.68942300  1
  C  C24  1  0.91124800  0.40808200  0.30516300  1
  C  C25  1  0.59219000  0.08924400  0.68942300  1
  C  C26  1  0.41124800  0.90808200  0.30516300  1
  C  C27  1  0.06174100  0.56462500  0.75092000  1
  C  C28  1  0.94106400  0.43369100  0.24466500  1
  C  C29  1  0.56174100  0.06462500  0.75092000  1
  C  C30  1  0.44106400  0.93369100  0.24466500  1
  C  C31  1  0.03508500  0.53445000  0.74660100  1
  C  C32  1  0.96633000  0.46488500  0.25062900  1
  C  C33  1  0.53508500  0.03445000  0.74660100  1
  C  C34  1  0.46633000  0.96488500  0.25062900  1
  C  C35  1  0.03706200  0.53198800  0.68107600  1
  C  C36  1  0.96373200  0.46750700  0.31669400  1
  C  C37  1  0.53706200  0.03198800  0.68107600  1
  C  C38  1  0.46373200  0.96750700  0.31669400  1
  C  C39  1  0.00765700  0.50485900  0.67850900  1
  C  C40  1  0.99196800  0.49575200  0.32067100  1
  C  C41  1  0.50765700  0.00485900  0.67850900  1
  C  C42  1  0.49196800  0.99575200  0.32067100  1
  C  C43  1  0.97815300  0.47939100  0.73958200  1
  C  C44  1  0.02065500  0.52228700  0.26054400  1
  C  C45  1  0.47815300  0.97939100  0.73958200  1
  C  C46  1  0.52065500  0.02228700  0.26054400  1
  C  C47  1  0.97698000  0.48095000  0.80352200  1
  C  C48  1  0.02220700  0.52068700  0.19622900  1
  C  C49  1  0.47698000  0.98095000  0.80352200  1
  C  C50  1  0.52220700  0.02068700  0.19622900  1
  C  C51  1  0.00559100  0.50766800  0.80734100  1
  C  C52  1  0.99497200  0.49265100  0.19096100  1
  C  C53  1  0.50559100  0.00766800  0.80734100  1
  C  C54  1  0.49497200  0.99265100  0.19096100  1
  C  C55  1  0.20216400  0.46349400  0.27404800  1
  C  C56  1  0.79712800  0.46423500  0.73190900  1
  C  C57  1  0.70216400  0.96349400  0.27404800  1
  C  C58  1  0.29712800  0.96423500  0.73190900  1
  C  C59  1  0.15672600  0.46346400  0.32028800  1
  C  C60  1  0.84256600  0.46382800  0.68537200  1
  C  C61  1  0.65672600  0.96346400  0.32028800  1
  C  C62  1  0.34256600  0.96382800  0.68537200  1
  C  C63  1  0.13411200  0.50106900  0.35931800  1
  C  C64  1  0.86530900  0.49979700  0.64055500  1
  C  C65  1  0.63411200  0.00106900  0.35931800  1
  C  C66  1  0.36530900  0.99979700  0.64055500  1
  C  C67  1  0.15739400  0.53850300  0.35232900  1
  C  C68  1  0.84212100  0.53596300  0.64227400  1
  C  C69  1  0.65739400  0.03850300  0.35232900  1
  C  C70  1  0.34212100  0.03596300  0.64227400  1
  C  C71  1  0.20281400  0.53806900  0.30789600  1
  C  C72  1  0.79670000  0.53579300  0.68715900  1
  C  C73  1  0.70281400  0.03806900  0.30789600  1
  C  C74  1  0.29670000  0.03579300  0.68715900  1
  C  C75  1  0.22542700  0.50065300  0.26824500  1
  C  C76  1  0.77396500  0.50002800  0.73243500  1
  C  C77  1  0.72542700  0.00065300  0.26824500  1
  C  C78  1  0.27396500  0.00002800  0.73243500  1
  C  C79  1  0.29656700  0.51590100  0.24902900  1
  C  C80  1  0.70276100  0.51203200  0.75020000  1
  C  C81  1  0.79656700  0.01590100  0.24902900  1
  C  C82  1  0.20276100  0.01203200  0.75020000  1
  C  C83  1  0.34197400  0.51503400  0.20532500  1
  C  C84  1  0.65735000  0.51134900  0.79419400  1
  C  C85  1  0.84197400  0.01503400  0.20532500  1
  C  C86  1  0.15735000  0.01134900  0.79419400  1
  C  C87  1  0.36505900  0.49975200  0.13243200  1
  C  C88  1  0.63429200  0.49974800  0.86895600  1
  C  C89  1  0.86505900  0.99975200  0.13243200  1
  C  C90  1  0.13429200  0.99974800  0.86895600  1
  C  C91  1  0.34221500  0.48470700  0.10412800  1
  C  C92  1  0.65718200  0.48821600  0.89893600  1
  C  C93  1  0.84221500  0.98470700  0.10412800  1
  C  C94  1  0.15718200  0.98821600  0.89893600  1
  C  C95  1  0.29675500  0.48435000  0.14869000  1
  C  C96  1  0.70264700  0.48766100  0.85426900  1
  C  C97  1  0.79675500  0.98435000  0.14869000  1
  C  C98  1  0.20264700  0.98766100  0.85426900  1
  C  C99  1  0.27372200  0.50028900  0.22114400  1
  C  C100  1  0.72565500  0.49990500  0.77982800  1
  C  C101  1  0.77372200  0.00028900  0.22114400  1
  C  C102  1  0.22565500  0.99990500  0.77982800  1
  C  C103  1  0.99986000  0.63439400  0.00656000  1
  C  C104  1  0.49986000  0.13439400  0.00656000  1
  C  C105  1  0.03676600  0.70263000  0.95108500  1
  C  C106  1  0.96319400  0.70281100  0.06155600  1
  C  C107  1  0.53676600  0.20263000  0.95108500  1
  C  C108  1  0.46319400  0.20281100  0.06155600  1
  C  C109  1  0.49987600  0.72569200  0.99647400  1
  C  C110  1  0.99987600  0.22569200  0.99647400  1
  C  C111  1  0.99997300  0.72561900  0.00606500  1
  C  C112  1  0.49997300  0.22561900  0.00606500  1
  C  C113  1  0.00110300  0.41386900  0.99287800  1
  C  C114  1  0.50110300  0.91386900  0.99287800  1
  C  C115  1  0.00439700  0.50528900  0.87552000  1
  C  C116  1  0.99626100  0.49488100  0.12274200  1
  C  C117  1  0.50439700  0.00528900  0.87552000  1
  C  C118  1  0.49626100  0.99488100  0.12274200  1
  C  C119  1  0.48505100  0.29740200  0.06961000  1
  C  C120  1  0.51449300  0.29610100  0.93938800  1
  C  C121  1  0.98505100  0.79740200  0.06961000  1
  C  C122  1  0.01449300  0.79610100  0.93938800  1
  C  C123  1  0.99956200  0.58617900  0.00556800  1
  C  C124  1  0.49956200  0.08617900  0.00556800  1
  C  C125  1  0.49960900  0.41331300  0.00154100  1
  C  C126  1  0.99960900  0.91331300  0.00154100  1
  C  C127  1  0.41335200  0.49955100  0.08573000  1
  C  C128  1  0.58598700  0.49959100  0.91575400  1
  C  C129  1  0.91335200  0.99955100  0.08573000  1
  C  C130  1  0.08598700  0.99959100  0.91575400  1
  C  C131  1  0.48553000  0.34282200  0.06829100  1
  C  C132  1  0.51382100  0.34149100  0.93848200  1
  C  C133  1  0.98553000  0.84282200  0.06829100  1
  C  C134  1  0.01382100  0.84149100  0.93848200  1
  C  C135  1  0.49967500  0.58589500  0.00000700  1
  C  C136  1  0.99967500  0.08589500  0.00000700  1
  C  C137  1  0.02219400  0.29739800  0.01880800  1
  C  C138  1  0.97863100  0.29701700  0.97054400  1
  C  C139  1  0.52219400  0.79739800  0.01880800  1
  C  C140  1  0.47863100  0.79701700  0.97054400  1
  C  C141  1  0.02256100  0.34279100  0.01791200  1
  C  C142  1  0.97876500  0.34245200  0.96978400  1
  C  C143  1  0.52256100  0.84279100  0.01791200  1
  C  C144  1  0.47876500  0.84245200  0.96978400  1
  C  C145  1  0.00093400  0.36562500  0.99315100  1
  C  C146  1  0.50093400  0.86562500  0.99315100  1
  C  C147  1  0.49984900  0.27385500  0.00503700  1
  C  C148  1  0.99984900  0.77385500  0.00503700  1
  C  C149  1  0.49963800  0.36508000  0.00281400  1
  C  C150  1  0.99963800  0.86508000  0.00281400  1
  C  C151  1  0.00029200  0.27413700  0.99510900  1
  C  C152  1  0.50029200  0.77413700  0.99510900  1
  C  C153  1  0.50315300  0.70197300  0.93932700  1
  C  C154  1  0.49634000  0.70325500  0.05489200  1
  C  C155  1  0.00315300  0.20197300  0.93932700  1
  C  C156  1  0.99634000  0.20325500  0.05489200  1
  C  C157  1  0.50302700  0.65654700  0.94047100  1
  C  C158  1  0.49627200  0.65785600  0.05602800  1
  C  C159  1  0.00302700  0.15654700  0.94047100  1
  C  C160  1  0.99627200  0.15785600  0.05602800  1
  Br  Br1  1  0.05076200  0.37288800  0.05644900  1
  Br  Br2  1  0.94972200  0.37215000  0.93254200  1
  Br  Br3  1  0.55076200  0.87288800  0.05644900  1
  Br  Br4  1  0.44972200  0.87215000  0.93254200  1
  O  O1  1  0.06535800  0.53920000  0.42683200  1
  O  O2  1  0.93424200  0.53727100  0.56498200  1
  O  O3  1  0.56535800  0.03920000  0.42683200  1
  O  O4  1  0.43424200  0.03727100  0.56498200  1
  O  O5  1  0.06519100  0.46332300  0.43373200  1
  O  O6  1  0.93411300  0.46149200  0.57343400  1
  O  O7  1  0.56519100  0.96332300  0.43373200  1
  O  O8  1  0.43411300  0.96149200  0.57343400  1
  O  O9  1  0.00433000  0.54001400  0.58383000  1
  O  O10  1  0.99716700  0.53654300  0.40842600  1
  O  O11  1  0.50433000  0.04001400  0.58383000  1
  O  O12  1  0.49716700  0.03654300  0.40842600  1
  O  O13  1  0.00275600  0.46407200  0.59054600  1
  O  O14  1  0.99463900  0.46066400  0.41616300  1
  O  O15  1  0.50275600  0.96407200  0.59054600  1
  O  O16  1  0.49463900  0.96066400  0.41616300  1
  O  O17  1  0.96316300  0.43463100  0.03053600  1
  O  O18  1  0.03920400  0.43424900  0.95721200  1
  O  O19  1  0.46316300  0.93463100  0.03053700  1
  O  O20  1  0.53920400  0.93424900  0.95721200  1
  O  O21  1  0.96575200  0.50462700  0.94023400  1
  O  O22  1  0.03492600  0.49583400  0.05807300  1
  O  O23  1  0.46575200  0.00462700  0.94023400  1
  O  O24  1  0.53492600  0.99583400  0.05807300  1
  O  O25  1  0.04166200  0.50212900  0.86913500  1
  O  O26  1  0.95896200  0.49767500  0.12916900  1
  O  O27  1  0.54166200  0.00212900  0.86913500  1
  O  O28  1  0.45896200  0.99767500  0.12916900  1
  O  O29  1  0.96144500  0.56580600  0.04166400  1
  O  O30  1  0.03748100  0.56543600  0.96728200  1
  O  O31  1  0.46144500  0.06580600  0.04166400  1
  O  O32  1  0.53748100  0.06543600  0.96728200  1
  O  O33  1  0.49781700  0.43464600  0.05558200  1
  O  O34  1  0.50149000  0.43315700  0.94632300  1
  O  O35  1  0.99781700  0.93464600  0.05558200  1
  O  O36  1  0.00149000  0.93315700  0.94632300  1
  O  O37  1  0.43355700  0.50161000  0.11903300  1
  O  O38  1  0.56577100  0.49832400  0.88242400  1
  O  O39  1  0.93355700  0.00161000  0.11903300  1
  O  O40  1  0.06577100  0.99832400  0.88242400  1
  O  O41  1  0.43440500  0.49755000  0.01260900  1
  O  O42  1  0.56492700  0.50080200  0.98893000  1
  O  O43  1  0.93440500  0.99755000  0.01260900  1
  O  O44  1  0.06492700  0.00080200  0.98893000  1
  O  O45  1  0.49859300  0.56599700  0.05444300  1
  O  O46  1  0.50073700  0.56451300  0.94667300  1
  O  O47  1  0.99859300  0.06599700  0.05444300  1
  O  O48  1  0.00073700  0.06451300  0.94667300  1
