# generated using pymatgen
data_Cu2H26C42N2O9
_symmetry_space_group_name_H-M   'P 1'
_cell_length_a   10.90391700
_cell_length_b   10.95187600
_cell_length_c   9.48038500
_cell_angle_alpha   89.98641500
_cell_angle_beta   89.99675600
_cell_angle_gamma   89.99793400
_symmetry_Int_Tables_number   1
_chemical_formula_structural   Cu2H26C42N2O9
_chemical_formula_sum   'Cu2 H26 C42 N2 O9'
_cell_volume   1132.13187029
_cell_formula_units_Z   1
loop_
 _symmetry_equiv_pos_site_id
 _symmetry_equiv_pos_as_xyz
  1  'x, y, z'
loop_
 _atom_site_type_symbol
 _atom_site_label
 _atom_site_symmetry_multiplicity
 _atom_site_fract_x
 _atom_site_fract_y
 _atom_site_fract_z
 _atom_site_occupancy
  Cu  Cu1  1  0.48403000  0.50867600  0.63414200  1
  Cu  Cu2  1  0.48574600  0.50896100  0.35204900  1
  H  H1  1  0.23787200  0.78720200  0.93995100  1
  H  H2  1  0.23645600  0.88333500  0.17406800  1
  H  H3  1  0.15128400  0.77285200  0.37759600  1
  H  H4  1  0.06941900  0.46980700  0.11249500  1
  H  H5  1  0.15557800  0.57987100  0.90913600  1
  H  H6  1  0.86882600  0.58629000  0.29194000  1
  H  H7  1  0.10345300  0.42789100  0.69275300  1
  H  H8  1  0.88328700  0.56858100  0.85107800  1
  H  H9  1  0.84016000  0.46855800  0.07771300  1
  H  H10  1  0.83414700  0.24563500  0.09092400  1
  H  H11  1  0.84970100  0.12255100  0.87311600  1
  H  H12  1  0.88070200  0.22418500  0.64572700  1
  H  H13  1  0.44786200  0.12082100  0.27831300  1
  H  H14  1  0.60247300  0.20990900  0.74339200  1
  H  H15  1  0.48142100  0.90696600  0.98013200  1
  H  H16  1  0.40880600  0.81144900  0.77366100  1
  H  H17  1  0.44441100  0.89941400  0.27774500  1
  H  H18  1  0.35160800  0.37772500  0.12324900  1
  H  H19  1  0.65036600  0.67715300  0.24604600  1
  H  H20  1  0.78264800  0.80377200  0.12124800  1
  H  H21  1  0.78031900  0.80590200  0.86339400  1
  H  H22  1  0.65259400  0.67482900  0.73893600  1
  H  H23  1  0.34952900  0.37760300  0.86562200  1
  H  H24  1  0.75263600  0.01802700  0.06436700  1
  H  H25  1  0.61137200  0.97496300  0.14831800  1
  H  H26  1  0.68735800  0.11341700  0.20042200  1
  C  C1  1  0.48762400  0.27317400  0.49485400  1
  C  C2  1  0.24909600  0.50941900  0.49023400  1
  C  C3  1  0.47622300  0.74513700  0.49381200  1
  C  C4  1  0.72174500  0.50429000  0.49576900  1
  C  C5  1  0.20077700  0.79201500  0.16084700  1
  C  C6  1  0.15317500  0.72997900  0.27492200  1
  C  C7  1  0.10429000  0.61489600  0.25705900  1
  C  C8  1  0.10565300  0.56080400  0.12582200  1
  C  C9  1  0.15460900  0.62224000  0.01207400  1
  C  C10  1  0.20125900  0.73824100  0.02941800  1
  C  C11  1  0.91938500  0.54811700  0.37930600  1
  C  C12  1  0.85754800  0.50264600  0.49548000  1
  C  C13  1  0.92676600  0.45986100  0.60840100  1
  C  C14  1  0.05285500  0.46428200  0.60423200  1
  C  C15  1  0.11410200  0.51007300  0.48921400  1
  C  C16  1  0.04618200  0.55305900  0.37589900  1
  C  C17  1  0.86635900  0.47160700  0.85496300  1
  C  C18  1  0.84605800  0.41503600  0.98239200  1
  C  C19  1  0.84195900  0.28963100  0.98951700  1
  C  C20  1  0.85081900  0.22105100  0.86798400  1
  C  C21  1  0.86672600  0.27811900  0.73984800  1
  C  C22  1  0.87488800  0.40352800  0.73342200  1
  C  C23  1  0.55490000  0.12392500  0.74542400  1
  C  C24  1  0.55183900  0.06348600  0.87266900  1
  C  C25  1  0.49706900  0.95128900  0.88006800  1
  C  C26  1  0.45994400  0.89422600  0.75893300  1
  C  C27  1  0.47874300  0.94708700  0.62703600  1
  C  C28  1  0.50781400  0.07073000  0.62320700  1
  C  C29  1  0.49041600  0.13708300  0.49816600  1
  C  C30  1  0.46325200  0.07292300  0.37634200  1
  C  C31  1  0.45858400  0.94665400  0.37630500  1
  C  C32  1  0.46763300  0.88122700  0.50034700  1
  C  C33  1  0.64345500  0.66870200  0.13517000  1
  C  C34  1  0.72079300  0.74491000  0.06383100  1
  C  C35  1  0.71950700  0.74588500  0.92088500  1
  C  C36  1  0.64305700  0.66833500  0.84969600  1
  C  C37  1  0.56317900  0.58822100  0.91889400  1
  C  C38  1  0.56397800  0.58841200  0.06628100  1
  C  C39  1  0.41271600  0.43840200  0.06719900  1
  C  C40  1  0.41148900  0.43827800  0.92040300  1
  C  C41  1  0.59757400  0.12324800  0.00058000  1
  C  C42  1  0.66598100  0.05285100  0.11003600  1
  N  N1  1  0.49011600  0.51100600  0.14021100  1
  N  N2  1  0.48558500  0.51301100  0.84592600  1
  O  O1  1  0.47746900  0.33142800  0.61542200  1
  O  O2  1  0.48518300  0.33107700  0.37211400  1
  O  O3  1  0.30575600  0.50737500  0.61314300  1
  O  O4  1  0.30744000  0.50187400  0.36928100  1
  O  O5  1  0.48203300  0.68550100  0.61143200  1
  O  O6  1  0.47655400  0.68671800  0.37268800  1
  O  O7  1  0.66232700  0.50061900  0.61500900  1
  O  O8  1  0.66388800  0.50729600  0.37519500  1
  O  O9  1  0.58359200  0.23282200  0.01557800  1
