# generated using pymatgen
data_FeH15C21NO8
_symmetry_space_group_name_H-M   'P 1'
_cell_length_a   15.30599900
_cell_length_b   9.40402100
_cell_length_c   18.05543400
_cell_angle_alpha   90.21974100
_cell_angle_beta   104.18564400
_cell_angle_gamma   107.63180900
_symmetry_Int_Tables_number   1
_chemical_formula_structural   FeH15C21NO8
_chemical_formula_sum   'Fe2 H30 C42 N2 O16'
_cell_volume   2392.66349493
_cell_formula_units_Z   2
loop_
 _symmetry_equiv_pos_site_id
 _symmetry_equiv_pos_as_xyz
  1  'x, y, z'
loop_
 _atom_site_type_symbol
 _atom_site_label
 _atom_site_symmetry_multiplicity
 _atom_site_fract_x
 _atom_site_fract_y
 _atom_site_fract_z
 _atom_site_occupancy
  Fe  Fe1  1  0.50856100  0.01424000  0.82824400  1
  Fe  Fe2  1  0.52782900  0.00171000  0.16786800  1
  H  H1  1  0.81165500  0.02405500  0.18298200  1
  H  H2  1  0.83699500  0.94899800  0.92130800  1
  H  H3  1  0.03699700  0.90375300  0.06904700  1
  H  H4  1  0.98717000  0.05133600  0.92094900  1
  H  H5  1  0.07020800  0.98646500  0.83194800  1
  H  H6  1  0.22173000  0.98937700  0.81003200  1
  H  H7  1  0.18589900  0.99484400  0.07246300  1
  H  H8  1  0.49115100  0.73957700  0.61431800  1
  H  H9  1  0.51275800  0.70543800  0.41291000  1
  H  H10  1  0.50144100  0.47574200  0.80536700  1
  H  H11  1  0.27302600  0.20837600  0.55482900  1
  H  H12  1  0.32058600  0.29615200  0.47858900  1
  H  H13  1  0.29204100  0.09593600  0.48292700  1
  H  H14  1  0.46891100  0.21260200  0.53474400  1
  H  H15  1  0.41188800  0.12227200  0.59965000  1
  H  H16  1  0.60753400  0.17350000  0.39093200  1
  H  H17  1  0.59053200  0.25403100  0.47390900  1
  H  H18  1  0.53499600  0.05581400  0.44618400  1
  H  H19  1  0.41408200  0.18463000  0.40920000  1
  H  H20  1  0.42961100  0.11035300  0.32817600  1
  H  H21  1  0.39561600  0.47009300  0.12984300  1
  H  H22  1  0.45144700  0.64315900  0.09299000  1
  H  H23  1  0.46854800  0.47340200  0.06387900  1
  H  H24  1  0.59284800  0.68042000  0.18284600  1
  H  H25  1  0.59229300  0.49724300  0.16875200  1
  H  H26  1  0.96416600  0.18030300  0.25120200  1
  H  H27  1  0.92935800  0.98733300  0.27721400  1
  H  H28  1  0.05233200  0.09772400  0.29912000  1
  H  H29  1  0.00420000  0.91085800  0.18644100  1
  H  H30  1  0.05337100  0.10312900  0.16720300  1
  C  C1  1  0.82071600  0.01338900  0.12615100  1
  C  C2  1  0.90512400  0.00426000  0.11442200  1
  C  C3  1  0.91032700  0.97854600  0.04007900  1
  C  C4  1  0.83312300  0.96979300  0.97899400  1
  C  C5  1  0.74965800  0.98252300  0.99076500  1
  C  C6  1  0.74272100  0.99849900  0.06535500  1
  C  C7  1  0.99721100  0.95727300  0.02688700  1
  C  C8  1  0.02750400  0.00084300  0.96465000  1
  C  C9  1  0.12808300  0.98561400  0.88014500  1
  C  C10  1  0.21337300  0.98608400  0.86780200  1
  C  C11  1  0.28982700  0.99251800  0.92854800  1
  C  C12  1  0.27885900  0.98927500  0.00288700  1
  C  C13  1  0.19240700  0.98796700  0.01459800  1
  C  C14  1  0.11710100  0.98785000  0.95352500  1
  C  C15  1  0.46840900  0.22174100  0.73496600  1
  C  C16  1  0.38140200  0.01497000  0.91137000  1
  C  C17  1  0.67195200  0.98173600  0.92350700  1
  C  C18  1  0.50104800  0.74691900  0.76607300  1
  C  C19  1  0.50487300  0.25659700  0.22580000  1
  C  C20  1  0.35543100  0.98595600  0.07015900  1
  C  C21  1  0.65262700  0.98575800  0.08331500  1
  C  C22  1  0.52928500  0.79086100  0.27666100  1
  C  C23  1  0.49326500  0.62040800  0.71485200  1
  C  C24  1  0.48549200  0.63237500  0.63755500  1
  C  C25  1  0.47099200  0.50897900  0.58856700  1
  C  C26  1  0.45678400  0.36699900  0.61801500  1
  C  C27  1  0.47291200  0.36023700  0.69736800  1
  C  C28  1  0.49222500  0.48625400  0.74459300  1
  C  C29  1  0.49196700  0.35314800  0.35043700  1
  C  C30  1  0.50502600  0.37999700  0.27728900  1
  C  C31  1  0.51897400  0.52490100  0.25338100  1
  C  C32  1  0.51762600  0.63919500  0.30205700  1
  C  C33  1  0.50904400  0.61240300  0.37563300  1
  C  C34  1  0.49653300  0.46968300  0.40031000  1
  C  C35  1  0.41906100  0.22236400  0.56746500  1
  C  C36  1  0.32027800  0.20546400  0.51746700  1
  C  C37  1  0.46725900  0.19778600  0.37612500  1
  C  C38  1  0.55546700  0.16830300  0.42468000  1
  C  C39  1  0.54702200  0.56299500  0.17965200  1
  C  C40  1  0.45989500  0.53554000  0.11251500  1
  C  C41  1  0.99102600  0.02035200  0.18006400  1
  C  C42  1  0.98276800  0.07492200  0.25654400  1
  N  N1  1  0.47207800  0.53647300  0.51101300  1
  N  N2  1  0.49147200  0.43991400  0.47659900  1
  O  O1  1  0.54311300  0.21167400  0.78637100  1
  O  O2  1  0.45190300  0.13739000  0.93960400  1
  O  O3  1  0.38701000  0.11487200  0.72486100  1
  O  O4  1  0.38668100  0.93017500  0.85580800  1
  O  O5  1  0.60192700  0.03024800  0.93013100  1
  O  O6  1  0.67695200  0.94452700  0.85494200  1
  O  O7  1  0.50612100  0.87894200  0.74108800  1
  O  O8  1  0.49866000  0.72704400  0.83755100  1
  O  O9  1  0.53614900  0.14660700  0.25320900  1
  O  O10  1  0.47300600  0.25532500  0.15150600  1
  O  O11  1  0.44072300  0.99621500  0.06398100  1
  O  O12  1  0.33880100  0.97421700  0.13819100  1
  O  O13  1  0.59896900  0.90499400  0.31584600  1
  O  O14  1  0.65285900  0.06343300  0.14402100  1
  O  O15  1  0.47803300  0.80733100  0.20913200  1
  O  O16  1  0.57575400  0.87816300  0.04799600  1
