# generated using pymatgen
data_ZnH20C25NO14
_symmetry_space_group_name_H-M   'P 1'
_cell_length_a   16.17811800
_cell_length_b   15.00124000
_cell_length_c   10.84268500
_cell_angle_alpha   90.00000000
_cell_angle_beta   89.99706700
_cell_angle_gamma   90.00000000
_symmetry_Int_Tables_number   1
_chemical_formula_structural   ZnH20C25NO14
_chemical_formula_sum   'Zn2 H40 C50 N2 O28'
_cell_volume   2631.43107071
_cell_formula_units_Z   2
loop_
 _symmetry_equiv_pos_site_id
 _symmetry_equiv_pos_as_xyz
  1  'x, y, z'
loop_
 _atom_site_type_symbol
 _atom_site_label
 _atom_site_symmetry_multiplicity
 _atom_site_fract_x
 _atom_site_fract_y
 _atom_site_fract_z
 _atom_site_occupancy
  Zn  Zn1  1  0.49398500  0.59435600  0.51047800  1
  Zn  Zn2  1  0.49986500  0.39168300  0.51001400  1
  H  H1  1  0.48050700  0.63579600  0.11198700  1
  H  H2  1  0.37442200  0.54550500  0.08555300  1
  H  H3  1  0.47446200  0.63202100  0.91413900  1
  H  H4  1  0.37298100  0.51590100  0.89014300  1
  H  H5  1  0.61087100  0.41915100  0.13324000  1
  H  H6  1  0.52393000  0.35192700  0.10342900  1
  H  H7  1  0.63045200  0.44710900  0.93217900  1
  H  H8  1  0.56097200  0.35976700  0.90250100  1
  H  H9  1  0.38648200  0.07830500  0.41398000  1
  H  H10  1  0.38033200  0.91486800  0.41886600  1
  H  H11  1  0.66666667  0.78281100  0.30604300  1
  H  H12  1  0.72652400  0.73071200  0.18545200  1
  H  H13  1  0.70239400  0.66969900  0.32545700  1
  H  H14  1  0.15954200  0.40663000  0.22540300  1
  H  H15  1  0.24521800  0.35565200  0.30564900  1
  H  H16  1  0.21522700  0.31593300  0.15405500  1
  H  H17  1  0.83802300  0.90659300  0.56845100  1
  H  H18  1  0.77906800  0.80442800  0.57327600  1
  H  H19  1  0.78584500  0.87525800  0.70898800  1
  H  H20  1  0.71843700  0.05975600  0.90266100  1
  H  H21  1  0.69234100  0.16526400  0.83269900  1
  H  H22  1  0.77095500  0.09415900  0.76368600  1
  H  H23  1  0.70447200  0.81529900  0.92738500  1
  H  H24  1  0.72059000  0.73544000  0.80461500  1
  H  H25  1  0.74597000  0.70612700  0.96120000  1
  H  H26  1  0.27696800  0.29546800  0.66731500  1
  H  H27  1  0.28523400  0.24580000  0.81894100  1
  H  H28  1  0.37498600  0.25417200  0.71895900  1
  H  H29  1  0.09550500  0.62659200  0.04184700  1
  H  H30  1  0.18653000  0.61671800  0.13732200  1
  H  H31  1  0.11809700  0.71190900  0.15444400  1
  H  H32  1  0.07049400  0.38087400  0.00088100  1
  H  H33  1  0.16253800  0.36859900  0.90817500  1
  H  H34  1  0.07954800  0.28744300  0.89671500  1
  H  H35  1  0.94996200  0.82701000  0.26409400  1
  H  H36  1  0.84983000  0.78052000  0.29788000  1
  H  H37  1  0.90863200  0.74061700  0.16585900  1
  H  H38  1  0.89895500  0.19601000  0.79559500  1
  H  H39  1  0.80862300  0.26459900  0.76970500  1
  H  H40  1  0.88388500  0.29577600  0.88609600  1
  C  C1  1  0.33529900  0.48878000  0.51929600  1
  C  C2  1  0.49112700  0.49299700  0.26837900  1
  C  C3  1  0.65855700  0.49760300  0.50164000  1
  C  C4  1  0.50390300  0.49286200  0.75235700  1
  C  C5  1  0.52529000  0.58388300  0.08303800  1
  C  C6  1  0.40777100  0.48154500  0.07380700  1
  C  C7  1  0.52511800  0.58636800  0.94181000  1
  C  C8  1  0.41592800  0.46800700  0.93447300  1
  C  C9  1  0.55093500  0.41808900  0.08413200  1
  C  C10  1  0.49411400  0.49309900  0.12956800  1
  C  C11  1  0.50394700  0.49278000  0.89172600  1
  C  C12  1  0.56577300  0.42620100  0.94619000  1
  C  C13  1  0.95837100  0.55446500  0.42899000  1
  C  C14  1  0.95012600  0.45184600  0.59881100  1
  C  C15  1  0.91137700  0.50383800  0.51037700  1
  C  C16  1  0.03569100  0.44728400  0.60279900  1
  C  C17  1  0.04421500  0.54905000  0.43258700  1
  C  C18  1  0.08259100  0.49458100  0.51853000  1
  C  C19  1  0.82220600  0.50372800  0.50411500  1
  C  C20  1  0.17163700  0.48894300  0.52154500  1
  C  C21  1  0.24631900  0.48694900  0.52171200  1
  C  C22  1  0.74753500  0.50129200  0.50153500  1
  C  C23  1  0.43281900  0.94911700  0.45837700  1
  C  C24  1  0.43649800  0.04087300  0.45506900  1
  C  C25  1  0.49641100  0.90083800  0.51024300  1
  C  C26  1  0.50256900  0.08526400  0.50688200  1
  C  C27  1  0.56432700  0.94481600  0.55921700  1
  C  C28  1  0.56616900  0.03741900  0.56122100  1
  C  C29  1  0.49262400  0.80490300  0.50944900  1
  C  C30  1  0.50240800  0.18117100  0.50846200  1
  C  C31  1  0.60608600  0.61207700  0.13948900  1
  C  C32  1  0.67936100  0.71909800  0.25773400  1
  C  C33  1  0.35322900  0.41408300  0.13657500  1
  C  C34  1  0.22125300  0.37557700  0.21387500  1
  C  C35  1  0.63657400  0.89363300  0.60125100  1
  C  C36  1  0.78204300  0.87420700  0.60688600  1
  C  C37  1  0.63089200  0.08404100  0.63151300  1
  C  C38  1  0.71122500  0.09551900  0.81379400  1
  C  C39  1  0.60456100  0.62665200  0.89314300  1
  C  C40  1  0.70209600  0.74367600  0.90229000  1
  C  C41  1  0.38940100  0.37668500  0.89138500  1
  C  C42  1  0.31716900  0.28742700  0.74905900  1
  C  C43  1  0.09487000  0.59771700  0.34189600  1
  C  C44  1  0.12128100  0.63938700  0.13495100  1
  C  C45  1  0.07698600  0.39487300  0.69898800  1
  C  C46  1  0.09458600  0.35895100  0.91006300  1
  C  C47  1  0.91804600  0.61894400  0.34596200  1
  C  C48  1  0.91238900  0.76519100  0.26220100  1
  C  C49  1  0.90020400  0.39984100  0.68659500  1
  C  C50  1  0.87519800  0.26533200  0.79375500  1
  N  N1  1  0.50252900  0.25836000  0.50962000  1
  N  N2  1  0.49103300  0.72769400  0.51025200  1
  O  O1  1  0.37152100  0.56682700  0.51752000  1
  O  O2  1  0.37621100  0.41319900  0.51655100  1
  O  O3  1  0.48938500  0.56965800  0.32688000  1
  O  O4  1  0.49559400  0.41629100  0.32635500  1
  O  O5  1  0.61758900  0.57306500  0.50380900  1
  O  O6  1  0.62247200  0.41913400  0.50347000  1
  O  O7  1  0.49869500  0.56978500  0.69427300  1
  O  O8  1  0.50444900  0.41610600  0.69384000  1
  O  O9  1  0.66905000  0.56822100  0.12704000  1
  O  O10  1  0.60791100  0.68864000  0.20465500  1
  O  O11  1  0.37932600  0.34132800  0.16827300  1
  O  O12  1  0.27395700  0.43580500  0.16020500  1
  O  O13  1  0.62745800  0.82683100  0.66364500  1
  O  O14  1  0.71330300  0.92010300  0.56888600  1
  O  O15  1  0.66498700  0.14980900  0.58916600  1
  O  O16  1  0.65175300  0.05398400  0.74461200  1
  O  O17  1  0.65176800  0.58371800  0.82860000  1
  O  O18  1  0.62339900  0.71202600  0.92035800  1
  O  O19  1  0.42023100  0.30904900  0.93353500  1
  O  O20  1  0.33501600  0.36962200  0.79787800  1
  O  O21  1  0.15320200  0.64305300  0.37587000  1
  O  O22  1  0.07592300  0.59342400  0.22086100  1
  O  O23  1  0.12588000  0.33665700  0.67044000  1
  O  O24  1  0.05843100  0.40876700  0.81875900  1
  O  O25  1  0.85719800  0.59767800  0.28645500  1
  O  O26  1  0.94903200  0.70218000  0.33564700  1
  O  O27  1  0.84417000  0.43542200  0.74362100  1
  O  O28  1  0.91794300  0.31328900  0.70716300  1
