# generated using pymatgen
data_ZnH10C21(NO3)2
_symmetry_space_group_name_H-M   'P 1'
_cell_length_a   12.58244400
_cell_length_b   13.73288000
_cell_length_c   16.02777200
_cell_angle_alpha   90.00192000
_cell_angle_beta   102.17359500
_cell_angle_gamma   86.64514400
_symmetry_Int_Tables_number   1
_chemical_formula_structural   ZnH10C21(NO3)2
_chemical_formula_sum   'Zn2 H20 C42 N4 O12'
_cell_volume   2702.35846129
_cell_formula_units_Z   2
loop_
 _symmetry_equiv_pos_site_id
 _symmetry_equiv_pos_as_xyz
  1  'x, y, z'
loop_
 _atom_site_type_symbol
 _atom_site_label
 _atom_site_symmetry_multiplicity
 _atom_site_fract_x
 _atom_site_fract_y
 _atom_site_fract_z
 _atom_site_occupancy
  Zn  Zn1  1  0.38156300  0.47919500  0.48453900  1
  Zn  Zn2  1  0.62274700  0.51746900  0.52228000  1
  H  H1  1  0.36911700  0.62606600  0.02656000  1
  H  H2  1  0.68260200  0.53769400  0.08708100  1
  H  H3  1  0.45754900  0.34168400  0.05162600  1
  H  H4  1  0.32563700  0.46102200  0.92096200  1
  H  H5  1  0.73501200  0.22901500  0.46867000  1
  H  H6  1  0.72151800  0.89799800  0.42386400  1
  H  H7  1  0.77468800  0.05852600  0.44226900  1
  H  H8  1  0.43064600  0.16464700  0.52054500  1
  H  H9  1  0.27527900  0.76145100  0.54454500  1
  H  H10  1  0.33500800  0.05727900  0.54687600  1
  H  H11  1  0.22266400  0.93025200  0.56524800  1
  H  H12  1  0.59947100  0.77503200  0.43282800  1
  H  H13  1  0.24537800  0.35361500  0.36541200  1
  H  H14  1  0.87571200  0.33723200  0.35258700  1
  H  H15  1  0.05428100  0.31550300  0.33031800  1
  H  H16  1  0.18725100  0.55016900  0.55108800  1
  H  H17  1  0.74882200  0.64118400  0.63926600  1
  H  H18  1  0.07457500  0.61626500  0.61394000  1
  H  H19  1  0.93693700  0.68661200  0.68120400  1
  H  H20  1  0.74514800  0.41200400  0.42462900  1
  C  C1  1  0.45334100  0.68689000  0.50243700  1
  C  C2  1  0.50766700  0.48993800  0.66719700  1
  C  C3  1  0.55078400  0.31026700  0.50331600  1
  C  C4  1  0.49638300  0.50713400  0.33956700  1
  C  C5  1  0.42932500  0.56767200  0.01588900  1
  C  C6  1  0.52893400  0.58222100  0.97988300  1
  C  C7  1  0.50847500  0.49002300  0.75686800  1
  C  C8  1  0.49579400  0.50742700  0.24993100  1
  C  C9  1  0.40638500  0.47844700  0.95910700  1
  C  C10  1  0.50631700  0.49560100  0.92306500  1
  C  C11  1  0.47730300  0.41360200  0.02943500  1
  C  C12  1  0.50071400  0.50284300  0.08436400  1
  C  C13  1  0.57539800  0.43299300  0.99300900  1
  C  C14  1  0.60141900  0.52021800  0.04976600  1
  C  C15  1  0.50800200  0.49187800  0.83197400  1
  C  C16  1  0.49720000  0.50600300  0.17499500  1
  C  C17  1  0.69923500  0.08017600  0.46108900  1
  C  C18  1  0.57877600  0.20584100  0.49613200  1
  C  C19  1  0.32710500  0.81694900  0.53134300  1
  C  C20  1  0.29738700  0.91234700  0.54399300  1
  C  C21  1  0.36334800  0.98515700  0.53275100  1
  C  C22  1  0.46002300  0.96421800  0.50521200  1
  C  C23  1  0.48856800  0.86678600  0.48981700  1
  C  C24  1  0.52925900  0.03785800  0.49330200  1
  C  C25  1  0.62578000  0.01168600  0.46833900  1
  C  C26  1  0.64900200  0.91706400  0.44782700  1
  C  C27  1  0.57983900  0.84600800  0.45573600  1
  C  C28  1  0.50549300  0.13714400  0.50487700  1
  C  C29  1  0.67697200  0.17661300  0.47642800  1
  C  C30  1  0.42343400  0.79232200  0.50621900  1
  C  C31  1  0.08109000  0.36788100  0.37948700  1
  C  C32  1  0.80956200  0.60793700  0.60787200  1
  C  C33  1  0.91526500  0.63366500  0.63153100  1
  C  C34  1  0.99360000  0.59256700  0.59223900  1
  C  C35  1  0.96584500  0.52451600  0.52825900  1
  C  C36  1  0.85720500  0.50030900  0.50628600  1
  C  C37  1  0.04278200  0.47994100  0.48555800  1
  C  C38  1  0.00851400  0.41290100  0.42252600  1
  C  C39  1  0.90179200  0.38979500  0.40175800  1
  C  C40  1  0.82720000  0.43289300  0.44313400  1
  C  C41  1  0.15317100  0.49943300  0.50323900  1
  C  C42  1  0.18834200  0.38925300  0.39907800  1
  N  N1  1  0.22256800  0.45407200  0.46007900  1
  N  N2  1  0.78115900  0.54221300  0.54619700  1
  N  N3  1  0.55692500  0.67717400  0.95404900  1
  N  N4  1  0.65643700  0.35698000  0.98209600  1
  O  O1  1  0.37395300  0.62688700  0.48836200  1
  O  O2  1  0.55654000  0.65585700  0.51913100  1
  O  O3  1  0.41507100  0.47755500  0.61385400  1
  O  O4  1  0.59827300  0.50634900  0.64279500  1
  O  O5  1  0.44760700  0.34060600  0.48933400  1
  O  O6  1  0.63026000  0.36980400  0.51806400  1
  O  O7  1  0.40624900  0.48963400  0.36404000  1
  O  O8  1  0.58839100  0.52089000  0.39294300  1
  O  O9  1  0.57373200  0.74645300  0.00972200  1
  O  O10  1  0.56567800  0.69338300  0.87594500  1
  O  O11  1  0.71032900  0.30727000  0.04815900  1
  O  O12  1  0.67571400  0.33841300  0.90696400  1
