# generated using pymatgen
data_Fe2H23C54Br(NO4)4
_symmetry_space_group_name_H-M   'P 1'
_cell_length_a   16.32755800
_cell_length_b   16.67236600
_cell_length_c   13.31781400
_cell_angle_alpha   106.23026400
_cell_angle_beta   91.66770800
_cell_angle_gamma   115.90968400
_symmetry_Int_Tables_number   1
_chemical_formula_structural   Fe2H23C54Br(NO4)4
_chemical_formula_sum   'Fe2 H23 C54 Br1 N4 O16'
_cell_volume   3082.61667344
_cell_formula_units_Z   1
loop_
 _symmetry_equiv_pos_site_id
 _symmetry_equiv_pos_as_xyz
  1  'x, y, z'
loop_
 _atom_site_type_symbol
 _atom_site_label
 _atom_site_symmetry_multiplicity
 _atom_site_fract_x
 _atom_site_fract_y
 _atom_site_fract_z
 _atom_site_occupancy
  Fe  Fe1  1  0.73611900  0.15814900  0.47059600  1
  Fe  Fe2  1  0.71640900  0.12227700  0.90641800  1
  H  H1  1  0.45788200  0.42934800  0.17439300  1
  H  H2  1  0.27499400  0.95377600  0.17215200  1
  H  H3  1  0.13090900  0.82752600  0.17870500  1
  H  H4  1  0.99145200  0.84825600  0.19045800  1
  H  H5  1  0.99628800  0.99556400  0.19665500  1
  H  H6  1  0.17692700  0.32684400  0.20378500  1
  H  H7  1  0.31956000  0.45142000  0.19144700  1
  H  H8  1  0.45400800  0.28309000  0.17170200  1
  H  H9  1  0.39010900  0.09999900  0.01307300  1
  H  H10  1  0.60993000  0.08904800  0.18161700  1
  H  H11  1  0.41166600  0.14326900  0.34579100  1
  H  H12  1  0.04151200  0.13988700  0.03073300  1
  H  H13  1  0.84412200  0.19487100  0.19583900  1
  H  H14  1  0.06148100  0.17879200  0.36243100  1
  H  H15  1  0.73639200  0.42196700  0.62457200  1
  H  H16  1  0.72604800  0.57304600  0.93584300  1
  H  H17  1  0.71775300  0.44726700  0.99795900  1
  H  H18  1  0.72482100  0.82747600  0.37961700  1
  H  H19  1  0.73767300  0.87104300  0.76031400  1
  H  H20  1  0.57924500  0.59906200  0.46589600  1
  H  H21  1  0.56105500  0.44621000  0.35366600  1
  H  H22  1  0.81367500  0.58437700  0.24816100  1
  H  H23  1  0.83407600  0.73782600  0.36317200  1
  C  C1  1  0.21640000  0.96763000  0.17926100  1
  C  C2  1  0.13418900  0.89447400  0.18227400  1
  C  C3  1  0.05616400  0.90605200  0.18879700  1
  C  C4  1  0.06003300  0.99094200  0.19268000  1
  C  C5  1  0.14293800  0.06619700  0.19125600  1
  C  C6  1  0.22178800  0.05432600  0.18401100  1
  C  C7  1  0.14714500  0.15229200  0.19544400  1
  C  C8  1  0.22991700  0.22589700  0.19057100  1
  C  C9  1  0.30854000  0.21375500  0.18227200  1
  C  C10  1  0.30477100  0.12813900  0.17979900  1
  C  C11  1  0.23513500  0.31249000  0.19501500  1
  C  C12  1  0.31654400  0.38476100  0.18874900  1
  C  C13  1  0.39398600  0.37246200  0.17948100  1
  C  C14  1  0.39066100  0.28818300  0.17756500  1
  C  C15  1  0.42404500  0.10140100  0.08492800  1
  C  C16  1  0.50405800  0.09174500  0.08543900  1
  C  C17  1  0.54559100  0.09284300  0.17827300  1
  C  C18  1  0.51317800  0.11203200  0.27182100  1
  C  C19  1  0.43577700  0.12553400  0.27204800  1
  C  C20  1  0.38904700  0.11674000  0.17815300  1
  C  C21  1  0.01723600  0.15699700  0.10452300  1
  C  C22  1  0.94062200  0.17169800  0.10537900  1
  C  C23  1  0.90795000  0.19007900  0.19885500  1
  C  C24  1  0.94858400  0.18927100  0.29101900  1
  C  C25  1  0.02804600  0.17860900  0.29104700  1
  C  C26  1  0.06318900  0.16405700  0.19782900  1
  C  C27  1  0.89925800  0.18757200  0.38166700  1
  C  C28  1  0.73477800  0.99307700  0.48578400  1
  C  C29  1  0.57243600  0.13651200  0.37130000  1
  C  C30  1  0.71660900  0.26979000  0.65620700  1
  C  C31  1  0.74057800  0.01387600  0.72194200  1
  C  C32  1  0.88220000  0.14874200  0.00608000  1
  C  C33  1  0.71963400  0.28739400  0.89144900  1
  C  C34  1  0.55303000  0.09292500  0.99444500  1
  C  C35  1  0.72437300  0.35312700  0.73963500  1
  C  C36  1  0.73421800  0.42817000  0.70726000  1
  C  C37  1  0.73411900  0.50701100  0.77623000  1
  C  C38  1  0.72631700  0.51197300  0.88022200  1
  C  C39  1  0.72133600  0.43978600  0.91524500  1
  C  C40  1  0.72034000  0.35950900  0.84643600  1
  C  C41  1  0.73416000  0.71010600  0.65442500  1
  C  C42  1  0.73811000  0.58207500  0.73655600  1
  C  C43  1  0.72516000  0.76776700  0.50057300  1
  C  C44  1  0.72958800  0.83921900  0.46402700  1
  C  C45  1  0.73543100  0.92212600  0.53235500  1
  C  C46  1  0.73649500  0.93179700  0.64039900  1
  C  C47  1  0.73341900  0.86063000  0.67619100  1
  C  C48  1  0.73009900  0.77962800  0.60851600  1
  C  C49  1  0.70852100  0.67814000  0.42285200  1
  C  C50  1  0.63046400  0.59630100  0.41729600  1
  C  C51  1  0.62003900  0.51039300  0.35419100  1
  C  C52  1  0.68628100  0.50610900  0.29445300  1
  C  C53  1  0.76179100  0.58792300  0.29526400  1
  C  C54  1  0.77288500  0.67408700  0.35933100  1
  Br  Br1  1  0.67471600  0.38656700  0.21452500  1
  N  N1  1  0.70591900  0.64138200  0.78719800  1
  N  N2  1  0.70405300  0.70465200  0.74661500  1
  N  N3  1  0.76969300  0.65316300  0.60641900  1
  N  N4  1  0.77079900  0.58941600  0.64630700  1
  O  O1  1  0.82527200  0.19974400  0.37559300  1
  O  O2  1  0.73200500  0.97777000  0.38327900  1
  O  O3  1  0.91900100  0.15928300  0.45731600  1
  O  O4  1  0.73593000  0.07094300  0.54563400  1
  O  O5  1  0.61028800  0.08269100  0.37908300  1
  O  O6  1  0.60884500  0.22369900  0.43548000  1
  O  O7  1  0.76838200  0.28159600  0.58247600  1
  O  O8  1  0.64679400  0.18648900  0.64239800  1
  O  O9  1  0.68838200  0.99986800  0.79499700  1
  O  O10  1  0.80797600  0.09852500  0.73560300  1
  O  O11  1  0.84081500  0.20010300  0.00101500  1
  O  O12  1  0.85037900  0.06363000  0.93786200  1
  O  O13  1  0.53507200  0.12394600  0.92059500  1
  O  O14  1  0.71581400  0.20867900  0.83059100  1
  O  O15  1  0.62548200  0.07801600  0.99885300  1
  O  O16  1  0.72547100  0.30310100  0.99409500  1
