# generated using pymatgen
data_ZnH15C25NO4
_symmetry_space_group_name_H-M   'P 1'
_cell_length_a   15.12600600
_cell_length_b   8.44639200
_cell_length_c   13.35111500
_cell_angle_alpha   90.00000000
_cell_angle_beta   98.35309200
_cell_angle_gamma   90.00000000
_symmetry_Int_Tables_number   1
_chemical_formula_structural   ZnH15C25NO4
_chemical_formula_sum   'Zn2 H30 C50 N2 O8'
_cell_volume   1687.64562146
_cell_formula_units_Z   2
loop_
 _symmetry_equiv_pos_site_id
 _symmetry_equiv_pos_as_xyz
  1  'x, y, z'
loop_
 _atom_site_type_symbol
 _atom_site_label
 _atom_site_symmetry_multiplicity
 _atom_site_fract_x
 _atom_site_fract_y
 _atom_site_fract_z
 _atom_site_occupancy
  Zn  Zn1  1  0.48642500  0.49533400  0.86202000  1
  Zn  Zn2  1  0.48440800  0.49332400  0.08515600  1
  H  H1  1  0.55227100  0.99258500  0.02354800  1
  H  H2  1  0.41840000  0.99605600  0.92308600  1
  H  H3  1  0.78689600  0.74051000  0.98312700  1
  H  H4  1  0.18412900  0.24817400  0.96478900  1
  H  H5  1  0.18525700  0.74074900  0.96422200  1
  H  H6  1  0.78569400  0.24796600  0.98367600  1
  H  H7  1  0.92264100  0.78592200  0.07083100  1
  H  H8  1  0.04836900  0.20293100  0.87734700  1
  H  H9  1  0.08134200  0.78637100  0.06060500  1
  H  H10  1  0.88968300  0.20239500  0.88747500  1
  H  H11  1  0.34494400  0.53123300  0.20370900  1
  H  H12  1  0.62571400  0.45582200  0.74360800  1
  H  H13  1  0.62134100  0.45813800  0.24444600  1
  H  H14  1  0.34951900  0.53321800  0.70217600  1
  H  H15  1  0.70288400  0.42916300  0.60400500  1
  H  H16  1  0.26690100  0.55813800  0.34517300  1
  H  H17  1  0.74752800  0.51409300  0.36563700  1
  H  H18  1  0.71473100  0.30881500  0.34814600  1
  H  H19  1  0.88374200  0.55647400  0.46726700  1
  H  H20  1  0.00590500  0.46512700  0.59516300  1
  H  H21  1  0.99343200  0.21186700  0.68277500  1
  H  H22  1  0.85819000  0.04902700  0.64190300  1
  H  H23  1  0.73548600  0.13960200  0.51351100  1
  H  H24  1  0.22862100  0.47159200  0.58931800  1
  H  H25  1  0.18604700  0.57520400  0.47574800  1
  H  H26  1  0.12105700  0.67014200  0.65111000  1
  H  H27  1  0.11802300  0.91900300  0.74544000  1
  H  H28  1  0.23821700  0.11449900  0.74347800  1
  H  H29  1  0.36111700  0.06100800  0.64643600  1
  H  H30  1  0.36499100  0.81638400  0.55174400  1
  C  C1  1  0.66523300  0.85195900  0.00598300  1
  C  C2  1  0.30559100  0.13671000  0.94124200  1
  C  C3  1  0.30670400  0.85426200  0.94396800  1
  C  C4  1  0.66411000  0.13439600  0.00324800  1
  C  C5  1  0.75398400  0.85180200  0.99276500  1
  C  C6  1  0.21696100  0.13687600  0.95493600  1
  C  C7  1  0.21811300  0.85296500  0.95782100  1
  C  C8  1  0.75280800  0.13572600  0.98986600  1
  C  C9  1  0.79902300  0.99406700  0.98817600  1
  C  C10  1  0.17194300  0.99463700  0.95969900  1
  C  C11  1  0.62207600  0.99303700  0.01510900  1
  C  C12  1  0.34866700  0.99561800  0.93184300  1
  C  C13  1  0.94937200  0.87638500  0.02654700  1
  C  C14  1  0.02164500  0.11245000  0.92161500  1
  C  C15  1  0.03967700  0.87674700  0.02077900  1
  C  C16  1  0.93134300  0.11205900  0.92735100  1
  C  C17  1  0.07634100  0.99485400  0.96820500  1
  C  C18  1  0.89467000  0.99393900  0.97989900  1
  C  C19  1  0.61102100  0.70839100  0.99605500  1
  C  C20  1  0.35981200  0.28026800  0.95112500  1
  C  C21  1  0.36133100  0.71115700  0.95336000  1
  C  C22  1  0.60951100  0.27751900  0.99382500  1
  C  C23  1  0.40664600  0.51377500  0.25445300  1
  C  C24  1  0.56408300  0.47322100  0.69273300  1
  C  C25  1  0.56123700  0.47077200  0.27824500  1
  C  C26  1  0.40961300  0.51733100  0.66880400  1
  C  C27  1  0.56364100  0.46755200  0.38245900  1
  C  C28  1  0.40717900  0.51728800  0.56469400  1
  C  C29  1  0.48534800  0.49169200  0.42198600  1
  C  C30  1  0.48541700  0.49286100  0.52515300  1
  C  C31  1  0.40671300  0.51488500  0.35770200  1
  C  C32  1  0.56402000  0.47039500  0.58941400  1
  C  C33  1  0.64293700  0.44032100  0.44706300  1
  C  C34  1  0.32788500  0.54148500  0.49981500  1
  C  C35  1  0.64255100  0.44442100  0.55092000  1
  C  C36  1  0.32818800  0.53937600  0.39641500  1
  C  C37  1  0.72724300  0.40638200  0.40397600  1
  C  C38  1  0.80142600  0.35404800  0.48277900  1
  C  C39  1  0.87754000  0.44505100  0.50546700  1
  C  C40  1  0.94635700  0.39390100  0.57739000  1
  C  C41  1  0.93938900  0.25184700  0.62649700  1
  C  C42  1  0.86359600  0.16060700  0.60359800  1
  C  C43  1  0.79477300  0.21150500  0.53164800  1
  C  C44  1  0.24193500  0.57101600  0.53935900  1
  C  C45  1  0.24325900  0.72395500  0.59608700  1
  C  C46  1  0.17408500  0.75558100  0.65009100  1
  C  C47  1  0.17231300  0.89529400  0.70311800  1
  C  C48  1  0.23964700  0.00476700  0.70207800  1
  C  C49  1  0.30859100  0.97457800  0.64776200  1
  C  C50  1  0.31064400  0.83482700  0.59467000  1
  N  N1  1  0.48336400  0.49154400  0.21653900  1
  N  N2  1  0.48746300  0.49702200  0.73062900  1
  O  O1  1  0.58164600  0.65347300  0.07710300  1
  O  O2  1  0.38917700  0.33520800  0.87008500  1
  O  O3  1  0.39044700  0.65717400  0.87199200  1
  O  O4  1  0.58038700  0.33149400  0.07517500  1
  O  O5  1  0.57995900  0.66115300  0.90402100  1
  O  O6  1  0.39086900  0.32752800  0.04313800  1
  O  O7  1  0.39200700  0.66181600  0.04504000  1
  O  O8  1  0.57882100  0.32683500  0.90215100  1
