# generated using pymatgen
data_FeH6C21N3O10
_symmetry_space_group_name_H-M   'P 1'
_cell_length_a   11.76730300
_cell_length_b   17.35943200
_cell_length_c   15.43966700
_cell_angle_alpha   106.47444400
_cell_angle_beta   90.75179800
_cell_angle_gamma   99.60253500
_symmetry_Int_Tables_number   1
_chemical_formula_structural   FeH6C21N3O10
_chemical_formula_sum   'Fe2 H12 C42 N6 O20'
_cell_volume   2975.96528319
_cell_formula_units_Z   2
loop_
 _symmetry_equiv_pos_site_id
 _symmetry_equiv_pos_as_xyz
  1  'x, y, z'
loop_
 _atom_site_type_symbol
 _atom_site_label
 _atom_site_symmetry_multiplicity
 _atom_site_fract_x
 _atom_site_fract_y
 _atom_site_fract_z
 _atom_site_occupancy
  Fe  Fe1  1  0.43205100  0.99005100  0.33218200  1
  Fe  Fe2  1  0.39189300  0.99273500  0.68616800  1
  H  H1  1  0.64552900  0.00093600  0.10561600  1
  H  H2  1  0.61494000  0.97504300  0.96863400  1
  H  H3  1  0.21085700  0.01545800  0.05444900  1
  H  H4  1  0.18145600  0.98843700  0.91761300  1
  H  H5  1  0.06467700  0.96372600  0.28081100  1
  H  H6  1  0.76500700  0.01618500  0.73670300  1
  H  H7  1  0.96078500  0.01790500  0.71733900  1
  H  H8  1  0.41037000  0.26778500  0.43201800  1
  H  H9  1  0.44361100  0.41739800  0.70709100  1
  H  H10  1  0.43579100  0.29897800  0.75818900  1
  H  H11  1  0.40717000  0.56727400  0.31622600  1
  H  H12  1  0.41572100  0.68451500  0.26314900  1
  C  C1  1  0.74351800  0.98187700  0.20892800  1
  C  C2  1  0.85060900  0.97209400  0.23763800  1
  C  C3  1  0.94277300  0.97684100  0.18329700  1
  C  C4  1  0.05087900  0.97262000  0.21544500  1
  C  C5  1  0.14554400  0.98756900  0.16826800  1
  C  C6  1  0.72859400  0.99013000  0.12331100  1
  C  C7  1  0.81868100  0.98917600  0.06514800  1
  C  C8  1  0.92795100  0.98661400  0.09778100  1
  C  C9  1  0.02289200  0.99437500  0.04604000  1
  C  C10  1  0.69339200  0.98838400  0.93683900  1
  C  C11  1  0.80287900  0.99417100  0.97677700  1
  C  C12  1  0.89785200  0.00121800  0.92498600  1
  C  C13  1  0.68015900  0.99797500  0.85207300  1
  C  C14  1  0.77541400  0.01068900  0.80421700  1
  C  C15  1  0.13241500  0.00028000  0.08539000  1
  C  C16  1  0.00725900  0.99925000  0.95785700  1
  C  C17  1  0.09769500  0.99810000  0.89986700  1
  C  C18  1  0.88302600  0.00889300  0.83868800  1
  C  C19  1  0.97481300  0.01255900  0.78452200  1
  C  C20  1  0.08201100  0.00501000  0.81398000  1
  C  C21  1  0.64527300  0.98552500  0.26799100  1
  C  C22  1  0.42732000  0.84006500  0.35683500  1
  C  C23  1  0.26049600  0.99422300  0.20922100  1
  C  C24  1  0.39617900  0.12642400  0.46380600  1
  C  C25  1  0.41201300  0.20587700  0.53270300  1
  C  C26  1  0.41684700  0.27490600  0.50383200  1
  C  C27  1  0.42686700  0.35145700  0.56566100  1
  C  C28  1  0.43556600  0.35867600  0.65687600  1
  C  C29  1  0.43036600  0.29049000  0.68611400  1
  C  C30  1  0.41685100  0.21333500  0.62518700  1
  C  C31  1  0.41110700  0.55889500  0.48605100  1
  C  C32  1  0.42454000  0.42461700  0.53618600  1
  C  C33  1  0.40833400  0.62567000  0.36565900  1
  C  C34  1  0.41459200  0.69330900  0.33521500  1
  C  C35  1  0.42110300  0.77036700  0.39498400  1
  C  C36  1  0.41827300  0.77824800  0.48737200  1
  C  C37  1  0.40911100  0.70959900  0.51803000  1
  C  C38  1  0.40717200  0.63266000  0.45697700  1
  C  C39  1  0.56461500  0.98994800  0.81052300  1
  C  C40  1  0.42916200  0.85845500  0.55431600  1
  C  C41  1  0.17835900  0.00249600  0.75384700  1
  C  C42  1  0.40933900  0.14319600  0.66236000  1
  N  N1  1  0.45026200  0.49898200  0.59663800  1
  N  N2  1  0.44447800  0.56511600  0.57177600  1
  N  N3  1  0.38689500  0.48439800  0.42523500  1
  N  N4  1  0.39320900  0.41810300  0.44992900  1
  N  N5  1  0.40050600  0.71926700  0.61252200  1
  N  N6  1  0.86774600  0.95964000  0.32393500  1
  O  O1  1  0.54257500  0.98871700  0.23650900  1
  O  O2  1  0.43253600  0.82711500  0.26914000  1
  O  O3  1  0.65869400  0.98736600  0.35306200  1
  O  O4  1  0.42512100  0.91458100  0.40773200  1
  O  O5  1  0.27293000  0.95692100  0.27070000  1
  O  O6  1  0.34862700  0.04273800  0.19062400  1
  O  O7  1  0.48207700  0.10348200  0.41511500  1
  O  O8  1  0.29602800  0.07716100  0.45180100  1
  O  O9  1  0.55087200  0.02628400  0.74825900  1
  O  O10  1  0.47690700  0.94214900  0.83074900  1
  O  O11  1  0.34265100  0.87910400  0.60341700  1
  O  O12  1  0.52739600  0.90986500  0.56640100  1
  O  O13  1  0.41231600  0.15616800  0.75039100  1
  O  O14  1  0.28061200  0.99394400  0.78143200  1
  O  O15  1  0.39911100  0.06785000  0.61019800  1
  O  O16  1  0.16232500  0.00804600  0.67172400  1
  O  O17  1  0.30648800  0.68661700  0.64145900  1
  O  O18  1  0.48444300  0.76318900  0.67029100  1
  O  O19  1  0.91385200  0.02048300  0.39261400  1
  O  O20  1  0.83682100  0.88738500  0.33413200  1
