# generated using pymatgen
data_ZnH8C17NO4
_symmetry_space_group_name_H-M   'P 1'
_cell_length_a   8.51949900
_cell_length_b   13.02632300
_cell_length_c   13.40695200
_cell_angle_alpha   90.93788700
_cell_angle_beta   90.07255600
_cell_angle_gamma   95.31281100
_symmetry_Int_Tables_number   1
_chemical_formula_structural   ZnH8C17NO4
_chemical_formula_sum   'Zn2 H16 C34 N2 O8'
_cell_volume   1481.27717521
_cell_formula_units_Z   2
loop_
 _symmetry_equiv_pos_site_id
 _symmetry_equiv_pos_as_xyz
  1  'x, y, z'
loop_
 _atom_site_type_symbol
 _atom_site_label
 _atom_site_symmetry_multiplicity
 _atom_site_fract_x
 _atom_site_fract_y
 _atom_site_fract_z
 _atom_site_occupancy
  Zn  Zn1  1  0.50066400  0.50416100  0.88877100  1
  Zn  Zn2  1  0.49876700  0.49286800  0.11063900  1
  H  H1  1  0.99346600  0.42579000  0.96196500  1
  H  H2  1  0.69637600  0.15714500  0.01281000  1
  H  H3  1  0.67727800  0.00269600  0.98090900  1
  H  H4  1  0.65597000  0.82239400  0.99157500  1
  H  H5  1  0.00596400  0.57125300  0.03758600  1
  H  H6  1  0.30304100  0.83983600  0.98646900  1
  H  H7  1  0.32215700  0.99429500  0.01835000  1
  H  H8  1  0.34347300  0.17459500  0.00773200  1
  H  H9  1  0.51863800  0.65176200  0.24398900  1
  H  H10  1  0.48072800  0.34635400  0.74694000  1
  H  H11  1  0.46835800  0.25141400  0.59488100  1
  H  H12  1  0.46705700  0.24465500  0.41301600  1
  H  H13  1  0.52096800  0.66800000  0.42055100  1
  H  H14  1  0.52253100  0.67398400  0.57377400  1
  H  H15  1  0.47758100  0.32879000  0.25678800  1
  H  H16  1  0.52225600  0.66972300  0.75177600  1
  C  C1  1  0.11139000  0.29309100  0.98775500  1
  C  C2  1  0.98024100  0.34453400  0.97544600  1
  C  C3  1  0.83320400  0.29558200  0.98871800  1
  C  C4  1  0.81480800  0.19043100  0.00087200  1
  C  C5  1  0.94607700  0.13337100  0.99789400  1
  C  C6  1  0.09513100  0.18686400  0.99728700  1
  C  C7  1  0.93221300  0.02499300  0.99764800  1
  C  C8  1  0.06722100  0.97200900  0.00163500  1
  C  C9  1  0.21350900  0.02862000  0.00877800  1
  C  C10  1  0.22694500  0.13418600  0.00493600  1
  C  C11  1  0.78592700  0.96837600  0.99049500  1
  C  C12  1  0.77249400  0.86281000  0.99436200  1
  C  C13  1  0.90430900  0.81014100  0.00205000  1
  C  C14  1  0.05335500  0.86363300  0.00141800  1
  C  C15  1  0.88806800  0.70392200  0.01165800  1
  C  C16  1  0.01918900  0.65249700  0.02404100  1
  C  C17  1  0.16619500  0.70142900  0.01069600  1
  C  C18  1  0.18461200  0.80656600  0.99845400  1
  C  C19  1  0.73684100  0.64085900  0.00710700  1
  C  C20  1  0.70055900  0.35885600  0.99320200  1
  C  C21  1  0.26267100  0.35613400  0.99230100  1
  C  C22  1  0.29877200  0.63812900  0.00620600  1
  C  C23  1  0.48700100  0.40291400  0.29484800  1
  C  C24  1  0.50982200  0.58240800  0.28752300  1
  C  C25  1  0.51112700  0.59103400  0.38983700  1
  C  C26  1  0.50014900  0.50329300  0.44743400  1
  C  C27  1  0.48791900  0.40847000  0.39810200  1
  C  C28  1  0.51298700  0.59922300  0.60698900  1
  C  C29  1  0.50100600  0.50729800  0.55191000  1
  C  C30  1  0.48947300  0.41615000  0.60391600  1
  C  C31  1  0.47734500  0.32246400  0.55386200  1
  C  C32  1  0.47659700  0.31860900  0.45139300  1
  C  C33  1  0.51301800  0.59782900  0.70983800  1
  C  C34  1  0.48991700  0.41796700  0.70686200  1
  N  N1  1  0.49795900  0.48964300  0.24133400  1
  N  N2  1  0.50154800  0.50796600  0.75811600  1
  O  O1  1  0.68210600  0.59959900  0.09004200  1
  O  O2  1  0.67845800  0.61345400  0.91887400  1
  O  O3  1  0.65671200  0.39936200  0.90992300  1
  O  O4  1  0.64885300  0.38538500  0.08140000  1
  O  O5  1  0.31733800  0.39737300  0.90921800  1
  O  O6  1  0.32096800  0.38352400  0.08067700  1
  O  O7  1  0.34269000  0.59760800  0.08933600  1
  O  O8  1  0.35056900  0.61159300  0.91815100  1
