# generated using pymatgen
data_Cu3H36C64O15
_symmetry_space_group_name_H-M   'P 1'
_cell_length_a   44.02776000
_cell_length_b   38.66710800
_cell_length_c   21.50043900
_cell_angle_alpha   90.00000000
_cell_angle_beta   61.31601200
_cell_angle_gamma   90.00000000
_symmetry_Int_Tables_number   1
_chemical_formula_structural   Cu3H36C64O15
_chemical_formula_sum   'Cu12 H144 C256 O60'
_cell_volume   32111.01275793
_cell_formula_units_Z   4
loop_
 _symmetry_equiv_pos_site_id
 _symmetry_equiv_pos_as_xyz
  1  'x, y, z'
loop_
 _atom_site_type_symbol
 _atom_site_label
 _atom_site_symmetry_multiplicity
 _atom_site_fract_x
 _atom_site_fract_y
 _atom_site_fract_z
 _atom_site_occupancy
  Cu  Cu1  1  0.00000000  0.53693900  0.50000000  1
  Cu  Cu2  1  0.50000000  0.03693900  0.50000000  1
  Cu  Cu3  1  0.00000000  0.46939400  0.50000000  1
  Cu  Cu4  1  0.50000000  0.96939400  0.50000000  1
  Cu  Cu5  1  0.96619800  0.50187500  0.02893800  1
  Cu  Cu6  1  0.03380200  0.50187500  0.97106200  1
  Cu  Cu7  1  0.46619800  0.00187500  0.02893800  1
  Cu  Cu8  1  0.53380200  0.00187500  0.97106200  1
  Cu  Cu9  1  0.49964300  0.50133800  0.06227300  1
  Cu  Cu10  1  0.50035700  0.50133800  0.93772700  1
  Cu  Cu11  1  0.99964300  0.00133800  0.06227300  1
  Cu  Cu12  1  0.00035700  0.00133800  0.93772700  1
  H  H1  1  0.95862900  0.52758100  0.73452100  1
  H  H2  1  0.04137100  0.52758100  0.26547900  1
  H  H3  1  0.45862900  0.02758100  0.73452100  1
  H  H4  1  0.54137100  0.02758100  0.26547900  1
  H  H5  1  0.06894100  0.48215800  0.56867600  1
  H  H6  1  0.93105900  0.48215800  0.43132300  1
  H  H7  1  0.56894100  0.98215800  0.56867600  1
  H  H8  1  0.43105900  0.98215800  0.43132300  1
  H  H9  1  0.11503400  0.45403700  0.57904000  1
  H  H10  1  0.88496600  0.45403700  0.42096000  1
  H  H11  1  0.61503400  0.95403700  0.57904000  1
  H  H12  1  0.38496600  0.95403700  0.42096000  1
  H  H13  1  0.11077000  0.44458300  0.69576100  1
  H  H14  1  0.88923000  0.44458300  0.30423800  1
  H  H15  1  0.61077000  0.94458300  0.69576100  1
  H  H16  1  0.38923000  0.94458300  0.30423800  1
  H  H17  1  0.06106500  0.46444700  0.80163400  1
  H  H18  1  0.93893500  0.46444700  0.19836600  1
  H  H19  1  0.56106500  0.96444700  0.80163400  1
  H  H20  1  0.43893500  0.96444700  0.19836600  1
  H  H21  1  0.95813300  0.52581500  0.84792400  1
  H  H22  1  0.04186700  0.52581500  0.15207600  1
  H  H23  1  0.45813300  0.02581500  0.84792400  1
  H  H24  1  0.54186700  0.02581500  0.15207600  1
  H  H25  1  0.39136700  0.49352100  0.00684000  1
  H  H26  1  0.60863300  0.49352100  0.99315900  1
  H  H27  1  0.89136700  0.99352100  0.00684000  1
  H  H28  1  0.10863300  0.99352100  0.99315900  1
  H  H29  1  0.32880800  0.49455600  0.06706700  1
  H  H30  1  0.67119200  0.49455600  0.93293300  1
  H  H31  1  0.82880800  0.99455600  0.06706700  1
  H  H32  1  0.17119200  0.99455600  0.93293300  1
  H  H33  1  0.32787200  0.50511800  0.26611900  1
  H  H34  1  0.67212900  0.50511800  0.73388100  1
  H  H35  1  0.82787200  0.00511800  0.26611900  1
  H  H36  1  0.17212900  0.00511800  0.73388100  1
  H  H37  1  0.39037600  0.50616400  0.20546000  1
  H  H38  1  0.60962400  0.50616400  0.79454000  1
  H  H39  1  0.89037600  0.00616400  0.20546000  1
  H  H40  1  0.10962400  0.00616400  0.79454000  1
  H  H41  1  0.28086400  0.53896800  0.28407200  1
  H  H42  1  0.71913600  0.53896800  0.71592800  1
  H  H43  1  0.78086400  0.03896800  0.28407200  1
  H  H44  1  0.21913600  0.03896800  0.71592800  1
  H  H45  1  0.21843300  0.53871800  0.34643500  1
  H  H46  1  0.78156700  0.53871800  0.65356500  1
  H  H47  1  0.71843300  0.03871800  0.34643500  1
  H  H48  1  0.28156700  0.03871800  0.65356500  1
  H  H49  1  0.21798500  0.46392700  0.20021500  1
  H  H50  1  0.78201500  0.46392700  0.79978500  1
  H  H51  1  0.71798500  0.96392700  0.20021500  1
  H  H52  1  0.28201500  0.96392700  0.79978500  1
  H  H53  1  0.28047100  0.46211600  0.14128900  1
  H  H54  1  0.71952900  0.46211600  0.85871100  1
  H  H55  1  0.78047100  0.96211600  0.14128900  1
  H  H56  1  0.21952900  0.96211600  0.85871100  1
  H  H57  1  0.16980100  0.44732100  0.30507600  1
  H  H58  1  0.83019900  0.44732100  0.69492400  1
  H  H59  1  0.66980100  0.94732100  0.30507600  1
  H  H60  1  0.33019900  0.94732100  0.69492400  1
  H  H61  1  0.10722500  0.44818600  0.36683700  1
  H  H62  1  0.89277500  0.44818600  0.63316300  1
  H  H63  1  0.60722500  0.94818600  0.36683700  1
  H  H64  1  0.39277500  0.94818600  0.63316300  1
  H  H65  1  0.10878900  0.55723100  0.39887900  1
  H  H66  1  0.89121100  0.55723100  0.60112100  1
  H  H67  1  0.60878900  0.05723100  0.39887900  1
  H  H68  1  0.39121100  0.05723100  0.60112100  1
  H  H69  1  0.17128900  0.55665300  0.33445100  1
  H  H70  1  0.82871100  0.55665300  0.66554900  1
  H  H71  1  0.67128900  0.05665300  0.33445100  1
  H  H72  1  0.32871100  0.05665300  0.66554900  1
  H  H73  1  0.53513200  0.67433100  0.04116900  1
  H  H74  1  0.46486800  0.67433100  0.95883100  1
  H  H75  1  0.03513200  0.17433100  0.04116900  1
  H  H76  1  0.96486800  0.17433100  0.95883100  1
  H  H77  1  0.44493400  0.72049900  0.04556300  1
  H  H78  1  0.55506700  0.72049900  0.95443700  1
  H  H79  1  0.94493400  0.22049900  0.04556300  1
  H  H80  1  0.05506700  0.22049900  0.95443700  1
  H  H81  1  0.94474200  0.28313000  0.04675500  1
  H  H82  1  0.05525800  0.28313000  0.95324500  1
  H  H83  1  0.44474200  0.78313000  0.04675500  1
  H  H84  1  0.55525800  0.78313000  0.95324500  1
  H  H85  1  0.03976300  0.33023200  0.02920900  1
  H  H86  1  0.96023700  0.33023200  0.97079000  1
  H  H87  1  0.53976300  0.83023200  0.02920900  1
  H  H88  1  0.46023700  0.83023200  0.97079000  1
  H  H89  1  0.51502700  0.39269300  0.88986700  1
  H  H90  1  0.48497300  0.39269300  0.11013300  1
  H  H91  1  0.01502700  0.89269300  0.88986700  1
  H  H92  1  0.98497300  0.89269300  0.11013300  1
  H  H93  1  0.53802600  0.28298500  0.03443200  1
  H  H94  1  0.46197400  0.28298500  0.96556800  1
  H  H95  1  0.03802600  0.78298500  0.03443200  1
  H  H96  1  0.96197400  0.78298500  0.96556800  1
  H  H97  1  0.03730300  0.72018200  0.03703200  1
  H  H98  1  0.96269700  0.72018200  0.96296800  1
  H  H99  1  0.53730300  0.22018200  0.03703200  1
  H  H100  1  0.46269700  0.22018200  0.96296800  1
  H  H101  1  0.05460400  0.67248600  0.96333000  1
  H  H102  1  0.94539600  0.67248600  0.03667000  1
  H  H103  1  0.55460400  0.17248600  0.96333000  1
  H  H104  1  0.44539600  0.17248600  0.03667000  1
  H  H105  1  0.05439900  0.61002400  0.96510700  1
  H  H106  1  0.94560100  0.61002400  0.03489300  1
  H  H107  1  0.55439900  0.11002400  0.96510700  1
  H  H108  1  0.44560100  0.11002400  0.03489300  1
  H  H109  1  0.53536700  0.63939000  0.13630800  1
  H  H110  1  0.58385100  0.59798700  0.13485400  1
  H  H111  1  0.60094000  0.55509800  0.02821100  1
  H  H112  1  0.46463300  0.63939000  0.86369200  1
  H  H113  1  0.41614900  0.59798700  0.86514600  1
  H  H114  1  0.39906000  0.55509800  0.97178900  1
  H  H115  1  0.03536700  0.13939000  0.13630800  1
  H  H116  1  0.08385100  0.09798700  0.13485400  1
  H  H117  1  0.10094000  0.05509800  0.02821100  1
  H  H118  1  0.96463300  0.13939000  0.86369200  1
  H  H119  1  0.91614900  0.09798700  0.86514600  1
  H  H120  1  0.89906000  0.05509800  0.97178900  1
  H  H121  1  0.09329200  0.36572600  0.98234300  1
  H  H122  1  0.11498500  0.40750500  0.05117200  1
  H  H123  1  0.06319100  0.44987500  0.12610500  1
  H  H124  1  0.90670800  0.36572600  0.01765700  1
  H  H125  1  0.88501500  0.40750500  0.94882800  1
  H  H126  1  0.93680900  0.44987500  0.87389500  1
  H  H127  1  0.59329200  0.86572600  0.98234300  1
  H  H128  1  0.61498500  0.90750500  0.05117200  1
  H  H129  1  0.56319100  0.94987500  0.12610500  1
  H  H130  1  0.40670800  0.86572600  0.01765700  1
  H  H131  1  0.38501500  0.90750500  0.94882800  1
  H  H132  1  0.43680900  0.94987500  0.87389500  1
  H  H133  1  0.55849200  0.28754900  0.86706500  1
  H  H134  1  0.56705500  0.27502900  0.73835700  1
  H  H135  1  0.52673800  0.31896200  0.71836500  1
  H  H136  1  0.44150800  0.28754900  0.13293400  1
  H  H137  1  0.43294500  0.27502900  0.26164200  1
  H  H138  1  0.47326200  0.31896200  0.28163500  1
  H  H139  1  0.05849200  0.78754900  0.86706500  1
  H  H140  1  0.06705500  0.77502900  0.73835700  1
  H  H141  1  0.02673800  0.81896200  0.71836500  1
  H  H142  1  0.94150800  0.78754900  0.13293400  1
  H  H143  1  0.93294500  0.77502900  0.26164200  1
  H  H144  1  0.97326200  0.81896200  0.28163500  1
  C  C1  1  0.06548600  0.50310800  0.42744200  1
  C  C2  1  0.93451400  0.50310800  0.57255800  1
  C  C3  1  0.56548600  0.00310800  0.42744200  1
  C  C4  1  0.43451400  0.00310800  0.57255800  1
  C  C5  1  0.00567900  0.50347000  0.61184900  1
  C  C6  1  0.99432100  0.50347000  0.38815100  1
  C  C7  1  0.50567900  0.00347000  0.61184900  1
  C  C8  1  0.49432100  0.00347000  0.38815100  1
  C  C9  1  0.06562800  0.47831100  0.62123000  1
  C  C10  1  0.93437200  0.47831100  0.37876900  1
  C  C11  1  0.56562800  0.97831100  0.62123000  1
  C  C12  1  0.43437200  0.97831100  0.37876900  1
  C  C13  1  0.09238300  0.46270000  0.62638000  1
  C  C14  1  0.90761700  0.46270000  0.37362000  1
  C  C15  1  0.59238300  0.96270000  0.62638000  1
  C  C16  1  0.40761700  0.96270000  0.37362000  1
  C  C17  1  0.09010500  0.45763700  0.69162300  1
  C  C18  1  0.90989500  0.45763700  0.30837700  1
  C  C19  1  0.59010500  0.95763700  0.69162300  1
  C  C20  1  0.40989500  0.95763700  0.30837700  1
  C  C21  1  0.06179200  0.46960200  0.75170000  1
  C  C22  1  0.93820800  0.46960200  0.24830000  1
  C  C23  1  0.56179200  0.96960200  0.75170000  1
  C  C24  1  0.43820800  0.96960200  0.24830000  1
  C  C25  1  0.03518800  0.48679500  0.74718500  1
  C  C26  1  0.96481200  0.48679500  0.25281500  1
  C  C27  1  0.53518800  0.98679500  0.74718500  1
  C  C28  1  0.46481200  0.98679500  0.25281500  1
  C  C29  1  0.03618300  0.48929100  0.68169000  1
  C  C30  1  0.96381700  0.48929100  0.31831000  1
  C  C31  1  0.53618300  0.98929100  0.68169000  1
  C  C32  1  0.46381700  0.98929100  0.31831000  1
  C  C33  1  0.00812000  0.50346900  0.67744200  1
  C  C34  1  0.99188000  0.50346900  0.32255800  1
  C  C35  1  0.50812000  0.00346900  0.67744200  1
  C  C36  1  0.49188000  0.00346900  0.32255800  1
  C  C37  1  0.98052600  0.51666200  0.73737200  1
  C  C38  1  0.01947400  0.51666200  0.26262800  1
  C  C39  1  0.48052600  0.01666200  0.73737200  1
  C  C40  1  0.51947400  0.01666200  0.26262800  1
  C  C41  1  0.98000300  0.51514500  0.80163200  1
  C  C42  1  0.01999700  0.51514500  0.19836800  1
  C  C43  1  0.48000300  0.01514500  0.80163200  1
  C  C44  1  0.51999700  0.01514500  0.19836800  1
  C  C45  1  0.00711800  0.50054900  0.80724100  1
  C  C46  1  0.99288200  0.50054900  0.19275900  1
  C  C47  1  0.50711800  0.00054900  0.80724100  1
  C  C48  1  0.49288200  0.00054900  0.19275900  1
  C  C49  1  0.37767900  0.49649600  0.06377900  1
  C  C50  1  0.62232100  0.49649600  0.93622100  1
  C  C51  1  0.87767900  0.99649600  0.06377900  1
  C  C52  1  0.12232100  0.99649600  0.93622100  1
  C  C53  1  0.34198900  0.49654300  0.09827400  1
  C  C54  1  0.65801100  0.49654300  0.90172600  1
  C  C55  1  0.84198900  0.99654300  0.09827400  1
  C  C56  1  0.15801100  0.99654300  0.90172600  1
  C  C57  1  0.32356200  0.50006200  0.17118300  1
  C  C58  1  0.67643800  0.50006200  0.82881700  1
  C  C59  1  0.82356200  0.00006200  0.17118300  1
  C  C60  1  0.17643800  0.00006200  0.82881700  1
  C  C61  1  0.34147600  0.50330200  0.20897600  1
  C  C62  1  0.65852400  0.50330200  0.79102400  1
  C  C63  1  0.84147600  0.00330200  0.20897600  1
  C  C64  1  0.15852400  0.00330200  0.79102400  1
  C  C65  1  0.37715800  0.50350800  0.17442900  1
  C  C66  1  0.62284200  0.50350800  0.82557100  1
  C  C67  1  0.87715800  0.00350800  0.17442900  1
  C  C68  1  0.12284200  0.00350800  0.82557100  1
  C  C69  1  0.39549200  0.50039900  0.10152400  1
  C  C70  1  0.60450800  0.50039900  0.89847500  1
  C  C71  1  0.89549200  0.00039900  0.10152400  1
  C  C72  1  0.10450800  0.00039900  0.89847500  1
  C  C73  1  0.26739000  0.52183800  0.26587200  1
  C  C74  1  0.73261100  0.52183800  0.73412800  1
  C  C75  1  0.76739000  0.02183800  0.26587200  1
  C  C76  1  0.23261100  0.02183800  0.73412800  1
  C  C77  1  0.23171900  0.52225400  0.30055400  1
  C  C78  1  0.76828100  0.52225400  0.69944500  1
  C  C79  1  0.73171900  0.02225400  0.30055400  1
  C  C80  1  0.26828100  0.02225400  0.69944500  1
  C  C81  1  0.21342200  0.50142400  0.27789700  1
  C  C82  1  0.78657800  0.50142400  0.72210300  1
  C  C83  1  0.71342200  0.00142400  0.27789700  1
  C  C84  1  0.28657800  0.00142400  0.72210300  1
  C  C85  1  0.23147500  0.48008000  0.22001300  1
  C  C86  1  0.76852500  0.48008000  0.77998700  1
  C  C87  1  0.73147500  0.98008000  0.22001300  1
  C  C88  1  0.26852500  0.98008000  0.77998700  1
  C  C89  1  0.26717000  0.47956800  0.18547100  1
  C  C90  1  0.73283000  0.47956800  0.81452900  1
  C  C91  1  0.76717000  0.97956800  0.18547100  1
  C  C92  1  0.23283000  0.97956800  0.81452900  1
  C  C93  1  0.28545500  0.50046100  0.20807300  1
  C  C94  1  0.71454500  0.50046100  0.79192700  1
  C  C95  1  0.78545500  0.00046100  0.20807300  1
  C  C96  1  0.21454500  0.00046100  0.79192700  1
  C  C97  1  0.15672700  0.47177600  0.32408000  1
  C  C98  1  0.84327300  0.47177600  0.67592000  1
  C  C99  1  0.65672700  0.97177600  0.32408000  1
  C  C100  1  0.34327300  0.97177600  0.67592000  1
  C  C101  1  0.12103100  0.47221300  0.35979000  1
  C  C102  1  0.87896900  0.47221300  0.64020900  1
  C  C103  1  0.62103100  0.97221300  0.35979000  1
  C  C104  1  0.37896900  0.97221300  0.64020900  1
  C  C105  1  0.10340400  0.50276400  0.38745900  1
  C  C106  1  0.89659600  0.50276400  0.61254100  1
  C  C107  1  0.60340400  0.00276400  0.38745900  1
  C  C108  1  0.39659600  0.00276400  0.61254100  1
  C  C109  1  0.12189800  0.53292000  0.37833600  1
  C  C110  1  0.87810200  0.53292000  0.62166400  1
  C  C111  1  0.62189800  0.03292000  0.37833600  1
  C  C112  1  0.37810200  0.03292000  0.62166400  1
  C  C113  1  0.15756800  0.53252500  0.34215300  1
  C  C114  1  0.84243200  0.53252500  0.65784700  1
  C  C115  1  0.65756800  0.03252500  0.34215300  1
  C  C116  1  0.34243200  0.03252500  0.65784700  1
  C  C117  1  0.17531500  0.50192000  0.31508900  1
  C  C118  1  0.82468500  0.50192000  0.68491100  1
  C  C119  1  0.67531500  0.00192000  0.31508900  1
  C  C120  1  0.32468500  0.00192000  0.68491100  1
  C  C121  1  0.00000000  0.43610200  0.00000000  1
  C  C122  1  0.50000000  0.93610200  0.00000000  1
  C  C123  1  0.00498000  0.50071100  0.87740000  1
  C  C124  1  0.99502100  0.50071100  0.12260000  1
  C  C125  1  0.50498000  0.00071100  0.87740000  1
  C  C126  1  0.49502100  0.00071100  0.12260000  1
  C  C127  1  0.00000000  0.56755100  0.00000000  1
  C  C128  1  0.50000000  0.06755100  0.00000000  1
  C  C129  1  0.50000000  0.43485200  0.00000000  1
  C  C130  1  0.00000000  0.93485200  0.00000000  1
  C  C131  1  0.43345400  0.50089300  0.06474000  1
  C  C132  1  0.56654600  0.50089300  0.93526000  1
  C  C133  1  0.93345400  0.00089300  0.06474000  1
  C  C134  1  0.06654600  0.00089300  0.93526000  1
  C  C135  1  0.50000000  0.56795500  0.00000000  1
  C  C136  1  0.00000000  0.06795500  0.00000000  1
  C  C137  1  0.51992400  0.62449300  0.02333200  1
  C  C138  1  0.48007600  0.62449300  0.97666800  1
  C  C139  1  0.01992400  0.12449300  0.02333200  1
  C  C140  1  0.98007600  0.12449300  0.97666800  1
  C  C141  1  0.51955100  0.66021400  0.02340400  1
  C  C142  1  0.48044900  0.66021400  0.97659500  1
  C  C143  1  0.01955100  0.16021400  0.02340400  1
  C  C144  1  0.98044900  0.16021400  0.97659500  1
  C  C145  1  0.50000000  0.67815900  0.00000000  1
  C  C146  1  0.00000000  0.17815900  0.00000000  1
  C  C147  1  0.50000000  0.60612200  0.00000000  1
  C  C148  1  0.00000000  0.10612200  0.00000000  1
  C  C149  1  0.46930800  0.73411900  0.02461700  1
  C  C150  1  0.53069200  0.73411900  0.97538200  1
  C  C151  1  0.96930800  0.23411900  0.02461700  1
  C  C152  1  0.03069200  0.23411900  0.97538200  1
  C  C153  1  0.96926500  0.26976200  0.02503400  1
  C  C154  1  0.03073500  0.26976200  0.97496600  1
  C  C155  1  0.46926500  0.76976200  0.02503400  1
  C  C156  1  0.53073500  0.76976200  0.97496600  1
  C  C157  1  0.00000000  0.28791600  0.00000000  1
  C  C158  1  0.50000000  0.78791600  0.00000000  1
  C  C159  1  0.50000000  0.71608500  0.00000000  1
  C  C160  1  0.00000000  0.21608500  0.00000000  1
  C  C161  1  0.02293800  0.34405600  0.01429300  1
  C  C162  1  0.97706200  0.34405600  0.98570700  1
  C  C163  1  0.52293800  0.84405600  0.01429300  1
  C  C164  1  0.47706200  0.84405600  0.98570700  1
  C  C165  1  0.02293300  0.37976800  0.01502800  1
  C  C166  1  0.97706700  0.37976800  0.98497200  1
  C  C167  1  0.52293300  0.87976800  0.01502800  1
  C  C168  1  0.47706700  0.87976800  0.98497200  1
  C  C169  1  0.00000000  0.39803000  0.00000000  1
  C  C170  1  0.50000000  0.89803000  0.00000000  1
  C  C171  1  0.00000000  0.32598200  0.00000000  1
  C  C172  1  0.50000000  0.82598200  0.00000000  1
  C  C173  1  0.50795000  0.37897100  0.93869500  1
  C  C174  1  0.49205000  0.37897100  0.06130500  1
  C  C175  1  0.00795000  0.87897100  0.93869500  1
  C  C176  1  0.99205000  0.87897100  0.06130500  1
  C  C177  1  0.50919400  0.34332500  0.93757500  1
  C  C178  1  0.49080700  0.34332500  0.06242500  1
  C  C179  1  0.00919400  0.84332500  0.93757500  1
  C  C180  1  0.99080700  0.84332500  0.06242500  1
  C  C181  1  0.50000000  0.32508600  0.00000000  1
  C  C182  1  0.00000000  0.82508600  0.00000000  1
  C  C183  1  0.50000000  0.39694400  0.00000000  1
  C  C184  1  0.00000000  0.89694400  0.00000000  1
  C  C185  1  0.52124100  0.26915000  0.01932600  1
  C  C186  1  0.47875900  0.26915000  0.98067300  1
  C  C187  1  0.02124100  0.76915000  0.01932600  1
  C  C188  1  0.97875900  0.76915000  0.98067300  1
  C  C189  1  0.02111700  0.73352000  0.01974200  1
  C  C190  1  0.97888300  0.73352000  0.98025800  1
  C  C191  1  0.52111700  0.23352000  0.01974200  1
  C  C192  1  0.47888300  0.23352000  0.98025800  1
  C  C193  1  0.00000000  0.71536900  0.00000000  1
  C  C194  1  0.50000000  0.21536900  0.00000000  1
  C  C195  1  0.50000000  0.28713400  0.00000000  1
  C  C196  1  0.00000000  0.78713400  0.00000000  1
  C  C197  1  0.03032000  0.65913400  0.98056900  1
  C  C198  1  0.96968000  0.65913400  0.01943100  1
  C  C199  1  0.53032000  0.15913400  0.98056900  1
  C  C200  1  0.46968000  0.15913400  0.01943100  1
  C  C201  1  0.03028100  0.62348700  0.98096700  1
  C  C202  1  0.96971900  0.62348700  0.01903200  1
  C  C203  1  0.53028100  0.12348700  0.98096700  1
  C  C204  1  0.46971900  0.12348700  0.01903200  1
  C  C205  1  0.00000000  0.60545100  0.00000000  1
  C  C206  1  0.50000000  0.10545100  0.00000000  1
  C  C207  1  0.00000000  0.67729400  0.00000000  1
  C  C208  1  0.50000000  0.17729400  0.00000000  1
  C  C209  1  0.54322600  0.60738700  0.04466800  1
  C  C210  1  0.54826900  0.61840500  0.09982200  1
  C  C211  1  0.57297300  0.59728600  0.09924200  1
  C  C212  1  0.58152900  0.57505000  0.04352400  1
  C  C213  1  0.45677400  0.60738700  0.95533200  1
  C  C214  1  0.45173100  0.61840500  0.90017800  1
  C  C215  1  0.42702700  0.59728600  0.90075800  1
  C  C216  1  0.41847100  0.57505000  0.95647600  1
  C  C217  1  0.04322600  0.10738700  0.04466800  1
  C  C218  1  0.04826900  0.11840500  0.09982200  1
  C  C219  1  0.07297300  0.09728600  0.09924200  1
  C  C220  1  0.08152900  0.07505000  0.04352400  1
  C  C221  1  0.95677400  0.10738700  0.95533200  1
  C  C222  1  0.95173100  0.11840500  0.90017800  1
  C  C223  1  0.92702700  0.09728600  0.90075800  1
  C  C224  1  0.91847100  0.07505000  0.95647600  1
  C  C225  1  0.04580700  0.39721400  0.03695300  1
  C  C226  1  0.07893900  0.38659400  0.01778200  1
  C  C227  1  0.09004700  0.40787100  0.05287600  1
  C  C228  1  0.06285700  0.42974300  0.09156600  1
  C  C229  1  0.95419300  0.39721400  0.96304700  1
  C  C230  1  0.92106100  0.38659400  0.98221700  1
  C  C231  1  0.90995300  0.40787100  0.94712400  1
  C  C232  1  0.93714300  0.42974300  0.90843400  1
  C  C233  1  0.54580700  0.89721400  0.03695300  1
  C  C234  1  0.57893900  0.88659400  0.01778200  1
  C  C235  1  0.59004700  0.90787100  0.05287600  1
  C  C236  1  0.56285700  0.92974300  0.09156600  1
  C  C237  1  0.45419300  0.89721400  0.96304700  1
  C  C238  1  0.42106100  0.88659400  0.98221700  1
  C  C239  1  0.40995300  0.90787100  0.94712400  1
  C  C240  1  0.43714300  0.92974300  0.90843400  1
  C  C241  1  0.52112000  0.32628200  0.86871700  1
  C  C242  1  0.54515200  0.30004000  0.84214600  1
  C  C243  1  0.54985100  0.29381300  0.77602700  1
  C  C244  1  0.52879900  0.31690000  0.76633900  1
  C  C245  1  0.47888000  0.32628200  0.13128300  1
  C  C246  1  0.45484800  0.30004000  0.15785400  1
  C  C247  1  0.45014900  0.29381300  0.22397200  1
  C  C248  1  0.47120200  0.31690000  0.23366000  1
  C  C249  1  0.02112000  0.82628200  0.86871700  1
  C  C250  1  0.04515200  0.80004000  0.84214600  1
  C  C251  1  0.04985100  0.79381300  0.77602700  1
  C  C252  1  0.02879900  0.81690000  0.76633900  1
  C  C253  1  0.97888000  0.82628200  0.13128300  1
  C  C254  1  0.95484800  0.80004000  0.15785400  1
  C  C255  1  0.95014900  0.79381300  0.22397200  1
  C  C256  1  0.97120200  0.81690000  0.23366000  1
  O  O1  1  0.04994200  0.53167900  0.46157600  1
  O  O2  1  0.95005800  0.53167900  0.53842400  1
  O  O3  1  0.54994200  0.03167900  0.46157600  1
  O  O4  1  0.45005800  0.03167900  0.53842400  1
  O  O5  1  0.04854200  0.47466000  0.42877300  1
  O  O6  1  0.95145800  0.47466000  0.57122700  1
  O  O7  1  0.54854200  0.97466000  0.42877300  1
  O  O8  1  0.45145800  0.97466000  0.57122700  1
  O  O9  1  0.99407500  0.53168300  0.59556400  1
  O  O10  1  0.00592500  0.53168300  0.40443600  1
  O  O11  1  0.49407500  0.03168300  0.59556400  1
  O  O12  1  0.50592500  0.03168300  0.40443600  1
  O  O13  1  0.01312000  0.47465800  0.57431100  1
  O  O14  1  0.98688000  0.47465800  0.42568800  1
  O  O15  1  0.51312000  0.97465800  0.57431100  1
  O  O16  1  0.48688000  0.97465800  0.42568800  1
  O  O17  1  0.97076600  0.45242200  0.04131400  1
  O  O18  1  0.02923400  0.45242200  0.95868600  1
  O  O19  1  0.47076600  0.95242200  0.04131400  1
  O  O20  1  0.52923400  0.95242200  0.95868600  1
  O  O21  1  0.97494900  0.49275800  0.93240200  1
  O  O22  1  0.02505100  0.49275800  0.06759700  1
  O  O23  1  0.47494900  0.99275800  0.93240200  1
  O  O24  1  0.52505100  0.99275800  0.06759700  1
  O  O25  1  0.03211100  0.51083400  0.88336400  1
  O  O26  1  0.96788900  0.51083400  0.11663600  1
  O  O27  1  0.53211100  0.01083400  0.88336400  1
  O  O28  1  0.46788900  0.01083400  0.11663600  1
  O  O29  1  0.97204000  0.55130200  0.00764200  1
  O  O30  1  0.02796000  0.55130200  0.99235800  1
  O  O31  1  0.47204000  0.05130200  0.00764200  1
  O  O32  1  0.52796000  0.05130200  0.99235800  1
  O  O33  1  0.49801200  0.45107900  0.05537700  1
  O  O34  1  0.50198800  0.45107900  0.94462300  1
  O  O35  1  0.99801200  0.95107900  0.05537700  1
  O  O36  1  0.00198800  0.95107900  0.94462300  1
  O  O37  1  0.44935200  0.50282100  0.10286500  1
  O  O38  1  0.55064800  0.50282100  0.89713500  1
  O  O39  1  0.94935200  0.00282100  0.10286500  1
  O  O40  1  0.05064800  0.00282100  0.89713500  1
  O  O41  1  0.44996700  0.50238900  0.99524000  1
  O  O42  1  0.55003300  0.50238900  0.00475900  1
  O  O43  1  0.94996700  0.00238900  0.99524000  1
  O  O44  1  0.05003300  0.00238900  0.00475900  1
  O  O45  1  0.49848400  0.55163100  0.05505600  1
  O  O46  1  0.50151600  0.55163100  0.94494400  1
  O  O47  1  0.99848400  0.05163100  0.05505600  1
  O  O48  1  0.00151600  0.05163100  0.94494400  1
  O  O49  1  0.56361000  0.58111100  0.00973600  1
  O  O50  1  0.43639100  0.58111100  0.99026300  1
  O  O51  1  0.06361000  0.08111100  0.00973600  1
  O  O52  1  0.93639100  0.08111100  0.99026300  1
  O  O53  1  0.03571400  0.42327200  0.08242100  1
  O  O54  1  0.96428600  0.42327200  0.91757900  1
  O  O55  1  0.53571400  0.92327200  0.08242100  1
  O  O56  1  0.46428600  0.92327200  0.91757900  1
  O  O57  1  0.51149200  0.33702300  0.82229700  1
  O  O58  1  0.48850800  0.33702300  0.17770300  1
  O  O59  1  0.01149200  0.83702300  0.82229700  1
  O  O60  1  0.98850800  0.83702300  0.17770300  1
