# generated using pymatgen
data_Zn2H20C33N2O9
_symmetry_space_group_name_H-M   'P 1'
_cell_length_a   8.49623500
_cell_length_b   10.91450000
_cell_length_c   12.04921100
_cell_angle_alpha   107.08011500
_cell_angle_beta   86.54744400
_cell_angle_gamma   90.03599400
_symmetry_Int_Tables_number   1
_chemical_formula_structural   Zn2H20C33N2O9
_chemical_formula_sum   'Zn2 H20 C33 N2 O9'
_cell_volume   1065.95968992
_cell_formula_units_Z   1
loop_
 _symmetry_equiv_pos_site_id
 _symmetry_equiv_pos_as_xyz
  1  'x, y, z'
loop_
 _atom_site_type_symbol
 _atom_site_label
 _atom_site_symmetry_multiplicity
 _atom_site_fract_x
 _atom_site_fract_y
 _atom_site_fract_z
 _atom_site_occupancy
  Zn  Zn1  1  0.51944100  0.92509600  0.02332300  1
  Zn  Zn2  1  0.50957800  0.00671400  0.28313400  1
  H  H1  1  0.40127300  0.58754200  0.17138500  1
  H  H2  1  0.40523500  0.36657300  0.17304900  1
  H  H3  1  0.75717900  0.37110900  0.15559700  1
  H  H4  1  0.75925800  0.54414700  0.12380500  1
  H  H5  1  0.00319500  0.88477100  0.17773600  1
  H  H6  1  0.03230000  0.04734800  0.13169000  1
  H  H7  1  0.52324400  0.27872800  0.83350200  1
  H  H8  1  0.51320100  0.32128400  0.65750800  1
  H  H9  1  0.49928800  0.86724200  0.44426100  1
  H  H10  1  0.49656600  0.68868700  0.87383200  1
  H  H11  1  0.46109200  0.74377100  0.54483100  1
  H  H12  1  0.45111800  0.60645500  0.66853000  1
  H  H13  1  0.53170000  0.13871400  0.94561600  1
  H  H14  1  0.74171400  0.31875000  0.36151900  1
  H  H15  1  0.75935100  0.25924500  0.48491100  1
  H  H16  1  0.58847600  0.50995900  0.49360800  1
  H  H17  1  0.66437000  0.46407100  0.61422500  1
  H  H18  1  0.93688900  0.46055200  0.52266700  1
  H  H19  1  0.84084600  0.61670600  0.56477100  1
  H  H20  1  0.85690100  0.52294400  0.41355900  1
  C  C1  1  0.01021100  0.52905900  0.15069500  1
  C  C2  1  0.15121700  0.59647200  0.15855300  1
  C  C3  1  0.29162000  0.53653100  0.16558800  1
  C  C4  1  0.29370900  0.41105400  0.16721500  1
  C  C5  1  0.15546900  0.34359500  0.16184800  1
  C  C6  1  0.01203400  0.40175400  0.15399700  1
  C  C7  1  0.15910100  0.21650500  0.16156300  1
  C  C8  1  0.02441600  0.14760700  0.14489100  1
  C  C9  1  0.88147900  0.20373100  0.14538700  1
  C  C10  1  0.87359200  0.33145800  0.15186600  1
  C  C11  1  0.87102600  0.59017900  0.13751700  1
  C  C12  1  0.87143600  0.71774100  0.14422300  1
  C  C13  1  0.00786000  0.78412600  0.16287600  1
  C  C14  1  0.14941300  0.72481100  0.16173300  1
  C  C15  1  0.74092900  0.12634200  0.14655300  1
  C  C16  1  0.72789900  0.79068000  0.14367200  1
  C  C17  1  0.29071500  0.80273800  0.16029500  1
  C  C18  1  0.30193100  0.14251500  0.16283900  1
  C  C19  1  0.51365500  0.22054100  0.61141300  1
  C  C20  1  0.50009200  0.75361200  0.82120600  1
  C  C21  1  0.47686500  0.70653300  0.70470100  1
  C  C22  1  0.48140000  0.78639100  0.63510600  1
  C  C23  1  0.50301500  0.91666200  0.68378200  1
  C  C24  1  0.51677700  0.96228100  0.80437400  1
  C  C25  1  0.50559900  0.00322300  0.61638200  1
  C  C26  1  0.51166800  0.13270500  0.67255300  1
  C  C27  1  0.51820500  0.17697300  0.79046700  1
  C  C28  1  0.52364300  0.09375000  0.85527600  1
  C  C29  1  0.50235200  0.96625700  0.49475600  1
  C  C30  1  0.52037000  0.18077700  0.49237800  1
  C  C31  1  0.68615200  0.31873000  0.44675700  1
  C  C32  1  0.68310100  0.45752100  0.52112900  1
  C  C33  1  0.83982800  0.51814200  0.50417000  1
  N  N1  1  0.50922400  0.05462600  0.43552700  1
  N  N2  1  0.51923300  0.87976000  0.87074300  1
  O  O1  1  0.68482800  0.11589700  0.24683400  1
  O  O2  1  0.69051100  0.05682700  0.04750600  1
  O  O3  1  0.68476900  0.80218700  0.04363700  1
  O  O4  1  0.66974500  0.86216200  0.24553600  1
  O  O5  1  0.34614500  0.81335100  0.05900000  1
  O  O6  1  0.34088500  0.87297500  0.26007200  1
  O  O7  1  0.34423600  0.12914500  0.26187900  1
  O  O8  1  0.35867700  0.06928000  0.06236400  1
  O  O9  1  0.53263100  0.27065700  0.43301300  1
