# generated using pymatgen
data_ZnH17C30NO5
_symmetry_space_group_name_H-M   'P 1'
_cell_length_a   12.11654000
_cell_length_b   15.26346200
_cell_length_c   11.84864900
_cell_angle_alpha   90.00000000
_cell_angle_beta   107.98912600
_cell_angle_gamma   90.00000000
_symmetry_Int_Tables_number   1
_chemical_formula_structural   ZnH17C30NO5
_chemical_formula_sum   'Zn2 H34 C60 N2 O10'
_cell_volume   2084.17221761
_cell_formula_units_Z   2
loop_
 _symmetry_equiv_pos_site_id
 _symmetry_equiv_pos_as_xyz
  1  'x, y, z'
loop_
 _atom_site_type_symbol
 _atom_site_label
 _atom_site_symmetry_multiplicity
 _atom_site_fract_x
 _atom_site_fract_y
 _atom_site_fract_z
 _atom_site_occupancy
  Zn  Zn1  1  0.86963300  0.49691400  0.47861200  1
  Zn  Zn2  1  0.12853600  0.49635100  0.54852900  1
  H  H1  1  0.19247800  0.17103300  0.95267500  1
  H  H2  1  0.19200900  0.84263500  0.91792300  1
  H  H3  1  0.82382900  0.28039500  0.68344900  1
  H  H4  1  0.82724400  0.68675800  0.72778700  1
  H  H5  1  0.19304500  0.29766800  0.82722600  1
  H  H6  1  0.19337000  0.71407200  0.79653000  1
  H  H7  1  0.81741600  0.13620600  0.13542200  1
  H  H8  1  0.82269200  0.86519600  0.15106100  1
  H  H9  1  0.16458600  0.32167500  0.27506500  1
  H  H10  1  0.16003200  0.66822100  0.26719000  1
  H  H11  1  0.81296800  0.26536600  0.25476500  1
  H  H12  1  0.81967400  0.73728400  0.27313500  1
  H  H13  1  0.16701700  0.19326100  0.15455300  1
  H  H14  1  0.16101100  0.79534700  0.14333100  1
  H  H15  1  0.02832600  0.99571300  0.81783400  1
  H  H16  1  0.97749000  0.99812000  0.21306100  1
  H  H17  1  0.28831000  0.49037600  0.76885200  1
  H  H18  1  0.67792200  0.48841000  0.80501400  1
  H  H19  1  0.49863400  0.48606700  0.84036900  1
  H  H20  1  0.28857100  0.50009400  0.41682700  1
  H  H21  1  0.71820700  0.50019300  0.26153300  1
  H  H22  1  0.38678600  0.49959500  0.30131800  1
  H  H23  1  0.50889200  0.50175200  0.17786800  1
  H  H24  1  0.79202700  0.49378700  0.67729800  1
  H  H25  1  0.56475100  0.11157200  0.74396500  1
  H  H26  1  0.43193600  0.06814600  0.55159500  1
  H  H27  1  0.50397600  0.04649500  0.38109700  1
  H  H28  1  0.71103000  0.06716300  0.40452600  1
  H  H29  1  0.84578400  0.10894700  0.59609000  1
  H  H30  1  0.57031400  0.85806900  0.81515000  1
  H  H31  1  0.43248000  0.76943500  0.87800500  1
  H  H32  1  0.49383200  0.63025900  0.98285900  1
  H  H33  1  0.69503900  0.57975100  0.02447500  1
  H  H34  1  0.83488500  0.66723000  0.96394500  1
  C  C1  1  0.00812000  0.29863300  0.74746200  1
  C  C2  1  0.01049500  0.69030800  0.75483300  1
  C  C3  1  0.01156500  0.07502000  0.95962700  1
  C  C4  1  0.01157600  0.91769000  0.96087600  1
  C  C5  1  0.11115100  0.19624200  0.89521000  1
  C  C6  1  0.11215700  0.80721300  0.87817800  1
  C  C7  1  0.90530300  0.25749000  0.74323900  1
  C  C8  1  0.90855000  0.71875700  0.77240000  1
  C  C9  1  0.11135500  0.26742300  0.82351800  1
  C  C10  1  0.11273100  0.73424900  0.80965800  1
  C  C11  1  0.00829900  0.15574200  0.89201400  1
  C  C12  1  0.01037100  0.83619000  0.89484000  1
  C  C13  1  0.90492600  0.18504200  0.81285600  1
  C  C14  1  0.90778800  0.79117100  0.84238100  1
  C  C15  1  0.98802200  0.30349400  0.27244200  1
  C  C16  1  0.98923000  0.69322800  0.27791000  1
  C  C17  1  0.99684900  0.07582300  0.07104900  1
  C  C18  1  0.99566800  0.91840500  0.07189700  1
  C  C19  1  0.89276100  0.17824900  0.16347800  1
  C  C20  1  0.89600700  0.82100600  0.17467200  1
  C  C21  1  0.08670600  0.28269300  0.24281200  1
  C  C22  1  0.08451500  0.71014700  0.24054800  1
  C  C23  1  0.89037000  0.25154700  0.23090300  1
  C  C24  1  0.89425900  0.74836300  0.24327900  1
  C  C25  1  0.99112100  0.15785400  0.13337600  1
  C  C26  1  0.99065100  0.83740100  0.13637300  1
  C  C27  1  0.08796700  0.21049900  0.17326400  1
  C  C28  1  0.08475700  0.78151000  0.16925800  1
  C  C29  1  0.01990600  0.99609100  0.90604700  1
  C  C30  1  0.98763700  0.99747600  0.12556400  1
  C  C31  1  0.00801100  0.61822000  0.67182100  1
  C  C32  1  0.00658900  0.37189900  0.66697300  1
  C  C33  1  0.99181700  0.62056900  0.35944500  1
  C  C34  1  0.99048700  0.37572200  0.35489400  1
  C  C35  1  0.45470300  0.48961500  0.74605400  1
  C  C36  1  0.66635900  0.49934500  0.32100000  1
  C  C37  1  0.54793300  0.50022100  0.27312700  1
  C  C38  1  0.47872500  0.49907700  0.34529200  1
  C  C39  1  0.52859700  0.49694400  0.46774000  1
  C  C40  1  0.65005100  0.49606900  0.51336000  1
  C  C41  1  0.46099000  0.49553700  0.54595700  1
  C  C42  1  0.51676400  0.49198000  0.66679500  1
  C  C43  1  0.63504400  0.49097300  0.71042700  1
  C  C44  1  0.70060300  0.49373500  0.63537200  1
  C  C45  1  0.33936000  0.49735000  0.50875500  1
  C  C46  1  0.33627300  0.49186700  0.70571200  1
  C  C47  1  0.79423300  0.14017600  0.80079400  1
  C  C48  1  0.71460200  0.11545500  0.68366700  1
  C  C49  1  0.59827700  0.10214300  0.67023500  1
  C  C50  1  0.52286500  0.07780900  0.56167600  1
  C  C51  1  0.56315500  0.06573600  0.46608700  1
  C  C52  1  0.67913800  0.07756100  0.47920000  1
  C  C53  1  0.75484200  0.10204800  0.58754800  1
  C  C54  1  0.79601800  0.82492800  0.84883600  1
  C  C55  1  0.71252500  0.76868900  0.88285800  1
  C  C56  1  0.59920000  0.79689900  0.86061600  1
  C  C57  1  0.52086700  0.74702900  0.89591700  1
  C  C58  1  0.55517600  0.66904100  0.95461200  1
  C  C59  1  0.66787900  0.64069000  0.97764500  1
  C  C60  1  0.74644000  0.69011800  0.94201000  1
  N  N1  1  0.28043000  0.49583300  0.58875600  1
  N  N2  1  0.71728800  0.49735300  0.43940700  1
  O  O1  1  0.10587300  0.59019800  0.65918200  1
  O  O2  1  0.10472800  0.40062500  0.65605000  1
  O  O3  1  0.90688200  0.58744000  0.60877000  1
  O  O4  1  0.90577600  0.40338400  0.60470700  1
  O  O5  1  0.89323600  0.59243600  0.37084800  1
  O  O6  1  0.89206600  0.40378000  0.36699500  1
  O  O7  1  0.09339200  0.58895100  0.42103500  1
  O  O8  1  0.09224900  0.40616900  0.41791000  1
  O  O9  1  0.76525200  0.12641600  0.88896300  1
  O  O10  1  0.77026500  0.90105500  0.82199000  1
