# generated using pymatgen
data_Zn2H15C25N3O8
_symmetry_space_group_name_H-M   'P 1'
_cell_length_a   6.58632400
_cell_length_b   12.35893700
_cell_length_c   12.33041700
_cell_angle_alpha   90.78372700
_cell_angle_beta   95.18998700
_cell_angle_gamma   80.33168700
_symmetry_Int_Tables_number   1
_chemical_formula_structural   Zn2H15C25N3O8
_chemical_formula_sum   'Zn2 H15 C25 N3 O8'
_cell_volume   985.38185006
_cell_formula_units_Z   1
loop_
 _symmetry_equiv_pos_site_id
 _symmetry_equiv_pos_as_xyz
  1  'x, y, z'
loop_
 _atom_site_type_symbol
 _atom_site_label
 _atom_site_symmetry_multiplicity
 _atom_site_fract_x
 _atom_site_fract_y
 _atom_site_fract_z
 _atom_site_occupancy
  Zn  Zn1  1  0.52439800  0.50357600  0.12560000  1
  Zn  Zn2  1  0.46158300  0.49670400  0.88292100  1
  H  H1  1  0.47434700  0.15321900  0.06759200  1
  H  H2  1  0.51271700  0.85545500  0.95423100  1
  H  H3  1  0.35399100  0.97975100  0.06121700  1
  H  H4  1  0.25876300  0.84485500  0.02984900  1
  H  H5  1  0.46084700  0.05030400  0.93781400  1
  H  H6  1  0.27966200  0.48331500  0.48035300  1
  H  H7  1  0.81224200  0.60402800  0.53569600  1
  H  H8  1  0.91562200  0.46462800  0.50137600  1
  H  H9  1  0.68718500  0.53992600  0.70192400  1
  H  H10  1  0.89399000  0.30995300  0.63323800  1
  H  H11  1  0.61860700  0.35632400  0.61439100  1
  H  H12  1  0.74982800  0.34447300  0.75049600  1
  H  H13  1  0.13173500  0.43360200  0.66927100  1
  H  H14  1  0.02470800  0.46439700  0.79855500  1
  H  H15  1  0.04497900  0.57477200  0.70714000  1
  C  C1  1  0.17821900  0.24769000  0.02367200  1
  C  C2  1  0.31227900  0.15131600  0.04659100  1
  C  C3  1  0.24270600  0.05247600  0.04167400  1
  C  C4  1  0.96993600  0.24583400  0.00071700  1
  C  C5  1  0.90036500  0.14614900  0.99252800  1
  C  C6  1  0.03668300  0.04883900  0.01139700  1
  C  C7  1  0.96313000  0.94995500  0.00245100  1
  C  C8  1  0.09381400  0.85032400  0.01618000  1
  C  C9  1  0.01742800  0.75321500  0.00764700  1
  C  C10  1  0.62376700  0.04946500  0.95921200  1
  C  C11  1  0.75499400  0.95088200  0.97706600  1
  C  C12  1  0.67731700  0.85361800  0.97038500  1
  C  C13  1  0.80779100  0.75422000  0.98661900  1
  C  C14  1  0.26631300  0.34750600  0.01656100  1
  C  C15  1  0.81708900  0.34638500  0.00048600  1
  C  C16  1  0.71761300  0.65418000  0.99231200  1
  C  C17  1  0.16761300  0.65253100  0.00791800  1
  C  C18  1  0.42108200  0.49216400  0.52934400  1
  C  C19  1  0.58762600  0.50476900  0.47964400  1
  C  C20  1  0.57321300  0.50646400  0.36258900  1
  C  C21  1  0.42239500  0.49260400  0.64607500  1
  C  C22  1  0.78944000  0.51739000  0.54045000  1
  C  C23  1  0.80094600  0.48319400  0.65856100  1
  C  C24  1  0.76264700  0.36595200  0.66468000  1
  C  C25  1  0.01490000  0.48940700  0.71195200  1
  N  N1  1  0.69780900  0.14464700  0.96708400  1
  N  N2  1  0.42629900  0.49314000  0.74011500  1
  N  N3  1  0.56021900  0.50708900  0.26838500  1
  O  O1  1  0.30039800  0.37920500  0.91949800  1
  O  O2  1  0.34142600  0.38815700  0.10728600  1
  O  O3  1  0.76132700  0.38451400  0.09514800  1
  O  O4  1  0.71845300  0.38252600  0.90748300  1
  O  O5  1  0.68486700  0.62135000  0.08900300  1
  O  O6  1  0.64406600  0.61252700  0.90149300  1
  O  O7  1  0.22425400  0.61547300  0.91316300  1
  O  O8  1  0.26719100  0.61748200  0.10117900  1
