# generated using pymatgen
data_ZnH12C26NO5
_symmetry_space_group_name_H-M   'P 1'
_cell_length_a   8.54606700
_cell_length_b   13.05694000
_cell_length_c   17.45955700
_cell_angle_alpha   90.61275100
_cell_angle_beta   93.32879000
_cell_angle_gamma   86.45963800
_symmetry_Int_Tables_number   1
_chemical_formula_structural   ZnH12C26NO5
_chemical_formula_sum   'Zn2 H24 C52 N2 O10'
_cell_volume   1941.18474873
_cell_formula_units_Z   2
loop_
 _symmetry_equiv_pos_site_id
 _symmetry_equiv_pos_as_xyz
  1  'x, y, z'
loop_
 _atom_site_type_symbol
 _atom_site_label
 _atom_site_symmetry_multiplicity
 _atom_site_fract_x
 _atom_site_fract_y
 _atom_site_fract_z
 _atom_site_occupancy
  Zn  Zn1  1  0.55289100  0.51137100  0.91461800  1
  Zn  Zn2  1  0.56869400  0.49709400  0.08530800  1
  H  H1  1  0.63978300  0.81395600  0.00582600  1
  H  H2  1  0.60669400  0.99779900  0.99924400  1
  H  H3  1  0.04450100  0.43317200  0.98470700  1
  H  H4  1  0.24239800  0.00398400  0.01228100  1
  H  H5  1  0.71217900  0.16272800  0.99853400  1
  H  H6  1  0.27440200  0.85197700  0.98331600  1
  H  H7  1  0.07433300  0.57751100  0.03374400  1
  H  H8  1  0.55519100  0.67692200  0.80626800  1
  H  H9  1  0.56223800  0.76546200  0.68579300  1
  H  H10  1  0.53938300  0.25863300  0.69220300  1
  H  H11  1  0.57269400  0.85200300  0.56572200  1
  H  H12  1  0.58100600  0.84578700  0.42577500  1
  H  H13  1  0.54256000  0.16316500  0.57738500  1
  H  H14  1  0.58343700  0.74927000  0.30839900  1
  H  H15  1  0.56138600  0.24394700  0.31117500  1
  H  H16  1  0.56756400  0.33151300  0.19320400  1
  H  H17  1  0.54050200  0.35582400  0.80867900  1
  H  H18  1  0.58138300  0.65256300  0.19163200  1
  H  H19  1  0.65998900  0.11282300  0.39148600  1
  H  H20  1  0.44752100  0.12337900  0.38312100  1
  H  H21  1  0.65962300  0.02132500  0.48604000  1
  H  H22  1  0.38367700  0.07815700  0.93985900  1
  H  H23  1  0.46004400  0.14615000  0.02444000  1
  H  H24  1  0.46908400  0.17353400  0.87054700  1
  C  C1  1  0.02226700  0.86679000  0.00018700  1
  C  C2  1  0.89141000  0.80920000  0.00460300  1
  C  C3  1  0.74285600  0.85723500  0.00256000  1
  C  C4  1  0.72341300  0.96222200  0.99887100  1
  C  C5  1  0.85125100  0.02111600  0.99692500  1
  C  C6  1  0.00085600  0.97421700  0.99763800  1
  C  C7  1  0.82863500  0.12725400  0.99660900  1
  C  C8  1  0.95386100  0.18836400  0.99299200  1
  C  C9  1  0.10398500  0.14180900  0.99072800  1
  C  C10  1  0.12626000  0.03632300  0.99892700  1
  C  C11  1  0.93259000  0.29510400  0.99154200  1
  C  C12  1  0.06173000  0.35154000  0.98765300  1
  C  C13  1  0.21062400  0.30641900  0.98653500  1
  C  C14  1  0.23216300  0.20110600  0.98324500  1
  C  C15  1  0.17014900  0.81484400  0.99594400  1
  C  C16  1  0.18759300  0.71051600  0.00809100  1
  C  C17  1  0.05860300  0.65763600  0.02132300  1
  C  C18  1  0.91019100  0.70372900  0.01287700  1
  C  C19  1  0.34284100  0.37248900  0.99155400  1
  C  C20  1  0.33832200  0.65091300  0.00432900  1
  C  C21  1  0.77742600  0.63744600  0.00842200  1
  C  C22  1  0.78153400  0.35555100  0.99547800  1
  C  C23  1  0.55117900  0.60491200  0.77529700  1
  C  C24  1  0.54271900  0.42603000  0.77668800  1
  C  C25  1  0.56029900  0.69273100  0.65569100  1
  C  C26  1  0.55381700  0.60303000  0.69612600  1
  C  C27  1  0.55145800  0.51065400  0.65737400  1
  C  C28  1  0.54547000  0.42170100  0.69795900  1
  C  C29  1  0.54388100  0.32857500  0.66004000  1
  C  C30  1  0.57133800  0.77890800  0.53610000  1
  C  C31  1  0.56478400  0.68939100  0.57672900  1
  C  C32  1  0.56308400  0.59644900  0.53829400  1
  C  C33  1  0.57609400  0.77541700  0.45734000  1
  C  C34  1  0.57461100  0.68246300  0.41905900  1
  C  C35  1  0.55633600  0.50698100  0.57862500  1
  C  C36  1  0.55505900  0.41382600  0.54039500  1
  C  C37  1  0.54869100  0.32469400  0.58118800  1
  C  C38  1  0.54760600  0.23145200  0.54351900  1
  C  C39  1  0.56826100  0.59284300  0.45956000  1
  C  C40  1  0.56689500  0.49972800  0.42128100  1
  C  C41  1  0.56028900  0.40985100  0.46156600  1
  C  C42  1  0.55882900  0.31649800  0.42305500  1
  C  C43  1  0.55277500  0.22639300  0.46435100  1
  C  C44  1  0.57905700  0.67908000  0.34027300  1
  C  C45  1  0.57728400  0.58606500  0.30220200  1
  C  C46  1  0.57158200  0.49678200  0.34258900  1
  C  C47  1  0.56926100  0.40475600  0.30365800  1
  C  C48  1  0.56318200  0.31464300  0.34360500  1
  C  C49  1  0.57954900  0.58218400  0.22345500  1
  C  C50  1  0.57152300  0.40332200  0.22444300  1
  C  C51  1  0.55217000  0.12473100  0.42369800  1
  C  C52  1  0.39156600  0.15351400  0.96876600  1
  N  N1  1  0.54563700  0.51671200  0.81415600  1
  N  N2  1  0.57640900  0.49170000  0.18577200  1
  O  O1  1  0.39941400  0.39928500  0.05988300  1
  O  O2  1  0.39127000  0.40796000  0.92773500  1
  O  O3  1  0.38309800  0.62018300  0.93650200  1
  O  O4  1  0.40111200  0.61147000  0.06867500  1
  O  O5  1  0.72186100  0.60936900  0.94023900  1
  O  O6  1  0.72930100  0.60135800  0.07214600  1
  O  O7  1  0.73839400  0.38820000  0.06318700  1
  O  O8  1  0.71954700  0.39631500  0.93135700  1
  O  O9  1  0.54805900  0.04461200  0.47552400  1
  O  O10  1  0.46748600  0.21374700  0.91891900  1
