# generated using pymatgen
data_FeH8C24ClO8
_symmetry_space_group_name_H-M   'P 1'
_cell_length_a   15.99362400
_cell_length_b   14.14050200
_cell_length_c   11.13464400
_cell_angle_alpha   84.87263500
_cell_angle_beta   97.17338800
_cell_angle_gamma   86.84737900
_symmetry_Int_Tables_number   1
_chemical_formula_structural   FeH8C24ClO8
_chemical_formula_sum   'Fe2 H16 C48 Cl2 O16'
_cell_volume   2482.89681997
_cell_formula_units_Z   2
loop_
 _symmetry_equiv_pos_site_id
 _symmetry_equiv_pos_as_xyz
  1  'x, y, z'
loop_
 _atom_site_type_symbol
 _atom_site_label
 _atom_site_symmetry_multiplicity
 _atom_site_fract_x
 _atom_site_fract_y
 _atom_site_fract_z
 _atom_site_occupancy
  Fe  Fe1  1  0.48695600  0.99695800  0.74001400  1
  Fe  Fe2  1  0.49696800  0.00199900  0.26361500  1
  H  H1  1  0.22317100  0.06175100  0.72446600  1
  H  H2  1  0.07806600  0.05395600  0.76877800  1
  H  H3  1  0.16462100  0.02326300  0.14786100  1
  H  H4  1  0.81281400  0.02087800  0.84270000  1
  H  H5  1  0.91736500  0.96796000  0.21216700  1
  H  H6  1  0.65095300  0.56185700  0.33351100  1
  H  H7  1  0.66899700  0.41727100  0.37944900  1
  H  H8  1  0.64186600  0.26206500  0.33286300  1
  H  H9  1  0.33822000  0.56517500  0.68298600  1
  H  H10  1  0.30180200  0.44148600  0.61207600  1
  H  H11  1  0.36533400  0.72097200  0.72115400  1
  H  H12  1  0.64838800  0.72728400  0.32900700  1
  H  H13  1  0.30318200  0.27425500  0.62353200  1
  H  H14  1  0.80415800  0.01348300  0.57857100  1
  H  H15  1  0.81336000  0.72530600  0.49515400  1
  H  H16  1  0.79372200  0.77946500  0.27697200  1
  C  C1  1  0.21078600  0.05505600  0.81794500  1
  C  C2  1  0.12932700  0.05082100  0.84245400  1
  C  C3  1  0.11318800  0.03932000  0.96062900  1
  C  C4  1  0.17895500  0.03389200  0.05550700  1
  C  C5  1  0.26221200  0.03828400  0.03188700  1
  C  C6  1  0.27698300  0.04896500  0.91077500  1
  C  C7  1  0.02764000  0.02721000  0.98203800  1
  C  C8  1  0.95576800  0.01491700  0.99818100  1
  C  C9  1  0.80322500  0.00248500  0.93602300  1
  C  C10  1  0.72300300  0.98553400  0.96632500  1
  C  C11  1  0.71380700  0.96338400  0.08947000  1
  C  C12  1  0.78485300  0.95736000  0.17652100  1
  C  C13  1  0.86267500  0.97395800  0.14358700  1
  C  C14  1  0.87220800  0.99768900  0.02500500  1
  C  C15  1  0.42744900  0.15473300  0.58947500  1
  C  C16  1  0.36087400  0.04534700  0.87389400  1
  C  C17  1  0.65129600  0.99316100  0.86638900  1
  C  C18  1  0.48929200  0.81836800  0.67058700  1
  C  C19  1  0.50454100  0.17596500  0.34558500  1
  C  C20  1  0.33228200  0.02635500  0.13428100  1
  C  C21  1  0.63116500  0.95522800  0.13284000  1
  C  C22  1  0.54834300  0.84257800  0.41546900  1
  C  C23  1  0.61056900  0.69001300  0.38897200  1
  C  C24  1  0.55829200  0.74040400  0.45216000  1
  C  C25  1  0.50524500  0.69210200  0.52276600  1
  C  C26  1  0.46134300  0.73652900  0.60579000  1
  C  C27  1  0.40034700  0.68821700  0.65701500  1
  C  C28  1  0.61054100  0.59339900  0.39132800  1
  C  C29  1  0.55369200  0.54372100  0.45259800  1
  C  C30  1  0.49789200  0.59442000  0.51317400  1
  C  C31  1  0.43495400  0.54731600  0.56430100  1
  C  C32  1  0.61153200  0.39053600  0.40532600  1
  C  C33  1  0.55029600  0.44507800  0.45122300  1
  C  C34  1  0.48438900  0.39939700  0.49579100  1
  C  C35  1  0.59895500  0.29845700  0.38366300  1
  C  C36  1  0.53029200  0.25434400  0.41788600  1
  C  C37  1  0.38490600  0.59702500  0.63383000  1
  C  C38  1  0.42459300  0.45125100  0.54788800  1
  C  C39  1  0.35518500  0.40546600  0.58187400  1
  C  C40  1  0.47787200  0.30180300  0.48735300  1
  C  C41  1  0.41693500  0.25567100  0.54402000  1
  C  C42  1  0.35293700  0.30870600  0.58294700  1
  C  C43  1  0.78261400  0.92684100  0.30468200  1
  C  C44  1  0.78831100  0.99245900  0.38970800  1
  C  C45  1  0.79993400  0.96202500  0.51224200  1
  C  C46  1  0.80815900  0.86605200  0.55016500  1
  C  C47  1  0.80521400  0.80053100  0.46554100  1
  C  C48  1  0.79307600  0.83093700  0.34309100  1
  Cl  Cl1  1  0.78412500  0.11436300  0.34286600  1
  Cl  Cl2  1  0.82459700  0.82723800  0.70556500  1
  O  O1  1  0.50164400  0.11797100  0.64355700  1
  O  O2  1  0.40716700  0.11896900  0.88115300  1
  O  O3  1  0.36020900  0.10707000  0.59945100  1
  O  O4  1  0.38257700  0.97457200  0.81362800  1
  O  O5  1  0.57302000  0.98657600  0.88899300  1
  O  O6  1  0.66603600  0.00645700  0.75300300  1
  O  O7  1  0.49355400  0.90365100  0.61539500  1
  O  O8  1  0.49091300  0.81044800  0.78918900  1
  O  O9  1  0.49231400  0.09054300  0.39419600  1
  O  O10  1  0.51001200  0.18738900  0.22867000  1
  O  O11  1  0.41167800  0.02048300  0.11360800  1
  O  O12  1  0.31521800  0.01959900  0.24686600  1
  O  O13  1  0.61565800  0.89119700  0.41600600  1
  O  O14  1  0.60295000  0.02330400  0.19327300  1
  O  O15  1  0.47731500  0.87922900  0.35235200  1
  O  O16  1  0.58941700  0.87865900  0.11968600  1
