# generated using pymatgen
data_ZnH8C15NO4
_symmetry_space_group_name_H-M   'P 1'
_cell_length_a   14.24428600
_cell_length_b   8.52800400
_cell_length_c   10.78659500
_cell_angle_alpha   90.00000000
_cell_angle_beta   90.90513600
_cell_angle_gamma   90.00000000
_symmetry_Int_Tables_number   1
_chemical_formula_structural   ZnH8C15NO4
_chemical_formula_sum   'Zn2 H16 C30 N2 O8'
_cell_volume   1310.14166619
_cell_formula_units_Z   2
loop_
 _symmetry_equiv_pos_site_id
 _symmetry_equiv_pos_as_xyz
  1  'x, y, z'
loop_
 _atom_site_type_symbol
 _atom_site_label
 _atom_site_symmetry_multiplicity
 _atom_site_fract_x
 _atom_site_fract_y
 _atom_site_fract_z
 _atom_site_occupancy
  Zn  Zn1  1  0.89629800  0.45950000  0.01651800  1
  Zn  Zn2  1  0.10370200  0.45950000  0.98348200  1
  H  H1  1  0.99035900  0.56955000  0.61081300  1
  H  H2  1  0.00964100  0.56955000  0.38918700  1
  H  H3  1  0.98944600  0.21400200  0.40582100  1
  H  H4  1  0.01055400  0.21400200  0.59417900  1
  H  H5  1  0.95266500  0.95678800  0.91531900  1
  H  H6  1  0.04733500  0.95678800  0.08468100  1
  H  H7  1  0.56500500  0.22780700  0.90095500  1
  H  H8  1  0.43499500  0.22780700  0.09904500  1
  H  H9  1  0.56500500  0.69170500  0.90095300  1
  H  H10  1  0.43499500  0.69170500  0.09904700  1
  H  H11  1  0.51278400  0.45975600  0.68946800  1
  H  H12  1  0.40673800  0.35357600  0.72643200  1
  H  H13  1  0.40673900  0.56593600  0.72643100  1
  H  H14  1  0.48721600  0.45975600  0.31053200  1
  H  H15  1  0.59326300  0.35357600  0.27356900  1
  H  H16  1  0.59326200  0.56593500  0.27356900  1
  C  C1  1  0.99510900  0.96233700  0.56446600  1
  C  C2  1  0.00489200  0.96233700  0.43553500  1
  C  C3  1  0.98924400  0.82039000  0.62756900  1
  C  C4  1  0.01075600  0.82039000  0.37243100  1
  C  C5  1  0.99493000  0.68074000  0.56331300  1
  C  C6  1  0.00507000  0.68074000  0.43668800  1
  C  C7  1  0.02358100  0.81944000  0.24509500  1
  C  C8  1  0.97641900  0.81944000  0.75490500  1
  C  C9  1  0.03602000  0.95813500  0.18322800  1
  C  C10  1  0.96398000  0.95813500  0.81677200  1
  C  C11  1  0.02260400  0.09815600  0.24234700  1
  C  C12  1  0.97739600  0.09815600  0.75765300  1
  C  C13  1  0.00468200  0.10099500  0.36702900  1
  C  C14  1  0.99531800  0.10099500  0.63297100  1
  C  C15  1  0.01579800  0.67791500  0.16898800  1
  C  C16  1  0.98420300  0.67791500  0.83101200  1
  C  C17  1  0.98454400  0.23980200  0.83268800  1
  C  C18  1  0.01545600  0.23980200  0.16731200  1
  C  C19  1  0.46533100  0.33223400  0.05331300  1
  C  C20  1  0.53466900  0.33223400  0.94668700  1
  C  C21  1  0.52228000  0.45975600  0.11697400  1
  C  C22  1  0.47772100  0.45975600  0.88302600  1
  C  C23  1  0.59022700  0.45975600  0.01228100  1
  C  C24  1  0.40977400  0.45975600  0.98771900  1
  C  C25  1  0.46533000  0.58727800  0.05331400  1
  C  C26  1  0.53467000  0.58727800  0.94668700  1
  C  C27  1  0.69259900  0.45972100  0.02598600  1
  C  C28  1  0.30740100  0.45972100  0.97401400  1
  C  C29  1  0.44908000  0.45975500  0.74725900  1
  C  C30  1  0.55092000  0.45975500  0.25274100  1
  N  N1  1  0.77375400  0.45967200  0.03265400  1
  N  N2  1  0.22624700  0.45967200  0.96734600  1
  O  O1  1  0.09110500  0.62889900  0.11241100  1
  O  O2  1  0.90889600  0.62889900  0.88758900  1
  O  O3  1  0.93139500  0.62314500  0.14402900  1
  O  O4  1  0.06860500  0.62314500  0.85597100  1
  O  O5  1  0.90882300  0.28949800  0.88810500  1
  O  O6  1  0.09117700  0.28949800  0.11189600  1
  O  O7  1  0.06877700  0.29584800  0.85605200  1
  O  O8  1  0.93122300  0.29584800  0.14394800  1
