# generated using pymatgen
data_Cu2H31C40N6ClO8
_symmetry_space_group_name_H-M   'P 1'
_cell_length_a   10.67111800
_cell_length_b   15.54752300
_cell_length_c   17.06301500
_cell_angle_alpha   96.33528600
_cell_angle_beta   90.00242200
_cell_angle_gamma   92.82981500
_symmetry_Int_Tables_number   1
_chemical_formula_structural   Cu2H31C40N6ClO8
_chemical_formula_sum   'Cu2 H31 C40 N6 Cl1 O8'
_cell_volume   2810.15363909
_cell_formula_units_Z   1
loop_
 _symmetry_equiv_pos_site_id
 _symmetry_equiv_pos_as_xyz
  1  'x, y, z'
loop_
 _atom_site_type_symbol
 _atom_site_label
 _atom_site_symmetry_multiplicity
 _atom_site_fract_x
 _atom_site_fract_y
 _atom_site_fract_z
 _atom_site_occupancy
  Cu  Cu1  1  0.50154700  0.41119700  0.49045800  1
  Cu  Cu2  1  0.51214300  0.58424700  0.50100900  1
  H  H1  1  0.10069400  0.38018900  0.55024500  1
  H  H2  1  0.10514800  0.36269300  0.44395200  1
  H  H3  1  0.89700700  0.36713900  0.43628000  1
  H  H4  1  0.89182800  0.37528500  0.54338900  1
  H  H5  1  0.11790400  0.53300400  0.62066300  1
  H  H6  1  0.90786900  0.51785400  0.62037400  1
  H  H7  1  0.12010400  0.59987200  0.41702800  1
  H  H8  1  0.10738700  0.49208700  0.36590100  1
  H  H9  1  0.89621500  0.50010600  0.36832600  1
  H  H10  1  0.91216200  0.60558300  0.42485300  1
  H  H11  1  0.11292800  0.62254300  0.56232300  1
  H  H12  1  0.90631500  0.61662800  0.57330000  1
  H  H13  1  0.47529100  0.38922400  0.88519600  1
  H  H14  1  0.49850600  0.33938800  0.09743900  1
  H  H15  1  0.49828400  0.34714500  0.24041400  1
  H  H16  1  0.54875800  0.64794400  0.74702100  1
  H  H17  1  0.52225200  0.61672900  0.11331800  1
  H  H18  1  0.55460500  0.66257900  0.89008000  1
  H  H19  1  0.52157600  0.62350700  0.25579800  1
  H  H20  1  0.65121100  0.27953200  0.55682600  1
  H  H21  1  0.64705200  0.12394700  0.55110800  1
  H  H22  1  0.68430300  0.88554700  0.59563700  1
  H  H23  1  0.66594400  0.72699000  0.59241800  1
  H  H24  1  0.33516000  0.26806800  0.40815800  1
  H  H25  1  0.39178000  0.87052200  0.42212600  1
  H  H26  1  0.32433700  0.10953100  0.39941200  1
  H  H27  1  0.38005700  0.71522800  0.42197200  1
  H  H28  1  0.20401100  0.22922200  0.66206600  1
  H  H29  1  0.35676200  0.11553200  0.66049300  1
  H  H30  1  0.57275100  0.15289600  0.70781100  1
  H  H31  1  0.63409900  0.30272900  0.75962900  1
  C  C1  1  0.50667600  0.49019700  0.34442100  1
  C  C2  1  0.26572100  0.49711800  0.49427800  1
  C  C3  1  0.50531800  0.50515100  0.64736500  1
  C  C4  1  0.74765400  0.49809900  0.49499300  1
  C  C5  1  0.07140700  0.40560100  0.49514900  1
  C  C6  1  0.92968300  0.40548100  0.49182900  1
  C  C7  1  0.08099400  0.55415900  0.56560800  1
  C  C8  1  0.07945300  0.53328300  0.41976800  1
  C  C9  1  0.12557400  0.49738600  0.49355400  1
  C  C10  1  0.88761900  0.49778000  0.49420900  1
  C  C11  1  0.93938400  0.54977400  0.56831800  1
  C  C12  1  0.93770100  0.53703000  0.42224600  1
  C  C13  1  0.50823300  0.48598900  0.25816100  1
  C  C14  1  0.51595300  0.56090200  0.22121800  1
  C  C15  1  0.51694800  0.55662300  0.13977000  1
  C  C16  1  0.51045200  0.47663600  0.09455300  1
  C  C17  1  0.50352200  0.40218000  0.13192200  1
  C  C18  1  0.50305000  0.40664800  0.21301600  1
  C  C19  1  0.49317300  0.44738500  0.85689900  1
  C  C20  1  0.48676600  0.43819100  0.77575900  1
  C  C21  1  0.51738200  0.52787700  0.89890600  1
  C  C22  1  0.50661100  0.51039000  0.73436500  1
  C  C23  1  0.53121500  0.59063700  0.77683100  1
  C  C24  1  0.53577000  0.59926400  0.85817200  1
  C  C25  1  0.44585900  0.75327000  0.46114400  1
  C  C26  1  0.45253400  0.84212300  0.46192800  1
  C  C27  1  0.53742300  0.89112300  0.51164800  1
  C  C28  1  0.61462300  0.84894100  0.55825800  1
  C  C29  1  0.60501800  0.75990000  0.55602900  1
  C  C30  1  0.57667800  0.15269600  0.51805200  1
  C  C31  1  0.57936700  0.24183100  0.52165000  1
  C  C32  1  0.48403600  0.10380300  0.47404400  1
  C  C33  1  0.40317700  0.23527300  0.43929500  1
  C  C34  1  0.39764100  0.14606300  0.43415800  1
  C  C35  1  0.45404300  0.35077100  0.73820500  1
  C  C36  1  0.33291500  0.32943600  0.71204100  1
  C  C37  1  0.29884500  0.24539400  0.68279200  1
  C  C38  1  0.38453500  0.18180100  0.68180600  1
  C  C39  1  0.50519100  0.20262100  0.70889900  1
  C  C40  1  0.53983600  0.28694100  0.73741600  1
  N  N1  1  0.50947800  0.46827300  0.01101800  1
  N  N2  1  0.52130000  0.53859300  0.98254600  1
  N  N3  1  0.52021100  0.71358200  0.50822600  1
  N  N4  1  0.54918900  0.98258600  0.51476200  1
  N  N5  1  0.47335500  0.01234000  0.47058300  1
  N  N6  1  0.49278700  0.28171600  0.48308100  1
  Cl  Cl1  1  0.21969600  0.40750300  0.72046100  1
  O  O1  1  0.50541900  0.41760000  0.37685900  1
  O  O2  1  0.50779300  0.56641000  0.38589200  1
  O  O3  1  0.31963200  0.42281300  0.48880300  1
  O  O4  1  0.32937300  0.57142600  0.49695700  1
  O  O5  1  0.50674200  0.42934800  0.60551600  1
  O  O6  1  0.50636800  0.57758700  0.61456000  1
  O  O7  1  0.68391600  0.42364900  0.48845100  1
  O  O8  1  0.69365300  0.57243500  0.49831900  1
