# generated using pymatgen
data_Fe2H17C46N6ClO16
_symmetry_space_group_name_H-M   'P 1'
_cell_length_a   14.56409100
_cell_length_b   16.81358800
_cell_length_c   11.05309000
_cell_angle_alpha   108.33388300
_cell_angle_beta   94.50260600
_cell_angle_gamma   108.57535200
_symmetry_Int_Tables_number   1
_chemical_formula_structural   Fe2H17C46N6ClO16
_chemical_formula_sum   'Fe2 H17 C46 N6 Cl1 O16'
_cell_volume   2386.87365282
_cell_formula_units_Z   1
loop_
 _symmetry_equiv_pos_site_id
 _symmetry_equiv_pos_as_xyz
  1  'x, y, z'
loop_
 _atom_site_type_symbol
 _atom_site_label
 _atom_site_symmetry_multiplicity
 _atom_site_fract_x
 _atom_site_fract_y
 _atom_site_fract_z
 _atom_site_occupancy
  Fe  Fe1  1  0.50540400  0.98238800  0.24675600  1
  Fe  Fe2  1  0.48815600  0.97256600  0.76869800  1
  H  H1  1  0.87602300  0.03789700  0.26574400  1
  H  H2  1  0.79504200  0.93413700  0.78984600  1
  H  H3  1  0.95445400  0.93046000  0.77568500  1
  H  H4  1  0.11561700  0.93163900  0.75820400  1
  H  H5  1  0.20903200  0.02520700  0.23189300  1
  H  H6  1  0.13875800  0.18631700  0.27690900  1
  H  H7  1  0.98638200  0.94313100  0.33452000  1
  H  H8  1  0.51803400  0.25575700  0.42236800  1
  H  H9  1  0.49504700  0.41430200  0.79777500  1
  H  H10  1  0.48624700  0.29322000  0.87388900  1
  H  H11  1  0.50983700  0.54438300  0.22057800  1
  H  H12  1  0.51740400  0.66525200  0.14433700  1
  H  H13  1  0.48087400  0.70055500  0.59394100  1
  H  H14  1  0.07169400  0.07978700  0.74054900  1
  H  H15  1  0.12492300  0.16018900  0.97487300  1
  H  H16  1  0.29185400  0.39758600  0.91326200  1
  H  H17  1  0.23980400  0.31930300  0.67895800  1
  C  C1  1  0.85974700  0.01523000  0.16119400  1
  C  C2  1  0.76525600  0.99943300  0.10071900  1
  C  C3  1  0.74370100  0.97252700  0.96583500  1
  C  C4  1  0.81369800  0.95694700  0.89469000  1
  C  C5  1  0.90616700  0.96959200  0.95505200  1
  C  C6  1  0.93059700  0.99998100  0.08887800  1
  C  C7  1  0.97434900  0.95330800  0.88041600  1
  C  C8  1  0.06764300  0.96607100  0.93849900  1
  C  C9  1  0.09301400  0.99556400  0.07211600  1
  C  C10  1  0.02548700  0.01472500  0.14818100  1
  C  C11  1  0.13616400  0.95181700  0.86244200  1
  C  C12  1  0.23048200  0.96439800  0.91857100  1
  C  C13  1  0.25361500  0.98865700  0.05280200  1
  C  C14  1  0.18613000  0.00531600  0.12818700  1
  C  C15  1  0.11693900  0.14928500  0.34057400  1
  C  C16  1  0.11961100  0.14598600  0.55084800  1
  C  C17  1  0.03198800  0.01379300  0.37262200  1
  C  C18  1  0.05815400  0.05955500  0.28938500  1
  C  C19  1  0.68893900  0.00441100  0.18076700  1
  C  C20  1  0.51238500  0.82640100  0.27402400  1
  C  C21  1  0.35048000  0.00326100  0.12123800  1
  C  C22  1  0.49535100  0.10876000  0.46504600  1
  C  C23  1  0.50181200  0.84739900  0.55100300  1
  C  C24  1  0.64691100  0.95471100  0.89319500  1
  C  C25  1  0.48696600  0.13057500  0.74321800  1
  C  C26  1  0.30499700  0.95799300  0.83604800  1
  C  C27  1  0.50513400  0.19428900  0.56399600  1
  C  C28  1  0.51341000  0.26526700  0.52267600  1
  C  C29  1  0.50784000  0.34414000  0.60440000  1
  C  C30  1  0.49891500  0.35328300  0.73102700  1
  C  C31  1  0.49319300  0.28368000  0.77419300  1
  C  C32  1  0.49470300  0.20303200  0.69151100  1
  C  C33  1  0.49633400  0.54235200  0.46244300  1
  C  C34  1  0.50593800  0.41526200  0.55495100  1
  C  C35  1  0.50438800  0.60481000  0.28682600  1
  C  C36  1  0.50946100  0.67428800  0.24362200  1
  C  C37  1  0.50573700  0.75414000  0.32569800  1
  C  C38  1  0.49409300  0.76234000  0.45263700  1
  C  C39  1  0.48660500  0.69151200  0.49403900  1
  C  C40  1  0.49409400  0.61335900  0.41290800  1
  C  C41  1  0.15188200  0.19343100  0.69211100  1
  C  C42  1  0.12028600  0.14946700  0.77660700  1
  C  C43  1  0.15009500  0.19460800  0.90919100  1
  C  C44  1  0.21171300  0.28360600  0.95829300  1
  C  C45  1  0.24352000  0.32770800  0.87477300  1
  C  C46  1  0.21373400  0.28299600  0.74215900  1
  N  N1  1  0.14651000  0.19100300  0.47008700  1
  N  N2  1  0.06277800  0.05779800  0.50187300  1
  N  N3  1  0.49465400  0.48979100  0.63252300  1
  N  N4  1  0.49016300  0.55261900  0.58692900  1
  N  N5  1  0.50765800  0.46783800  0.38488100  1
  N  N6  1  0.51212300  0.40499800  0.43046700  1
  Cl  Cl1  1  0.24940400  0.34064000  0.12667000  1
  O  O1  1  0.60043500  0.99608900  0.12948700  1
  O  O2  1  0.53713600  0.81966300  0.16063200  1
  O  O3  1  0.70646600  0.00888700  0.30149300  1
  O  O4  1  0.48960500  0.89561100  0.33712800  1
  O  O5  1  0.36979700  0.93566800  0.13716200  1
  O  O6  1  0.41594100  0.08522300  0.17487300  1
  O  O7  1  0.55715200  0.10566500  0.38466600  1
  O  O8  1  0.41536900  0.03786800  0.44259300  1
  O  O9  1  0.43983400  0.84912200  0.63125900  1
  O  O10  1  0.58028800  0.91950200  0.57303000  1
  O  O11  1  0.62248900  0.02139200  0.88269500  1
  O  O12  1  0.58698500  0.87135300  0.83106000  1
  O  O13  1  0.28897500  0.96007100  0.71876900  1
  O  O14  1  0.50453800  0.05887800  0.67743600  1
  O  O15  1  0.39050800  0.95733200  0.88241600  1
  O  O16  1  0.46600300  0.13927600  0.85889500  1
