# generated using pymatgen
data_CuH19C29NO4
_symmetry_space_group_name_H-M   'P 1'
_cell_length_a   9.51600800
_cell_length_b   10.90479800
_cell_length_c   17.30359300
_cell_angle_alpha   90.00340600
_cell_angle_beta   86.17700500
_cell_angle_gamma   89.99978900
_symmetry_Int_Tables_number   1
_chemical_formula_structural   CuH19C29NO4
_chemical_formula_sum   'Cu2 H38 C58 N2 O8'
_cell_volume   1791.60077196
_cell_formula_units_Z   2
loop_
 _symmetry_equiv_pos_site_id
 _symmetry_equiv_pos_as_xyz
  1  'x, y, z'
loop_
 _atom_site_type_symbol
 _atom_site_label
 _atom_site_symmetry_multiplicity
 _atom_site_fract_x
 _atom_site_fract_y
 _atom_site_fract_z
 _atom_site_occupancy
  Cu  Cu1  1  0.35964000  0.50629400  0.49799000  1
  Cu  Cu2  1  0.63774900  0.50395900  0.49943700  1
  H  H1  1  0.69167200  0.46525100  0.74076100  1
  H  H2  1  0.30318400  0.54944800  0.25970400  1
  H  H3  1  0.75164700  0.51743600  0.25352500  1
  H  H4  1  0.24732500  0.52574300  0.74346900  1
  H  H5  1  0.65213300  0.56057700  0.99300700  1
  H  H6  1  0.34185600  0.48296900  0.00511100  1
  H  H7  1  0.23495800  0.52988200  0.88444700  1
  H  H8  1  0.76213300  0.52559200  0.11285200  1
  H  H9  1  0.31361600  0.55976700  0.12068300  1
  H  H10  1  0.67868200  0.46757100  0.88021400  1
  H  H11  1  0.96991500  0.91116900  0.55225100  1
  H  H12  1  0.03910500  0.08822700  0.44225800  1
  H  H13  1  0.32665000  0.80337900  0.38302200  1
  H  H14  1  0.70461200  0.21925000  0.58566600  1
  H  H15  1  0.09826900  0.89525600  0.37302600  1
  H  H16  1  0.92406800  0.11712300  0.60517000  1
  H  H17  1  0.20863400  0.18812800  0.51354800  1
  H  H18  1  0.79534400  0.80814400  0.48328000  1
  H  H19  1  0.76396000  0.37216100  0.37770900  1
  H  H20  1  0.23241700  0.69224500  0.58851300  1
  H  H21  1  0.89812700  0.28296700  0.27937700  1
  H  H22  1  0.10270100  0.78774800  0.69017300  1
  H  H23  1  0.25692600  0.32576100  0.40459500  1
  H  H24  1  0.73477700  0.63281800  0.62272100  1
  H  H25  1  0.97687800  0.56990500  0.79326100  1
  H  H26  1  0.97711800  0.63548800  0.88829900  1
  H  H27  1  0.08763300  0.70160900  0.81154400  1
  H  H28  1  0.81546200  0.78228100  0.92722700  1
  H  H29  1  0.60863600  0.90463300  0.90258600  1
  H  H30  1  0.54312600  0.93693700  0.76882300  1
  H  H31  1  0.68071400  0.84286900  0.66089900  1
  H  H32  1  0.92699000  0.07538900  0.33050400  1
  H  H33  1  0.96501900  0.95351800  0.26398400  1
  H  H34  1  0.89189900  0.09189700  0.22878700  1
  H  H35  1  0.14926800  0.95237100  0.17147400  1
  H  H36  1  0.39407100  0.00631000  0.13798100  1
  H  H37  1  0.49646000  0.18929700  0.19490600  1
  H  H38  1  0.35611100  0.31561600  0.28466300  1
  C  C1  1  0.50880800  0.73930900  0.49192400  1
  C  C2  1  0.49568700  0.26946100  0.50081800  1
  C  C3  1  0.47879100  0.49759200  0.64649100  1
  C  C4  1  0.51818900  0.51760300  0.35105900  1
  C  C5  1  0.47020600  0.49746600  0.73158400  1
  C  C6  1  0.52650500  0.52878800  0.26647700  1
  C  C7  1  0.59052800  0.48100000  0.77127900  1
  C  C8  1  0.40468200  0.54231300  0.22801400  1
  C  C9  1  0.58373800  0.48462500  0.85115000  1
  C  C10  1  0.41062500  0.54684300  0.14832000  1
  C  C11  1  0.45635100  0.50453500  0.89248200  1
  C  C12  1  0.53872800  0.53728500  0.10592500  1
  C  C13  1  0.33588800  0.51716200  0.85287700  1
  C  C14  1  0.66072500  0.53042500  0.14482500  1
  C  C15  1  0.34281700  0.51465800  0.77301100  1
  C  C16  1  0.65485700  0.52595400  0.22460000  1
  C  C17  1  0.44342600  0.50692800  0.97777500  1
  C  C18  1  0.55056100  0.53701000  0.02061700  1
  C  C19  1  0.30277700  0.88676700  0.41490100  1
  C  C20  1  0.72048300  0.12894500  0.56109100  1
  C  C21  1  0.17524400  0.94126700  0.40548900  1
  C  C22  1  0.84452600  0.07068000  0.57454800  1
  C  C23  1  0.14331900  0.04911200  0.44289700  1
  C  C24  1  0.86915200  0.95504400  0.54608800  1
  C  C25  1  0.24450400  0.10925500  0.48097700  1
  C  C26  1  0.76558000  0.89410700  0.51006000  1
  C  C27  1  0.38043400  0.06285300  0.48195600  1
  C  C28  1  0.63224100  0.94512100  0.50588000  1
  C  C29  1  0.40042200  0.94123400  0.46038700  1
  C  C30  1  0.61626800  0.06961900  0.52247100  1
  C  C31  1  0.49384200  0.13210100  0.50570700  1
  C  C32  1  0.51808200  0.87670900  0.48211700  1
  C  C33  1  0.87244000  0.37673200  0.38573800  1
  C  C34  1  0.12608400  0.66515500  0.59509200  1
  C  C35  1  0.95011700  0.31553500  0.32900400  1
  C  C36  1  0.05118500  0.72316500  0.65435500  1
  C  C37  1  0.08778500  0.29025500  0.33832200  1
  C  C38  1  0.91085200  0.70268700  0.66596900  1
  C  C39  1  0.15084300  0.35061600  0.39769300  1
  C  C40  1  0.84480700  0.63389300  0.61281300  1
  C  C41  1  0.07859600  0.43426400  0.44796400  1
  C  C42  1  0.91818500  0.56971000  0.55258100  1
  C  C43  1  0.93188000  0.43878400  0.44579200  1
  C  C44  1  0.06597400  0.57956600  0.54737400  1
  C  C45  1  0.82995100  0.75929300  0.73190800  1
  C  C46  1  0.86707600  0.74132600  0.80748100  1
  C  C47  1  0.98445000  0.65727000  0.82558500  1
  C  C48  1  0.78774800  0.79502200  0.86819000  1
  C  C49  1  0.67175100  0.86516000  0.85448000  1
  C  C50  1  0.63429100  0.88213400  0.77980400  1
  C  C51  1  0.71266500  0.82925600  0.71889700  1
  C  C52  1  0.16861200  0.20653300  0.28363400  1
  C  C53  1  0.11101800  0.10150400  0.25064200  1
  C  C54  1  0.96500800  0.05462800  0.27020300  1
  C  C55  1  0.19318000  0.03218900  0.19801800  1
  C  C56  1  0.33113500  0.06234600  0.17861700  1
  C  C57  1  0.38836700  0.16411500  0.21082600  1
  C  C58  1  0.30797300  0.23510700  0.26254400  1
  N  N1  1  0.14807500  0.50921900  0.49677000  1
  N  N2  1  0.84931800  0.50027600  0.50044300  1
  O  O1  1  0.38664500  0.68340700  0.48535100  1
  O  O2  1  0.61522200  0.32735800  0.48088800  1
  O  O3  1  0.61632100  0.67919700  0.51734100  1
  O  O4  1  0.37684700  0.32966700  0.51191500  1
  O  O5  1  0.36609600  0.52536300  0.61002900  1
  O  O6  1  0.63217700  0.53502000  0.38848000  1
  O  O7  1  0.60039300  0.47230500  0.61008600  1
  O  O8  1  0.39673800  0.48827200  0.38618500  1
