# generated using pymatgen
data_ZnH7C13N2O5
_symmetry_space_group_name_H-M   'P 1'
_cell_length_a   6.55745100
_cell_length_b   12.36479200
_cell_length_c   14.68711100
_cell_angle_alpha   99.91520200
_cell_angle_beta   101.56001900
_cell_angle_gamma   95.15101400
_symmetry_Int_Tables_number   1
_chemical_formula_structural   ZnH7C13N2O5
_chemical_formula_sum   'Zn2 H14 C26 N4 O10'
_cell_volume   1139.70065116
_cell_formula_units_Z   2
loop_
 _symmetry_equiv_pos_site_id
 _symmetry_equiv_pos_as_xyz
  1  'x, y, z'
loop_
 _atom_site_type_symbol
 _atom_site_label
 _atom_site_symmetry_multiplicity
 _atom_site_fract_x
 _atom_site_fract_y
 _atom_site_fract_z
 _atom_site_occupancy
  Zn  Zn1  1  0.98199600  0.12415900  0.51832600  1
  Zn  Zn2  1  0.95969100  0.87855500  0.49348800  1
  H  H1  1  0.25888300  0.06470800  0.81763300  1
  H  H2  1  0.68289600  0.93804800  0.19423900  1
  H  H3  1  0.51467400  0.05312200  0.96185700  1
  H  H4  1  0.42719400  0.94967800  0.04999900  1
  H  H5  1  0.96956300  0.98375700  0.79757000  1
  H  H6  1  0.97217900  0.01900500  0.21422900  1
  H  H7  1  0.25841500  0.51783000  0.66694500  1
  H  H8  1  0.50942100  0.66271200  0.72300100  1
  H  H9  1  0.47221700  0.78420500  0.67119900  1
  H  H10  1  0.63010700  0.68385300  0.62573500  1
  H  H11  1  0.68227300  0.48529900  0.34454200  1
  H  H12  1  0.59559300  0.32959100  0.23401000  1
  H  H13  1  0.68268900  0.20526000  0.26969300  1
  H  H14  1  0.83850000  0.28538500  0.20975200  1
  C  C1  1  0.41654700  0.04908500  0.81329100  1
  C  C2  1  0.52522000  0.95366900  0.19856000  1
  C  C3  1  0.55937900  0.04135400  0.89421900  1
  C  C4  1  0.38244000  0.96143000  0.11762600  1
  C  C5  1  0.75736000  0.01603700  0.88828200  1
  C  C6  1  0.18444700  0.98674700  0.12354300  1
  C  C7  1  0.81267400  0.00089400  0.80193400  1
  C  C8  1  0.12907300  0.00186500  0.20987900  1
  C  C9  1  0.67126000  0.00968100  0.72119100  1
  C  C10  1  0.27044200  0.99304700  0.29062400  1
  C  C11  1  0.47146000  0.03295900  0.72633900  1
  C  C12  1  0.47023700  0.96976600  0.28549500  1
  C  C13  1  0.90733700  0.00585700  0.97132900  1
  C  C14  1  0.03450300  0.99693900  0.04049100  1
  C  C15  1  0.92761800  0.52125500  0.46675100  1
  C  C16  1  0.04227300  0.48006600  0.53522300  1
  C  C17  1  0.74730900  0.00468400  0.63433500  1
  C  C18  1  0.19439600  0.99803900  0.37747600  1
  C  C19  1  0.30734700  0.02349600  0.64074700  1
  C  C20  1  0.63428800  0.97922400  0.37110300  1
  C  C21  1  0.01507200  0.36313900  0.53412800  1
  C  C22  1  0.93744500  0.63910800  0.47385600  1
  C  C23  1  0.29975000  0.63325000  0.58749100  1
  C  C24  1  0.49001500  0.69494500  0.65624900  1
  C  C25  1  0.85155000  0.35672800  0.35407100  1
  C  C26  1  0.73463600  0.28998500  0.26094300  1
  N  N1  1  0.94607800  0.73402500  0.47998300  1
  N  N2  1  0.99595600  0.26869200  0.53170000  1
  N  N3  1  0.18483300  0.55116600  0.61153400  1
  N  N4  1  0.78285100  0.45043700  0.39103000  1
  O  O1  1  0.79715100  0.90974100  0.59580200  1
  O  O2  1  0.14448700  0.09288600  0.41601200  1
  O  O3  1  0.80354600  0.09914200  0.61144700  1
  O  O4  1  0.13813300  0.90367100  0.40039200  1
  O  O5  1  0.23238600  0.11337400  0.61990800  1
  O  O6  1  0.70928900  0.88933600  0.39191100  1
  O  O7  1  0.22211500  0.92333500  0.59664400  1
  O  O8  1  0.71954900  0.07939800  0.41518300  1
  O  O9  1  0.25212800  0.65515600  0.50881400  1
  O  O10  1  0.01183400  0.32789100  0.39524000  1
