# generated using pymatgen
data_Zn3H14C30O12F19
_symmetry_space_group_name_H-M   'P 1'
_cell_length_a   18.63478100
_cell_length_b   18.64456700
_cell_length_c   18.72314300
_cell_angle_alpha   109.36324300
_cell_angle_beta   109.51889100
_cell_angle_gamma   109.34186500
_symmetry_Int_Tables_number   1
_chemical_formula_structural   Zn3H14C30O12F19
_chemical_formula_sum   'Zn6 H28 C60 O24 F38'
_cell_volume   5019.32056488
_cell_formula_units_Z   2
loop_
 _symmetry_equiv_pos_site_id
 _symmetry_equiv_pos_as_xyz
  1  'x, y, z'
loop_
 _atom_site_type_symbol
 _atom_site_label
 _atom_site_symmetry_multiplicity
 _atom_site_fract_x
 _atom_site_fract_y
 _atom_site_fract_z
 _atom_site_occupancy
  Zn  Zn1  1  0.50270400  0.42967400  0.43204900  1
  Zn  Zn2  1  0.50039500  0.57025100  0.56939600  1
  Zn  Zn3  1  0.92998200  0.42958500  0.99974800  1
  Zn  Zn4  1  0.07098900  0.57004300  0.00044400  1
  Zn  Zn5  1  0.07250600  0.00026600  0.57010800  1
  Zn  Zn6  1  0.93005000  0.99976600  0.43147400  1
  H  H1  1  0.22034100  0.61316200  0.31847200  1
  H  H2  1  0.69800300  0.60355400  0.39625500  1
  H  H3  1  0.81279900  0.70578000  0.40809000  1
  H  H4  1  0.71009000  0.76119000  0.37481300  1
  H  H5  1  0.72391300  0.79484300  0.62505800  1
  H  H6  1  0.81536700  0.89788700  0.61509300  1
  H  H7  1  0.62405500  0.75963900  0.47997000  1
  H  H8  1  0.71927000  0.85117200  0.46106700  1
  H  H9  1  0.72941100  0.42990000  0.60841700  1
  H  H10  1  0.63999900  0.35967500  0.61365800  1
  H  H11  1  0.81866700  0.41299300  0.70803600  1
  H  H12  1  0.71176200  0.44613100  0.84577100  1
  H  H13  1  0.76668900  0.56334000  0.89380700  1
  H  H14  1  0.31902700  0.20239900  0.41690800  1
  H  H15  1  0.39698200  0.28181800  0.57787200  1
  H  H16  1  0.29622400  0.18729900  0.58806500  1
  H  H17  1  0.21002600  0.34088000  0.44012800  1
  H  H18  1  0.38087300  0.36689700  0.63841900  1
  H  H19  1  0.27069700  0.26870600  0.63821200  1
  H  H20  1  0.92040700  0.59667500  0.21671400  1
  H  H21  1  0.94150800  0.70504000  0.33281500  1
  H  H22  1  0.09732100  0.79982000  0.40277600  1
  H  H23  1  0.93191600  0.20937400  0.83464700  1
  H  H24  1  0.04940700  0.25489800  0.88872100  1
  H  H25  1  0.86424700  0.23896400  0.71769300  1
  H  H26  1  0.87017100  0.15506400  0.60416900  1
  H  H27  1  0.14468800  0.37613900  0.87812000  1
  H  H28  1  0.95654500  0.24739900  0.61686400  1
  C  C1  1  0.62491900  0.62251100  0.50366500  1
  C  C2  1  0.38175600  0.50094900  0.37921700  1
  C  C3  1  0.37810100  0.37740000  0.49781200  1
  C  C4  1  0.62127500  0.49864800  0.62255700  1
  C  C5  1  0.32291700  0.57650700  0.29477700  1
  C  C6  1  0.23479100  0.56195200  0.28736700  1
  C  C7  1  0.19115400  0.50030300  0.18972900  1
  C  C8  1  0.27907100  0.51607200  0.19772600  1
  C  C9  1  0.26877900  0.43916200  0.21240300  1
  C  C10  1  0.18071300  0.42333100  0.20420200  1
  C  C11  1  0.22482800  0.48399700  0.30125500  1
  C  C12  1  0.31281500  0.49975600  0.30953100  1
  C  C13  1  0.74328400  0.65375400  0.46624000  1
  C  C14  1  0.81836200  0.72578800  0.47334000  1
  C  C15  1  0.65351100  0.72587000  0.44918300  1
  C  C16  1  0.75908300  0.76803700  0.59697400  1
  C  C17  1  0.69500600  0.69162700  0.50416500  1
  C  C18  1  0.81363900  0.80955600  0.50467700  1
  C  C19  1  0.72322500  0.79016200  0.44308000  1
  C  C20  1  0.82574800  0.84075100  0.59622600  1
  C  C21  1  0.70310400  0.42223300  0.65213500  1
  C  C22  1  0.76737200  0.41787100  0.72335700  1
  C  C23  1  0.77658000  0.58390300  0.73750100  1
  C  C24  1  0.66367400  0.49157100  0.75966100  1
  C  C25  1  0.69039500  0.49940600  0.69274800  1
  C  C26  1  0.80889600  0.49978400  0.81011700  1
  C  C27  1  0.84874800  0.58032000  0.80163100  1
  C  C28  1  0.73848800  0.50081100  0.83377200  1
  C  C29  1  0.26776400  0.21986700  0.41755000  1
  C  C30  1  0.20006300  0.14904300  0.41943300  1
  C  C31  1  0.34775500  0.30243400  0.57886400  1
  C  C32  1  0.23682800  0.33186500  0.49697100  1
  C  C33  1  0.30794400  0.30851500  0.49764100  1
  C  C34  1  0.18898800  0.19065100  0.49694700  1
  C  C35  1  0.27630600  0.23541500  0.58072800  1
  C  C36  1  0.16358700  0.25926200  0.49122700  1
  C  C37  1  0.99898700  0.62010500  0.12114900  1
  C  C38  1  0.12272200  0.50049700  0.12087600  1
  C  C39  1  0.00224800  0.37953200  0.87933800  1
  C  C40  1  0.87796600  0.49926800  0.87910900  1
  C  C41  1  0.99932800  0.87851400  0.37747100  1
  C  C42  1  0.88255000  0.87870100  0.50384600  1
  C  C43  1  0.00291600  0.12115800  0.62414600  1
  C  C44  1  0.11998800  0.12158700  0.49787800  1
  C  C45  1  0.92071400  0.64974200  0.20214700  1
  C  C46  1  0.92622500  0.71911600  0.27816600  1
  C  C47  1  0.08276500  0.73370100  0.27745300  1
  C  C48  1  0.99492700  0.75894000  0.16526600  1
  C  C49  1  0.99927900  0.68996000  0.19056500  1
  C  C50  1  0.99892200  0.80852100  0.30807300  1
  C  C51  1  0.08570300  0.80892600  0.34514700  1
  C  C52  1  0.98464500  0.82331600  0.23002700  1
  C  C53  1  0.99080300  0.23344900  0.82777800  1
  C  C54  1  0.97905200  0.15819400  0.75188400  1
  C  C55  1  0.92721200  0.27548800  0.72141900  1
  C  C56  1  0.08937200  0.34601600  0.81135500  1
  C  C57  1  0.00258900  0.30972900  0.81060500  1
  C  C58  1  0.00284000  0.19054400  0.69370700  1
  C  C59  1  0.93560600  0.21436500  0.65158800  1
  C  C60  1  0.09309500  0.27239900  0.74944000  1
  O  O1  1  0.59759900  0.53986400  0.45269500  1
  O  O2  1  0.59269800  0.64741200  0.55353600  1
  O  O3  1  0.41005000  0.44629400  0.35615100  1
  O  O4  1  0.41042800  0.55614900  0.46058100  1
  O  O5  1  0.40947300  0.35250000  0.44699100  1
  O  O6  1  0.40628900  0.46006600  0.54955400  1
  O  O7  1  0.59180900  0.44314400  0.54099400  1
  O  O8  1  0.59382400  0.55427100  0.64508000  1
  O  O9  1  0.94348400  0.53761900  0.09021300  1
  O  O10  1  0.05436400  0.64416300  0.09383600  1
  O  O11  1  0.04015000  0.44854100  0.09305500  1
  O  O12  1  0.14829300  0.55314400  0.09155100  1
  O  O13  1  0.94664400  0.35543900  0.90639400  1
  O  O14  1  0.05749600  0.46200900  0.91000400  1
  O  O15  1  0.85286200  0.44659600  0.90861000  1
  O  O16  1  0.96070400  0.55099100  0.90723100  1
  O  O17  1  0.05260200  0.90712900  0.45969600  1
  O  O18  1  0.94610800  0.90825500  0.35363100  1
  O  O19  1  0.96541800  0.90881900  0.55734100  1
  O  O20  1  0.85723200  0.90633000  0.44920600  1
  O  O21  1  0.05588500  0.09118300  0.64794300  1
  O  O22  1  0.95048200  0.09344600  0.54189000  1
  O  O23  1  0.14524400  0.09425300  0.55281300  1
  O  O24  1  0.03712900  0.09051400  0.44353000  1
  F  F1  1  0.58849500  0.65731200  0.36634800  1
  F  F2  1  0.80164200  0.74132900  0.64949800  1
  F  F3  1  0.90901900  0.86549500  0.65687200  1
  F  F4  1  0.39908600  0.65668900  0.34223400  1
  F  F5  1  0.72365100  0.34416800  0.72689500  1
  F  F6  1  0.79737400  0.59351600  0.67574900  1
  F  F7  1  0.90638500  0.57633700  0.77129900  1
  F  F8  1  0.64425400  0.55589200  0.79378800  1
  F  F9  1  0.59052300  0.41057800  0.72058200  1
  F  F10  1  0.77033400  0.65543700  0.78158500  1
  F  F11  1  0.30797100  0.53363300  0.14323300  1
  F  F12  1  0.89292500  0.65574900  0.88169600  1
  F  F13  1  0.22814000  0.22256700  0.34222700  1
  F  F14  1  0.12150500  0.10412400  0.34201800  1
  F  F15  1  0.22826700  0.09078800  0.42733800  1
  F  F16  1  0.27033000  0.40844000  0.57263900  1
  F  F17  1  0.08788600  0.22313300  0.41344800  1
  F  F18  1  0.28605500  0.37507500  0.17267200  1
  F  F19  1  0.14977200  0.29439600  0.55953700  1
  F  F20  1  0.84280900  0.61511900  0.12714200  1
  F  F21  1  0.84643000  0.71679100  0.25343800  1
  F  F22  1  0.08313200  0.67346800  0.30491300  1
  F  F23  1  0.07061000  0.80460600  0.16552000  1
  F  F24  1  0.10528300  0.34252600  0.15674300  1
  F  F25  1  0.92440800  0.71932100  0.08249100  1
  F  F26  1  0.90135100  0.81120400  0.18813500  1
  F  F27  1  0.04529800  0.90765300  0.25764100  1
  F  F28  1  0.15661600  0.76525800  0.26982900  1
  F  F29  1  0.15476900  0.88732700  0.37005400  1
  F  F30  1  0.03160100  0.12634800  0.78454600  1
  F  F31  1  0.89255800  0.09179000  0.70411500  1
  F  F32  1  0.19644000  0.46561400  0.35573100  1
  F  F33  1  0.09850200  0.40852900  0.78567700  1
  F  F34  1  0.15459800  0.25681200  0.79744100  1
  F  F35  1  0.11857800  0.29741000  0.69635000  1
  F  F36  1  0.92759700  0.34397600  0.70767500  1
  F  F37  1  0.77605000  0.61537300  0.51038600  1
  F  F38  1  0.89704600  0.73807000  0.53031000  1
