# generated using pymatgen
data_Zn2H16C29N2O9
_symmetry_space_group_name_H-M   'P 1'
_cell_length_a   16.13388700
_cell_length_b   10.97519400
_cell_length_c   9.83603800
_cell_angle_alpha   90.00452900
_cell_angle_beta   90.01209100
_cell_angle_gamma   90.00624400
_symmetry_Int_Tables_number   1
_chemical_formula_structural   Zn2H16C29N2O9
_chemical_formula_sum   'Zn2 H16 C29 N2 O9'
_cell_volume   1741.69217565
_cell_formula_units_Z   1
loop_
 _symmetry_equiv_pos_site_id
 _symmetry_equiv_pos_as_xyz
  1  'x, y, z'
loop_
 _atom_site_type_symbol
 _atom_site_label
 _atom_site_symmetry_multiplicity
 _atom_site_fract_x
 _atom_site_fract_y
 _atom_site_fract_z
 _atom_site_occupancy
  Zn  Zn1  1  0.50008200  0.49363100  0.65442800  1
  Zn  Zn2  1  0.50113300  0.49340900  0.34473600  1
  H  H1  1  0.07774700  0.52891100  0.71156100  1
  H  H2  1  0.92529400  0.52778100  0.71353300  1
  H  H3  1  0.92344900  0.45931600  0.28714300  1
  H  H4  1  0.07591800  0.46038400  0.28517500  1
  H  H5  1  0.49317900  0.10439500  0.28060700  1
  H  H6  1  0.49393500  0.88307700  0.28005500  1
  H  H7  1  0.45440400  0.88130200  0.81035400  1
  H  H8  1  0.57109600  0.88236700  0.79760900  1
  H  H9  1  0.45355000  0.10213600  0.81147600  1
  H  H10  1  0.57020600  0.10371400  0.79872500  1
  H  H11  1  0.61067500  0.59703500  0.12242000  1
  H  H12  1  0.60870400  0.59641100  0.87222800  1
  H  H13  1  0.37042000  0.27660700  0.87673400  1
  H  H14  1  0.31510200  0.41704300  0.13219300  1
  H  H15  1  0.37886500  0.27292400  0.12627100  1
  H  H16  1  0.28398400  0.53433700  0.90787200  1
  C  C1  1  0.50005500  0.25509700  0.49980100  1
  C  C2  1  0.33865600  0.49472700  0.49761400  1
  C  C3  1  0.50142000  0.73188800  0.49901600  1
  C  C4  1  0.66256800  0.49253300  0.50144300  1
  C  C5  1  0.95838400  0.51297100  0.61942000  1
  C  C6  1  0.91513700  0.49341500  0.50047200  1
  C  C7  1  0.95735900  0.47459500  0.38039900  1
  C  C8  1  0.04282900  0.47523700  0.37928000  1
  C  C9  1  0.08607700  0.49475100  0.49824100  1
  C  C10  1  0.04385000  0.51363300  0.61829800  1
  C  C11  1  0.82619700  0.49288100  0.50150600  1
  C  C12  1  0.17502200  0.49502600  0.49728400  1
  C  C13  1  0.24971100  0.49503700  0.49702600  1
  C  C14  1  0.75151000  0.49259000  0.50188000  1
  C  C15  1  0.50436700  0.05374400  0.61528000  1
  C  C16  1  0.50017900  0.12164500  0.49828500  1
  C  C17  1  0.49656100  0.05710800  0.37680300  1
  C  C18  1  0.49703800  0.93009200  0.37645200  1
  C  C19  1  0.50118500  0.86523300  0.49759600  1
  C  C20  1  0.50484900  0.93267000  0.61482800  1
  C  C21  1  0.51098600  0.92154200  0.76472200  1
  C  C22  1  0.51044300  0.06371600  0.76533900  1
  C  C23  1  0.44261400  0.43802700  0.06781100  1
  C  C24  1  0.56130500  0.55022200  0.06959700  1
  C  C25  1  0.56001200  0.55009600  0.92717500  1
  C  C26  1  0.44032300  0.43970100  0.93418700  1
  C  C27  1  0.36287000  0.36717900  0.92478900  1
  C  C28  1  0.36615800  0.36482000  0.08430000  1
  C  C29  1  0.29127000  0.44052200  0.87548800  1
  N  N1  1  0.50155900  0.49251500  0.14136800  1
  N  N2  1  0.49861700  0.49335600  0.85785800  1
  O  O1  1  0.49974700  0.31190800  0.61746100  1
  O  O2  1  0.50038000  0.31201800  0.38247500  1
  O  O3  1  0.37680300  0.49443500  0.61536500  1
  O  O4  1  0.37747700  0.49428600  0.38049800  1
  O  O5  1  0.50091400  0.67517400  0.61658500  1
  O  O6  1  0.50146900  0.67489000  0.38188600  1
  O  O7  1  0.62374800  0.49268900  0.61862000  1
  O  O8  1  0.62443900  0.49267600  0.38368000  1
  O  O9  1  0.24019600  0.39451100  0.79993700  1
