# generated using pymatgen
data_Zn2H21C43N9O8
_symmetry_space_group_name_H-M   'P 1'
_cell_length_a   13.68099800
_cell_length_b   15.94681800
_cell_length_c   17.09806400
_cell_angle_alpha   90.89284900
_cell_angle_beta   88.98871200
_cell_angle_gamma   103.28249700
_symmetry_Int_Tables_number   1
_chemical_formula_structural   Zn2H21C43N9O8
_chemical_formula_sum   'Zn2 H21 C43 N9 O8'
_cell_volume   3629.64909725
_cell_formula_units_Z   1
loop_
 _symmetry_equiv_pos_site_id
 _symmetry_equiv_pos_as_xyz
  1  'x, y, z'
loop_
 _atom_site_type_symbol
 _atom_site_label
 _atom_site_symmetry_multiplicity
 _atom_site_fract_x
 _atom_site_fract_y
 _atom_site_fract_z
 _atom_site_occupancy
  Zn  Zn1  1  0.50119400  0.40620900  0.49933800  1
  Zn  Zn2  1  0.49745200  0.59574800  0.49065700  1
  H  H1  1  0.80853900  0.69579600  0.54806000  1
  H  H2  1  0.13780500  0.68548100  0.58989900  1
  H  H3  1  0.98645300  0.72862100  0.57639500  1
  H  H4  1  0.82101700  0.44485800  0.47207600  1
  H  H5  1  0.19468000  0.30816600  0.44430100  1
  H  H6  1  0.90963100  0.36025500  0.44619300  1
  H  H7  1  0.01637400  0.26514900  0.42204400  1
  H  H8  1  0.23904300  0.58413900  0.57258200  1
  H  H9  1  0.49616100  0.38325700  0.74935500  1
  H  H10  1  0.49936600  0.39127100  0.88911700  1
  H  H11  1  0.51581700  0.35359100  0.25085300  1
  H  H12  1  0.48514500  0.64897200  0.73900300  1
  H  H13  1  0.50237400  0.61148300  0.10085000  1
  H  H14  1  0.48837000  0.65753400  0.88129000  1
  H  H15  1  0.50469400  0.61923700  0.24062300  1
  H  H16  1  0.41582700  0.09103900  0.42048800  1
  H  H17  1  0.37968300  0.85210900  0.38981400  1
  H  H18  1  0.60654200  0.30871200  0.59842300  1
  H  H19  1  0.59511300  0.90709900  0.57267300  1
  H  H20  1  0.62100400  0.15904800  0.61009400  1
  H  H21  1  0.59847200  0.75570400  0.57421300  1
  C  C1  1  0.50797900  0.49204300  0.34198600  1
  C  C2  1  0.30213300  0.45814300  0.49253500  1
  C  C3  1  0.49145400  0.51010900  0.64797100  1
  C  C4  1  0.69574000  0.54391200  0.49952600  1
  C  C5  1  0.95162600  0.66607800  0.55222100  1
  C  C6  1  0.80508300  0.56692400  0.50852200  1
  C  C7  1  0.14887000  0.35288100  0.45959900  1
  C  C8  1  0.04796400  0.32840200  0.44624700  1
  C  C9  1  0.98709100  0.38442900  0.46067300  1
  C  C10  1  0.02556800  0.46610000  0.49253200  1
  C  C11  1  0.12814600  0.48959200  0.50922700  1
  C  C12  1  0.96437700  0.52481700  0.50816900  1
  C  C13  1  0.00737500  0.60509400  0.53957900  1
  C  C14  1  0.10602700  0.62465700  0.56127300  1
  C  C15  1  0.16491700  0.56692100  0.54857400  1
  C  C16  1  0.86121500  0.50616500  0.49412700  1
  C  C17  1  0.85113200  0.64770100  0.53580300  1
  C  C18  1  0.19109800  0.43395400  0.48883200  1
  C  C19  1  0.50995700  0.48698400  0.25621800  1
  C  C20  1  0.50682900  0.55852900  0.21251700  1
  C  C21  1  0.50532400  0.55362700  0.13192600  1
  C  C22  1  0.50717400  0.47641400  0.09400800  1
  C  C23  1  0.51163200  0.40546300  0.13772600  1
  C  C24  1  0.51294700  0.41046100  0.21828100  1
  C  C25  1  0.49616100  0.44905900  0.85802300  1
  C  C26  1  0.49409400  0.44400000  0.77744200  1
  C  C27  1  0.49445600  0.52632600  0.89590300  1
  C  C28  1  0.49041500  0.51541300  0.73372100  1
  C  C29  1  0.48796400  0.59208900  0.77160000  1
  C  C30  1  0.48984600  0.59719200  0.85213800  1
  C  C31  1  0.55036700  0.77733300  0.53335100  1
  C  C32  1  0.54800200  0.86357800  0.53231600  1
  C  C33  1  0.48597200  0.89118600  0.48022700  1
  C  C34  1  0.42866000  0.83175200  0.43077400  1
  C  C35  1  0.43242600  0.74644200  0.43342000  1
  C  C36  1  0.45932300  0.13638600  0.46144000  1
  C  C37  1  0.45272500  0.22108200  0.45639500  1
  C  C38  1  0.52033600  0.11292200  0.51697200  1
  C  C39  1  0.56445500  0.25985800  0.55970600  1
  C  C40  1  0.57283400  0.17567200  0.56632700  1
  C  C41  1  0.51394100  0.32542300  0.09902900  1
  C  C42  1  0.38995700  0.24321300  0.39746800  1
  C  C43  1  0.36993400  0.68661500  0.38136200  1
  N  N1  1  0.50418200  0.46775300  0.01152100  1
  N  N2  1  0.49759800  0.53507800  0.97837900  1
  N  N3  1  0.49305300  0.72002200  0.48443800  1
  N  N4  1  0.47843900  0.97791100  0.47553000  1
  N  N5  1  0.53037000  0.02690900  0.52394600  1
  N  N6  1  0.50507600  0.28173800  0.50522300  1
  N  N7  1  0.51580400  0.26087400  0.06785800  1
  N  N8  1  0.33934700  0.26037900  0.34958300  1
  N  N9  1  0.31919900  0.63884300  0.33921000  1
  O  O1  1  0.50666400  0.42225200  0.38187700  1
  O  O2  1  0.50553500  0.56597400  0.37547200  1
  O  O3  1  0.35092900  0.39631300  0.49586600  1
  O  O4  1  0.34889700  0.53945500  0.48819400  1
  O  O5  1  0.49480000  0.43608900  0.61462300  1
  O  O6  1  0.49169500  0.57996100  0.60815200  1
  O  O7  1  0.64995800  0.46198400  0.50121500  1
  O  O8  1  0.64767400  0.60616800  0.49530000  1
