# generated using pymatgen
data_ZnH8C16N2O5
_symmetry_space_group_name_H-M   'P 1'
_cell_length_a   8.54058500
_cell_length_b   11.37452500
_cell_length_c   12.81401400
_cell_angle_alpha   96.94139500
_cell_angle_beta   93.58660900
_cell_angle_gamma   90.15922100
_symmetry_Int_Tables_number   1
_chemical_formula_structural   ZnH8C16N2O5
_chemical_formula_sum   'Zn2 H16 C32 N4 O10'
_cell_volume   1233.20705630
_cell_formula_units_Z   2
loop_
 _symmetry_equiv_pos_site_id
 _symmetry_equiv_pos_as_xyz
  1  'x, y, z'
loop_
 _atom_site_type_symbol
 _atom_site_label
 _atom_site_symmetry_multiplicity
 _atom_site_fract_x
 _atom_site_fract_y
 _atom_site_fract_z
 _atom_site_occupancy
  Zn  Zn1  1  0.50377100  0.86788000  0.48977100  1
  Zn  Zn2  1  0.50730200  0.13208300  0.50874600  1
  H  H1  1  0.71858300  0.01259000  0.15053000  1
  H  H2  1  0.29244800  0.98740100  0.84810100  1
  H  H3  1  0.22069600  0.01211900  0.14306600  1
  H  H4  1  0.79032700  0.98798000  0.85543400  1
  H  H5  1  0.00549100  0.95768400  0.42151300  1
  H  H6  1  0.00574500  0.04221900  0.57700400  1
  H  H7  1  0.48034200  0.29560900  0.36086000  1
  H  H8  1  0.54618900  0.70435400  0.63671000  1
  H  H9  1  0.54004900  0.29613000  0.68643500  1
  H  H10  1  0.45493000  0.70362100  0.31312600  1
  H  H11  1  0.53196500  0.59102800  0.15966800  1
  H  H12  1  0.38588000  0.44839600  0.00368400  1
  H  H13  1  0.22655300  0.29331800  0.09307700  1
  H  H14  1  0.71776300  0.40738300  0.81448800  1
  H  H15  1  0.67487100  0.55250100  0.98890200  1
  H  H16  1  0.46744800  0.70977000  0.93571100  1
  C  C1  1  0.84871100  0.98948800  0.29384100  1
  C  C2  1  0.16243600  0.01047200  0.70474100  1
  C  C3  1  0.83373300  0.00483100  0.18901300  1
  C  C4  1  0.17732600  0.99515800  0.80957400  1
  C  C5  1  0.96558700  0.00569900  0.13194200  1
  C  C6  1  0.04543000  0.99433100  0.86660500  1
  C  C7  1  0.11453000  0.00365100  0.18339100  1
  C  C8  1  0.89651500  0.99640600  0.81512000  1
  C  C9  1  0.12762200  0.99020300  0.28950500  1
  C  C10  1  0.88349100  0.00981000  0.70899300  1
  C  C11  1  0.99460200  0.97540700  0.34118200  1
  C  C12  1  0.01656800  0.02453500  0.65734400  1
  C  C13  1  0.71417000  0.99332400  0.35854300  1
  C  C14  1  0.29705000  0.00665800  0.64010000  1
  C  C15  1  0.73378000  0.00534500  0.64595100  1
  C  C16  1  0.27735200  0.99465400  0.35250500  1
  C  C17  1  0.46144900  0.53230600  0.36421300  1
  C  C18  1  0.52887400  0.46763800  0.63589400  1
  C  C19  1  0.47315100  0.65418200  0.37952800  1
  C  C20  1  0.52859700  0.34562100  0.61960900  1
  C  C21  1  0.51963100  0.65361600  0.56126900  1
  C  C22  1  0.48858500  0.34638800  0.43752700  1
  C  C23  1  0.50971800  0.53081400  0.54982700  1
  C  C24  1  0.48455600  0.46928500  0.45005400  1
  C  C25  1  0.41565800  0.47468900  0.25790100  1
  C  C26  1  0.45648600  0.51643800  0.16695800  1
  C  C27  1  0.38220300  0.44372700  0.08723200  1
  C  C28  1  0.29983600  0.36353700  0.13489500  1
  C  C29  1  0.54642900  0.52513300  0.74482300  1
  C  C30  1  0.64089800  0.48284600  0.82236900  1
  C  C31  1  0.61923400  0.55691700  0.91138800  1
  C  C32  1  0.51137500  0.63821900  0.88243800  1
  N  N1  1  0.94396000  0.00955400  0.02215900  1
  N  N2  1  0.06701100  0.99048400  0.97639000  1
  N  N3  1  0.51024500  0.28726800  0.52185600  1
  N  N4  1  0.50042100  0.71266500  0.47669700  1
  O  O1  1  0.66866900  0.09736900  0.40128400  1
  O  O2  1  0.34271400  0.90270200  0.59742700  1
  O  O3  1  0.66055000  0.89288500  0.38321900  1
  O  O4  1  0.35056400  0.10700100  0.61530000  1
  O  O5  1  0.68077800  0.90133100  0.60131200  1
  O  O6  1  0.33045000  0.09858000  0.39711000  1
  O  O7  1  0.67808300  0.10556900  0.61904000  1
  O  O8  1  0.33288000  0.89453300  0.37959700  1
  O  O9  1  0.31846400  0.38251800  0.23895500  1
  O  O10  1  0.46551500  0.61887000  0.78110700  1
