# generated using pymatgen
data_FeH14(C11O4)2
_symmetry_space_group_name_H-M   'P 1'
_cell_length_a   15.86017000
_cell_length_b   10.28476800
_cell_length_c   12.97706100
_cell_angle_alpha   82.89279900
_cell_angle_beta   88.15646100
_cell_angle_gamma   107.82513300
_symmetry_Int_Tables_number   1
_chemical_formula_structural   FeH14(C11O4)2
_chemical_formula_sum   'Fe2 H28 C44 O16'
_cell_volume   1994.18992381
_cell_formula_units_Z   2
loop_
 _symmetry_equiv_pos_site_id
 _symmetry_equiv_pos_as_xyz
  1  'x, y, z'
loop_
 _atom_site_type_symbol
 _atom_site_label
 _atom_site_symmetry_multiplicity
 _atom_site_fract_x
 _atom_site_fract_y
 _atom_site_fract_z
 _atom_site_occupancy
  Fe  Fe1  1  0.51436200  0.98724400  0.21961200  1
  Fe  Fe2  1  0.49720400  0.96793900  0.77004800  1
  H  H1  1  0.19472900  0.01879600  0.83174200  1
  H  H2  1  0.23640100  0.96715900  0.20436400  1
  H  H3  1  0.09144100  0.09266200  0.79233500  1
  H  H4  1  0.95561100  0.08966500  0.74080400  1
  H  H5  1  0.08652300  0.94203900  0.24506300  1
  H  H6  1  0.94476200  0.94247900  0.19758000  1
  H  H7  1  0.83573900  0.99449900  0.15141700  1
  H  H8  1  0.48717300  0.79943100  0.52958000  1
  H  H9  1  0.54393700  0.47584500  0.70907800  1
  H  H10  1  0.57532300  0.17828800  0.46620000  1
  H  H11  1  0.40206800  0.52710700  0.30040400  1
  H  H12  1  0.37314000  0.34921900  0.30239600  1
  H  H13  1  0.45555500  0.36125300  0.14932300  1
  H  H14  1  0.53923300  0.51911100  0.16658000  1
  H  H15  1  0.43829900  0.65068300  0.11793600  1
  H  H16  1  0.34520200  0.49432300  0.12539400  1
  H  H17  1  0.51119700  0.56551600  0.97478900  1
  H  H18  1  0.40836800  0.59744800  0.94252800  1
  H  H19  1  0.40986500  0.42280400  0.97810500  1
  H  H20  1  0.71933700  0.95291800  0.72973500  1
  H  H21  1  0.82795000  0.96563800  0.70677600  1
  H  H22  1  0.87205200  0.22790600  0.69962600  1
  H  H23  1  0.75792200  0.21173500  0.72752500  1
  H  H24  1  0.71790000  0.10350200  0.56758200  1
  H  H25  1  0.83272400  0.11487700  0.54002200  1
  H  H26  1  0.76247500  0.35909700  0.55869100  1
  H  H27  1  0.79450400  0.30747800  0.43905500  1
  H  H28  1  0.87702700  0.36952400  0.52939900  1
  C  C1  1  0.29691700  0.99768300  0.05077200  1
  C  C2  1  0.28384400  0.00936300  0.94573300  1
  C  C3  1  0.20261500  0.01574600  0.91378000  1
  C  C4  1  0.22677600  0.97973000  0.12210000  1
  C  C5  1  0.14570100  0.98457300  0.08992200  1
  C  C6  1  0.13322500  0.00899000  0.98560500  1
  C  C7  1  0.05113500  0.02134500  0.95609500  1
  C  C8  1  0.03888300  0.05971800  0.85331300  1
  C  C9  1  0.95745200  0.05968200  0.82280900  1
  C  C10  1  0.07717000  0.96443700  0.16341100  1
  C  C11  1  0.99523400  0.96755300  0.13468500  1
  C  C12  1  0.98068800  0.99917000  0.03054600  1
  C  C13  1  0.89714400  0.00540300  0.99902600  1
  C  C14  1  0.88433800  0.02619300  0.89384300  1
  C  C15  1  0.79947500  0.01416800  0.86027500  1
  C  C16  1  0.82659500  0.99417900  0.07009000  1
  C  C17  1  0.74265400  0.98810700  0.03955800  1
  C  C18  1  0.72724800  0.98926600  0.93382300  1
  C  C19  1  0.67396800  0.98486600  0.12216400  1
  C  C20  1  0.51747300  0.74098200  0.34468300  1
  C  C21  1  0.38420800  0.01057400  0.08905600  1
  C  C22  1  0.50482700  0.21623000  0.29947500  1
  C  C23  1  0.51164200  0.71337600  0.71563200  1
  C  C24  1  0.63597400  0.96025600  0.89968700  1
  C  C25  1  0.54681500  0.23410400  0.64812000  1
  C  C26  1  0.35299600  0.00937600  0.86713000  1
  C  C27  1  0.50529200  0.64460100  0.44217500  1
  C  C28  1  0.49535000  0.69873400  0.53241200  1
  C  C29  1  0.50670800  0.63559500  0.62756000  1
  C  C30  1  0.52969100  0.51660700  0.63375100  1
  C  C31  1  0.53326200  0.45319800  0.54542100  1
  C  C32  1  0.51438600  0.51234800  0.44905000  1
  C  C33  1  0.49801600  0.43213100  0.36667500  1
  C  C34  1  0.52743700  0.31735700  0.37221600  1
  C  C35  1  0.55978600  0.27397200  0.46191300  1
  C  C36  1  0.55274700  0.32917400  0.55161500  1
  C  C37  1  0.43083900  0.44454500  0.28862100  1
  C  C38  1  0.46702900  0.46322700  0.17547400  1
  C  C39  1  0.41776400  0.54074500  0.10613800  1
  C  C40  1  0.43830000  0.53098300  0.99300200  1
  C  C41  1  0.78586900  0.01661200  0.74508600  1
  C  C42  1  0.80308800  0.16395300  0.69141700  1
  C  C43  1  0.78785200  0.16308100  0.57658800  1
  C  C44  1  0.80674300  0.30951200  0.52258700  1
  O  O1  1  0.59510900  0.99081400  0.09899100  1
  O  O2  1  0.55738200  0.72338500  0.26006800  1
  O  O3  1  0.69343600  0.98331200  0.21977100  1
  O  O4  1  0.49941900  0.85646300  0.34931100  1
  O  O5  1  0.39049800  0.93086900  0.17324600  1
  O  O6  1  0.45425800  0.11133600  0.04688900  1
  O  O7  1  0.56806900  0.17706900  0.25752100  1
  O  O8  1  0.42252100  0.13509700  0.30386600  1
  O  O9  1  0.45345100  0.77998400  0.72533200  1
  O  O10  1  0.58624000  0.74845000  0.76076000  1
  O  O11  1  0.61991900  0.03677900  0.81862900  1
  O  O12  1  0.57287000  0.84972700  0.94338400  1
  O  O13  1  0.35222600  0.06498900  0.77073600  1
  O  O14  1  0.50620900  0.10275200  0.64407200  1
  O  O15  1  0.41244700  0.94709400  0.89093600  1
  O  O16  1  0.58404400  0.27436100  0.73240900  1
