# generated using pymatgen
data_CuH15C28NClO4
_symmetry_space_group_name_H-M   'P 1'
_cell_length_a   19.82019000
_cell_length_b   18.74124900
_cell_length_c   12.23003200
_cell_angle_alpha   90.00000000
_cell_angle_beta   128.91628200
_cell_angle_gamma   90.00000000
_symmetry_Int_Tables_number   1
_chemical_formula_structural   CuH15C28NClO4
_chemical_formula_sum   'Cu4 H60 C112 N4 Cl4 O16'
_cell_volume   3534.67616108
_cell_formula_units_Z   4
loop_
 _symmetry_equiv_pos_site_id
 _symmetry_equiv_pos_as_xyz
  1  'x, y, z'
loop_
 _atom_site_type_symbol
 _atom_site_label
 _atom_site_symmetry_multiplicity
 _atom_site_fract_x
 _atom_site_fract_y
 _atom_site_fract_z
 _atom_site_occupancy
  Cu  Cu1  1  0.52470800  0.99940800  0.42224000  1
  Cu  Cu2  1  0.02472600  0.49887200  0.42259300  1
  Cu  Cu3  1  0.47784000  0.99879400  0.58462600  1
  Cu  Cu4  1  0.97761900  0.49966300  0.58462600  1
  H  H1  1  0.24637000  0.87111500  0.32302000  1
  H  H2  1  0.23363800  0.11101900  0.29595100  1
  H  H3  1  0.74649500  0.37041700  0.32508300  1
  H  H4  1  0.73357700  0.61101700  0.29475900  1
  H  H5  1  0.54992200  0.23287900  0.93304100  1
  H  H6  1  0.54085700  0.75162200  0.90342300  1
  H  H7  1  0.04893900  0.73383900  0.93038800  1
  H  H8  1  0.04197200  0.25287700  0.90713500  1
  H  H9  1  0.62360500  0.29800000  0.14273200  1
  H  H10  1  0.60929900  0.67898300  0.10451300  1
  H  H11  1  0.12370600  0.79916800  0.14223800  1
  H  H12  1  0.10956200  0.17979300  0.10599700  1
  H  H13  1  0.37663300  0.82289500  0.16114900  1
  H  H14  1  0.38062700  0.18199900  0.17557700  1
  H  H15  1  0.87759800  0.32210400  0.16415600  1
  H  H16  1  0.88101900  0.68132300  0.17559800  1
  H  H17  1  0.38286700  0.75763400  0.03473700  1
  H  H18  1  0.38784200  0.24674500  0.04921300  1
  H  H19  1  0.88391200  0.25680600  0.03756500  1
  H  H20  1  0.88574500  0.74335100  0.04398200  1
  H  H21  1  0.36719600  0.71779800  0.83966300  1
  H  H22  1  0.37742500  0.29112500  0.86169500  1
  H  H23  1  0.86831800  0.21637900  0.84355800  1
  H  H24  1  0.87642600  0.78939000  0.85757300  1
  H  H25  1  0.54157700  0.18060800  0.74827700  1
  H  H26  1  0.54022000  0.81355500  0.73444500  1
  H  H27  1  0.04071000  0.68251900  0.74460200  1
  H  H28  1  0.04117400  0.31492800  0.73765000  1
  H  H29  1  0.69310300  0.00277700  0.47851100  1
  H  H30  1  0.19205700  0.50112800  0.47834900  1
  H  H31  1  0.71339300  0.00253700  0.12379000  1
  H  H32  1  0.21275300  0.50298200  0.12260700  1
  H  H33  1  0.74212400  0.00370900  0.33986600  1
  H  H34  1  0.24143500  0.50204900  0.33878200  1
  H  H35  1  0.43395900  0.00095500  0.11586900  1
  H  H36  1  0.93346500  0.49818900  0.11530200  1
  H  H37  1  0.31397900  0.99822900  0.52381100  1
  H  H38  1  0.81330100  0.49732400  0.52316100  1
  H  H39  1  0.34788800  0.00117800  0.89828900  1
  H  H40  1  0.84680000  0.49435500  0.89719700  1
  H  H41  1  0.25500400  0.00050600  0.64675400  1
  H  H42  1  0.75440500  0.49325700  0.64752500  1
  H  H43  1  0.61690700  0.99913900  0.87579500  1
  H  H44  1  0.11621500  0.50193900  0.87489600  1
  H  H45  1  0.85995100  0.11350100  0.72022300  1
  H  H46  1  0.72707400  0.15800500  0.28795900  1
  H  H47  1  0.60340600  0.20479400  0.26582900  1
  H  H48  1  0.60965400  0.21103400  0.47234100  1
  H  H49  1  0.61937500  0.79400200  0.47761100  1
  H  H50  1  0.74049400  0.85653700  0.30451000  1
  H  H51  1  0.86728500  0.90068200  0.53728300  1
  H  H52  1  0.86816700  0.89479100  0.73729900  1
  H  H53  1  0.35897100  0.61418000  0.71815600  1
  H  H54  1  0.22635100  0.65680500  0.28539400  1
  H  H55  1  0.10207000  0.70429300  0.26235400  1
  H  H56  1  0.10850400  0.71110900  0.46876700  1
  H  H57  1  0.11983700  0.29434700  0.48135600  1
  H  H58  1  0.24158800  0.35502000  0.30760700  1
  H  H59  1  0.36727000  0.39929000  0.53766400  1
  H  H60  1  0.36904100  0.39472100  0.73948400  1
  C  C1  1  0.61378300  0.89962400  0.65630500  1
  C  C2  1  0.61106900  0.10051700  0.65412700  1
  C  C3  1  0.11435800  0.40058300  0.65898800  1
  C  C4  1  0.11068400  0.60117800  0.65209500  1
  C  C5  1  0.38550400  0.09443800  0.34558700  1
  C  C6  1  0.38806200  0.90180400  0.34780100  1
  C  C7  1  0.88525100  0.59404500  0.34388800  1
  C  C8  1  0.88860800  0.40114900  0.35048800  1
  C  C9  1  0.68016400  0.30125500  0.14838800  1
  C  C10  1  0.66970700  0.68259000  0.12166100  1
  C  C11  1  0.17999000  0.80173100  0.14705700  1
  C  C12  1  0.17018200  0.18347100  0.12386800  1
  C  C13  1  0.31922200  0.85037400  0.25149600  1
  C  C14  1  0.31517700  0.14420000  0.24680900  1
  C  C15  1  0.81962400  0.34993800  0.25391500  1
  C  C16  1  0.81484200  0.64349900  0.24459800  1
  C  C17  1  0.74174500  0.17230400  0.73582500  1
  C  C18  1  0.74831200  0.83125000  0.74440400  1
  C  C19  1  0.24072000  0.67372700  0.73242300  1
  C  C20  1  0.24897300  0.33230400  0.74755900  1
  C  C21  1  0.31423900  0.70822600  0.84169800  1
  C  C22  1  0.32250500  0.29873300  0.85924800  1
  C  C23  1  0.81542300  0.20666100  0.84552100  1
  C  C24  1  0.82157500  0.79708400  0.85546500  1
  C  C25  1  0.32133900  0.73408200  0.95282700  1
  C  C26  1  0.32662100  0.27032000  0.96605700  1
  C  C27  1  0.82239900  0.23293300  0.95627000  1
  C  C28  1  0.82531300  0.76810200  0.96177700  1
  C  C29  1  0.75155400  0.23249100  0.95399500  1
  C  C30  1  0.75209200  0.76581200  0.95316700  1
  C  C31  1  0.25062600  0.73335100  0.95097200  1
  C  C32  1  0.25305800  0.26730000  0.95664400  1
  C  C33  1  0.67739100  0.19486300  0.84631200  1
  C  C34  1  0.67818100  0.80291700  0.84343400  1
  C  C35  1  0.17640900  0.69609600  0.84307500  1
  C  C36  1  0.17902200  0.30421500  0.84667200  1
  C  C37  1  0.25201500  0.77028400  0.05279600  1
  C  C38  1  0.25100600  0.22661800  0.05162500  1
  C  C39  1  0.75267100  0.26992800  0.05502900  1
  C  C40  1  0.75037900  0.72549100  0.04885600  1
  C  C41  1  0.68101000  0.26661800  0.04973400  1
  C  C42  1  0.67459600  0.72269400  0.03204900  1
  C  C43  1  0.18042500  0.76711100  0.04784600  1
  C  C44  1  0.17530200  0.22383800  0.03481300  1
  C  C45  1  0.60752500  0.23175200  0.94146600  1
  C  C46  1  0.60131800  0.75680500  0.92090500  1
  C  C47  1  0.10662700  0.73269900  0.93886100  1
  C  C48  1  0.10221200  0.25812100  0.92404600  1
  C  C49  1  0.60440600  0.19874600  0.83837200  1
  C  C50  1  0.60231100  0.79502000  0.82634800  1
  C  C51  1  0.10345200  0.70024200  0.83516900  1
  C  C52  1  0.10317100  0.29626400  0.82944800  1
  C  C53  1  0.32102700  0.81378200  0.15519300  1
  C  C54  1  0.32072600  0.18517400  0.15850700  1
  C  C55  1  0.82156100  0.31352600  0.15746500  1
  C  C56  1  0.82050900  0.68445100  0.15668700  1
  C  C57  1  0.24952200  0.84244400  0.24973000  1
  C  C58  1  0.24014200  0.14450000  0.23102700  1
  C  C59  1  0.74965200  0.34207600  0.25148600  1
  C  C60  1  0.73983800  0.64400300  0.22908200  1
  C  C61  1  0.67558200  0.15824300  0.74348700  1
  C  C62  1  0.67937600  0.84256300  0.74643900  1
  C  C63  1  0.17464800  0.65954200  0.74023300  1
  C  C64  1  0.18009400  0.34378700  0.74963900  1
  C  C65  1  0.67342400  0.00292100  0.28714700  1
  C  C66  1  0.17287000  0.50093500  0.28678500  1
  C  C67  1  0.35806500  0.99886000  0.63716500  1
  C  C68  1  0.85735200  0.49771600  0.63658100  1
  C  C69  1  0.32444500  0.99999700  0.70648900  1
  C  C70  1  0.82380400  0.49547500  0.70621300  1
  C  C71  1  0.37849300  0.00068600  0.85067500  1
  C  C72  1  0.87782400  0.49609500  0.85016200  1
  C  C73  1  0.46772800  0.00095500  0.92666200  1
  C  C74  1  0.96712300  0.49832200  0.92620900  1
  C  C75  1  0.49941300  0.00000600  0.85152000  1
  C  C76  1  0.99883200  0.49973500  0.85107700  1
  C  C77  1  0.52624700  0.00190100  0.07511600  1
  C  C78  1  0.02568500  0.49892000  0.07464600  1
  C  C79  1  0.61415000  0.00250100  0.14313300  1
  C  C80  1  0.11364700  0.50025200  0.14270800  1
  C  C81  1  0.64446200  0.00238200  0.06909500  1
  C  C82  1  0.14386600  0.50141500  0.06838000  1
  C  C83  1  0.58818400  0.00082700  0.92564500  1
  C  C84  1  0.08752800  0.50119700  0.92496100  1
  C  C85  1  0.50074000  0.00126600  0.15912700  1
  C  C86  1  0.00033900  0.49855300  0.15886800  1
  C  C87  1  0.64565500  0.00184600  0.36504500  1
  C  C88  1  0.14520700  0.50037400  0.36494200  1
  C  C89  1  0.73389500  0.16040800  0.60946100  1
  C  C90  1  0.80298600  0.13334800  0.62076200  1
  C  C91  1  0.80076700  0.13300000  0.50581900  1
  C  C92  1  0.72902300  0.15851300  0.37828900  1
  C  C93  1  0.65953900  0.18460000  0.36582700  1
  C  C94  1  0.66257700  0.18691200  0.48155800  1
  C  C95  1  0.74314100  0.84497400  0.62110900  1
  C  C96  1  0.67316400  0.81932000  0.49102100  1
  C  C97  1  0.67145000  0.82543800  0.37715200  1
  C  C98  1  0.74165300  0.85340100  0.39389700  1
  C  C99  1  0.81209500  0.87839000  0.52353000  1
  C  C100  1  0.81252700  0.87481000  0.63651800  1
  C  C101  1  0.23303400  0.66145500  0.60646000  1
  C  C102  1  0.30207300  0.63384800  0.61831800  1
  C  C103  1  0.29973100  0.63252400  0.50329000  1
  C  C104  1  0.22804700  0.65795900  0.37545700  1
  C  C105  1  0.15850900  0.68448000  0.36253800  1
  C  C106  1  0.16157900  0.68730500  0.47818100  1
  C  C107  1  0.24374200  0.34529600  0.62397400  1
  C  C108  1  0.17370000  0.31927200  0.49432100  1
  C  C109  1  0.17192900  0.32445800  0.38029800  1
  C  C110  1  0.24219600  0.35187100  0.39649800  1
  C  C111  1  0.31264100  0.37713100  0.52564000  1
  C  C112  1  0.31328000  0.37445600  0.63891800  1
  N  N1  1  0.56045500  0.99975800  0.30082600  1
  N  N2  1  0.06010800  0.49823500  0.30069500  1
  N  N3  1  0.44418300  0.99798900  0.70814300  1
  N  N4  1  0.94358000  0.50053600  0.70767800  1
  Cl  Cl1  1  0.89001600  0.10100200  0.52274400  1
  Cl  Cl2  1  0.58008000  0.79749500  0.21125800  1
  Cl  Cl3  1  0.38899700  0.60018200  0.52086800  1
  Cl  Cl4  1  0.07992700  0.29641800  0.21501200  1
  O  O1  1  0.60996000  0.92836300  0.55498000  1
  O  O2  1  0.60787500  0.07205400  0.55294400  1
  O  O3  1  0.11041200  0.42849500  0.55684100  1
  O  O4  1  0.10778100  0.57202600  0.55179400  1
  O  O5  1  0.56556000  0.92407200  0.68685200  1
  O  O6  1  0.56378900  0.07480600  0.68580100  1
  O  O7  1  0.06588200  0.42542000  0.68922700  1
  O  O8  1  0.06307300  0.57616300  0.68360000  1
  O  O9  1  0.43628100  0.07330400  0.31753900  1
  O  O10  1  0.43858400  0.92361200  0.31989300  1
  O  O11  1  0.93625600  0.57264200  0.31676800  1
  O  O12  1  0.93890400  0.42280000  0.32198100  1
  O  O13  1  0.39178800  0.06960000  0.45228900  1
  O  O14  1  0.39369700  0.92669700  0.45357300  1
  O  O15  1  0.89128100  0.56971100  0.45033000  1
  O  O16  1  0.89386300  0.42685400  0.45541300  1
