# generated using pymatgen
data_Fe2H19C45(NO4)5
_symmetry_space_group_name_H-M   'P 1'
_cell_length_a   13.91554200
_cell_length_b   9.25136400
_cell_length_c   17.46627400
_cell_angle_alpha   86.74885400
_cell_angle_beta   90.65330000
_cell_angle_gamma   110.42829600
_symmetry_Int_Tables_number   1
_chemical_formula_structural   Fe2H19C45(NO4)5
_chemical_formula_sum   'Fe2 H19 C45 N5 O20'
_cell_volume   2103.67958704
_cell_formula_units_Z   1
loop_
 _symmetry_equiv_pos_site_id
 _symmetry_equiv_pos_as_xyz
  1  'x, y, z'
loop_
 _atom_site_type_symbol
 _atom_site_label
 _atom_site_symmetry_multiplicity
 _atom_site_fract_x
 _atom_site_fract_y
 _atom_site_fract_z
 _atom_site_occupancy
  Fe  Fe1  1  0.53849700  0.01947600  0.21754600  1
  Fe  Fe2  1  0.46366100  0.96626800  0.79745400  1
  H  H1  1  0.93778600  0.22425300  0.22301300  1
  H  H2  1  0.69336300  0.67144400  0.83345100  1
  H  H3  1  0.86026400  0.62027700  0.84053000  1
  H  H4  1  0.05606400  0.73693800  0.78741600  1
  H  H5  1  0.31074100  0.29804100  0.17317900  1
  H  H6  1  0.70065000  0.08371800  0.99682900  1
  H  H7  1  0.00484300  0.80957300  0.01892400  1
  H  H8  1  0.98929900  0.15511700  0.99094100  1
  H  H9  1  0.45579700  0.12074600  0.58814800  1
  H  H10  1  0.43451200  0.49049900  0.75993400  1
  H  H11  1  0.57061100  0.48433000  0.25109700  1
  H  H12  1  0.52353100  0.74415500  0.54951700  1
  H  H13  1  0.51564400  0.72965800  0.43198100  1
  H  H14  1  0.30715000  0.47965900  0.02690800  1
  H  H15  1  0.39187400  0.63645900  0.07946800  1
  H  H16  1  0.39782400  0.64456700  0.97553000  1
  H  H17  1  0.07476500  0.68768900  0.21323700  1
  H  H18  1  0.20115800  0.67672300  0.22591800  1
  H  H19  1  0.09511500  0.55567200  0.28646500  1
  C  C1  1  0.70043800  0.86785100  0.90127600  1
  C  C2  1  0.73273800  0.75607000  0.87398700  1
  C  C3  1  0.82833600  0.78024400  0.90400800  1
  C  C4  1  0.77664700  0.95161900  0.94953600  1
  C  C5  1  0.88831500  0.70466900  0.88360300  1
  C  C6  1  0.99768800  0.75716800  0.90080700  1
  C  C7  1  0.07024900  0.76505600  0.84669700  1
  C  C8  1  0.16375800  0.82424800  0.88136200  1
  C  C9  1  0.14448300  0.84674700  0.95683500  1
  C  C10  1  0.22274500  0.90216700  0.01619100  1
  C  C11  1  0.22060700  0.01408800  0.06097200  1
  C  C12  1  0.29658600  0.09768900  0.11002100  1
  C  C13  1  0.26565700  0.21186700  0.13559600  1
  C  C14  1  0.16881000  0.18728400  0.10699400  1
  C  C15  1  0.10679500  0.26256700  0.12667700  1
  C  C16  1  0.99703800  0.20565600  0.10920500  1
  C  C17  1  0.92433000  0.19729400  0.16353300  1
  C  C18  1  0.83082700  0.14053700  0.12876100  1
  C  C19  1  0.84964200  0.11814300  0.05356900  1
  C  C20  1  0.77052600  0.05730300  0.99561900  1
  C  C21  1  0.73425300  0.09913700  0.17123600  1
  C  C22  1  0.55327800  0.75123600  0.28327700  1
  C  C23  1  0.39496300  0.08743900  0.13457700  1
  C  C24  1  0.53234600  0.21673600  0.32735200  1
  C  C25  1  0.45062300  0.49112500  0.69950600  1
  C  C26  1  0.47533000  0.62744000  0.65541900  1
  C  C27  1  0.50103800  0.63262800  0.57949200  1
  C  C28  1  0.45716800  0.36034100  0.66899600  1
  C  C29  1  0.47759800  0.36316900  0.59057700  1
  C  C30  1  0.49697400  0.49920400  0.54484500  1
  C  C31  1  0.51366500  0.49858500  0.46579100  1
  C  C32  1  0.52458600  0.62550200  0.41464600  1
  C  C33  1  0.54552700  0.62065600  0.33774100  1
  C  C34  1  0.47554100  0.23061600  0.55654500  1
  C  C35  1  0.51576000  0.36423900  0.43624400  1
  C  C36  1  0.53768300  0.36083700  0.35973900  1
  C  C37  1  0.55647100  0.49022400  0.31132900  1
  C  C38  1  0.60208600  0.88134200  0.87900500  1
  C  C39  1  0.48293500  0.77041600  0.69057200  1
  C  C40  1  0.26035200  0.86812800  0.83829000  1
  C  C41  1  0.44165900  0.22330700  0.72185700  1
  C  C42  1  0.30279100  0.83221100  0.02201500  1
  C  C43  1  0.34644400  0.60660000  0.02634900  1
  C  C44  1  0.13845400  0.38685200  0.18104800  1
  C  C45  1  0.11776000  0.60918700  0.22792900  1
  N  N1  1  0.85558500  0.89869200  0.95058400  1
  N  N2  1  0.04239400  0.80758700  0.96788400  1
  N  N3  1  0.14201400  0.06861000  0.06013300  1
  N  N4  1  0.95186800  0.15661100  0.04210900  1
  N  N5  1  0.49612200  0.23481000  0.48148800  1
  O  O1  1  0.64475500  0.05324900  0.13747300  1
  O  O2  1  0.59832600  0.76286400  0.21648000  1
  O  O3  1  0.73785300  0.10554100  0.24607700  1
  O  O4  1  0.51183600  0.85343400  0.29970200  1
  O  O5  1  0.40250500  0.95823800  0.16469200  1
  O  O6  1  0.47148500  0.21704200  0.14314900  1
  O  O7  1  0.59099000  0.22093700  0.26850900  1
  O  O8  1  0.45712900  0.08846700  0.34747800  1
  O  O9  1  0.59309400  0.01534800  0.85867500  1
  O  O10  1  0.52892100  0.75481100  0.86043000  1
  O  O11  1  0.41396400  0.77101300  0.74091900  1
  O  O12  1  0.56348300  0.89528900  0.67649700  1
  O  O13  1  0.37387100  0.19341200  0.77753100  1
  O  O14  1  0.34952100  0.92922300  0.87127100  1
  O  O15  1  0.50204300  0.14093500  0.71927200  1
  O  O16  1  0.25636000  0.85356100  0.76397600  1
  O  O17  1  0.39336400  0.91194400  0.01736800  1
  O  O18  1  0.27461300  0.67718700  0.02276800  1
  O  O19  1  0.19465800  0.38357800  0.23462400  1
  O  O20  1  0.09503300  0.49644100  0.17601200  1
