# generated using pymatgen
data_Fe2H32C72(N2O7)3
_symmetry_space_group_name_H-M   'P 1'
_cell_length_a   17.07764000
_cell_length_b   9.26024800
_cell_length_c   30.63171800
_cell_angle_alpha   95.06414100
_cell_angle_beta   89.34995700
_cell_angle_gamma   66.33303600
_symmetry_Int_Tables_number   1
_chemical_formula_structural   Fe2H32C72(N2O7)3
_chemical_formula_sum   'Fe2 H32 C72 N6 O21'
_cell_volume   4413.63993893
_cell_formula_units_Z   1
loop_
 _symmetry_equiv_pos_site_id
 _symmetry_equiv_pos_as_xyz
  1  'x, y, z'
loop_
 _atom_site_type_symbol
 _atom_site_label
 _atom_site_symmetry_multiplicity
 _atom_site_fract_x
 _atom_site_fract_y
 _atom_site_fract_z
 _atom_site_occupancy
  Fe  Fe1  1  0.49385100  0.97718500  0.79953600  1
  Fe  Fe2  1  0.50524800  0.01997200  0.19953400  1
  H  H1  1  0.95038300  0.07903800  0.85840900  1
  H  H2  1  0.25122800  0.05984400  0.98881000  1
  H  H3  1  0.04953000  0.91886000  0.13933400  1
  H  H4  1  0.75198200  0.92727600  0.00755500  1
  H  H5  1  0.01831700  0.08039400  0.97925200  1
  H  H6  1  0.98202000  0.91303300  0.01866800  1
  H  H7  1  0.93520800  0.94636900  0.17957700  1
  H  H8  1  0.67286400  0.95180200  0.94625600  1
  H  H9  1  0.71188500  0.00523200  0.81132700  1
  H  H10  1  0.84262300  0.04279500  0.82745400  1
  H  H11  1  0.06352900  0.06082500  0.81846800  1
  H  H12  1  0.29998600  0.03416900  0.91463900  1
  H  H13  1  0.32907100  0.04009900  0.05137800  1
  H  H14  1  0.28882600  0.98844300  0.18639600  1
  H  H15  1  0.15796500  0.95200000  0.17011700  1
  H  H16  1  0.80217800  0.96089900  0.21191200  1
  H  H17  1  0.19673800  0.04841500  0.78678700  1
  H  H18  1  0.66064500  0.60339200  0.54539700  1
  H  H19  1  0.65693000  0.63087000  0.46749900  1
  H  H20  1  0.33631400  0.39556300  0.45359600  1
  H  H21  1  0.34006500  0.36798200  0.53149100  1
  H  H22  1  0.50053700  0.31251100  0.32698900  1
  H  H23  1  0.48623300  0.78457600  0.34815000  1
  H  H24  1  0.49623800  0.68651500  0.67199000  1
  H  H25  1  0.51114400  0.21409500  0.65080900  1
  H  H26  1  0.51289000  0.56145100  0.21829300  1
  H  H27  1  0.48513000  0.43677000  0.78070500  1
  H  H28  1  0.67953100  0.18772700  0.05825600  1
  H  H29  1  0.62270000  0.20702300  0.11015500  1
  H  H30  1  0.51621500  0.13023100  0.07165000  1
  H  H31  1  0.52239400  0.30298500  0.05107600  1
  H  H32  1  0.57285100  0.11095500  0.01966900  1
  C  C1  1  0.78631300  0.98605800  0.92837100  1
  C  C2  1  0.83089400  0.01664000  0.89610700  1
  C  C3  1  0.90045500  0.03259300  0.91462400  1
  C  C4  1  0.83101100  0.98031400  0.96603000  1
  C  C5  1  0.95917900  0.06290600  0.89270100  1
  C  C6  1  0.03918600  0.06283500  0.91019500  1
  C  C7  1  0.10669400  0.05675200  0.88417200  1
  C  C8  1  0.17109600  0.04986700  0.91065500  1
  C  C9  1  0.14171400  0.05200700  0.95312400  1
  C  C10  1  0.19217000  0.04398200  0.99239600  1
  C  C11  1  0.17026700  0.01383200  0.03151800  1
  C  C12  1  0.21545100  0.00619800  0.06911300  1
  C  C13  1  0.17030200  0.97706300  0.10143000  1
  C  C14  1  0.09999500  0.96376800  0.08304800  1
  C  C15  1  0.04062000  0.93547300  0.10507900  1
  C  C16  1  0.95997400  0.93795700  0.08777200  1
  C  C17  1  0.89182700  0.94768300  0.11395100  1
  C  C18  1  0.82723200  0.95425800  0.08755700  1
  C  C19  1  0.85765000  0.94724900  0.04482300  1
  C  C20  1  0.80918100  0.94936500  0.00501200  1
  C  C21  1  0.88404700  0.95119100  0.15862300  1
  C  C22  1  0.80806400  0.95958600  0.17672000  1
  C  C23  1  0.74061600  0.96730900  0.15053100  1
  C  C24  1  0.74932200  0.96716900  0.10521200  1
  C  C25  1  0.71070000  0.96959100  0.92045100  1
  C  C26  1  0.68448800  0.97640700  0.87763500  1
  C  C27  1  0.73334900  0.99875100  0.84444300  1
  C  C28  1  0.80660500  0.02185300  0.85350400  1
  C  C29  1  0.11443800  0.05596200  0.83961500  1
  C  C30  1  0.19042400  0.04903600  0.82193400  1
  C  C31  1  0.25747600  0.04133500  0.84846400  1
  C  C32  1  0.24836700  0.04122500  0.89369700  1
  C  C33  1  0.29120200  0.02216700  0.07714800  1
  C  C34  1  0.31695400  0.01619400  0.12009600  1
  C  C35  1  0.26776500  0.99429800  0.15320300  1
  C  C36  1  0.19441900  0.97176800  0.14405500  1
  C  C37  1  0.48949700  0.70769600  0.76017600  1
  C  C38  1  0.33712600  0.02898500  0.82681400  1
  C  C39  1  0.60262200  0.97251200  0.86616900  1
  C  C40  1  0.50182900  0.16838200  0.73569100  1
  C  C41  1  0.49629600  0.82972800  0.26330600  1
  C  C42  1  0.39824600  0.02196000  0.13200900  1
  C  C43  1  0.66115600  0.97985900  0.17264300  1
  C  C44  1  0.50796800  0.29085700  0.23880500  1
  C  C45  1  0.44613400  0.42711000  0.58606700  1
  C  C46  1  0.55892000  0.51007400  0.59099800  1
  C  C47  1  0.55776800  0.52587600  0.54649900  1
  C  C48  1  0.49960800  0.49147300  0.52168600  1
  C  C49  1  0.44361100  0.44124200  0.54148700  1
  C  C50  1  0.61431300  0.57580700  0.52665500  1
  C  C51  1  0.61214600  0.59156900  0.48229800  1
  C  C52  1  0.55337700  0.55762800  0.45750700  1
  C  C53  1  0.49736200  0.50744300  0.47730700  1
  C  C54  1  0.43919500  0.47306700  0.45249400  1
  C  C55  1  0.38265200  0.42312900  0.47233900  1
  C  C56  1  0.38484000  0.40730600  0.51669500  1
  C  C57  1  0.55088600  0.57169500  0.41292600  1
  C  C58  1  0.43803700  0.48890100  0.40799400  1
  C  C59  1  0.49884800  0.41874900  0.31420500  1
  C  C60  1  0.50503300  0.42381400  0.26943600  1
  C  C61  1  0.50854200  0.55581800  0.25326700  1
  C  C62  1  0.50097000  0.68579700  0.28143800  1
  C  C63  1  0.49300500  0.68191500  0.32614000  1
  C  C64  1  0.49444500  0.54664800  0.34267500  1
  C  C65  1  0.49811900  0.58015600  0.68477800  1
  C  C66  1  0.49223100  0.57488300  0.72954900  1
  C  C67  1  0.48916300  0.44256000  0.74572800  1
  C  C68  1  0.49678800  0.31254200  0.71755400  1
  C  C69  1  0.50435100  0.31671800  0.67284000  1
  C  C70  1  0.50259900  0.45220400  0.65631100  1
  C  C71  1  0.63894700  0.14339900  0.07671600  1
  C  C72  1  0.55713700  0.17392800  0.05320300  1
  N  N1  1  0.90079600  0.00977500  0.95752600  1
  N  N2  1  0.06003900  0.06305600  0.95257900  1
  N  N3  1  0.09961100  0.98718900  0.04019800  1
  N  N4  1  0.93963100  0.93456400  0.04536000  1
  N  N5  1  0.50327800  0.46170000  0.61007400  1
  N  N6  1  0.49371100  0.53720300  0.38891700  1
  O  O1  1  0.50343700  0.82622300  0.74650600  1
  O  O2  1  0.47521900  0.70675300  0.80230800  1
  O  O3  1  0.40615400  0.01183500  0.84798700  1
  O  O4  1  0.34149500  0.02654800  0.78394500  1
  O  O5  1  0.55478800  0.02978800  0.71702500  1
  O  O6  1  0.60165000  0.88506200  0.83017500  1
  O  O7  1  0.46019200  0.17992000  0.77314600  1
  O  O8  1  0.53179800  0.09009400  0.88203000  1
  O  O9  1  0.53913100  0.81788300  0.22621900  1
  O  O10  1  0.46969600  0.90571300  0.11627600  1
  O  O11  1  0.44235700  0.96833700  0.28147700  1
  O  O12  1  0.39808000  0.10947500  0.16823600  1
  O  O13  1  0.59362900  0.98583000  0.15153700  1
  O  O14  1  0.65623300  0.98954400  0.21565200  1
  O  O15  1  0.49379200  0.17249400  0.25242900  1
  O  O16  1  0.52311200  0.29113000  0.19672800  1
  O  O17  1  0.38942700  0.38406200  0.60590200  1
  O  O18  1  0.61685900  0.53979100  0.61523800  1
  O  O19  1  0.60767000  0.61455700  0.39309200  1
  O  O20  1  0.38006900  0.45926900  0.38375700  1
  O  O21  1  0.68259000  0.98084400  0.07931500  1
