# generated using pymatgen
data_Fe2H11C30NO17
_symmetry_space_group_name_H-M   'P 1'
_cell_length_a   13.64461600
_cell_length_b   8.71102800
_cell_length_c   10.87273300
_cell_angle_alpha   76.96418100
_cell_angle_beta   102.68635300
_cell_angle_gamma   113.65704900
_symmetry_Int_Tables_number   1
_chemical_formula_structural   Fe2H11C30NO17
_chemical_formula_sum   'Fe2 H11 C30 N1 O17'
_cell_volume   1141.07790349
_cell_formula_units_Z   1
loop_
 _symmetry_equiv_pos_site_id
 _symmetry_equiv_pos_as_xyz
  1  'x, y, z'
loop_
 _atom_site_type_symbol
 _atom_site_label
 _atom_site_symmetry_multiplicity
 _atom_site_fract_x
 _atom_site_fract_y
 _atom_site_fract_z
 _atom_site_occupancy
  Fe  Fe1  1  0.50219500  0.97018600  0.24243600  1
  Fe  Fe2  1  0.49135400  0.98784200  0.78881500  1
  H  H1  1  0.07489900  0.86457300  0.73179800  1
  H  H2  1  0.89670000  0.85453400  0.71116700  1
  H  H3  1  0.75790700  0.88821800  0.79169300  1
  H  H4  1  0.23945400  0.08141600  0.23690100  1
  H  H5  1  0.91544700  0.09314500  0.30109100  1
  H  H6  1  0.44475800  0.47372100  0.70761100  1
  H  H7  1  0.55111300  0.48480900  0.32466100  1
  H  H8  1  0.17159900  0.11405200  0.40704500  1
  H  H9  1  0.20299200  0.32413300  0.52166600  1
  H  H10  1  0.11465900  0.44202800  0.46879000  1
  H  H11  1  0.24053300  0.51511700  0.40567800  1
  C  C1  1  0.19688300  0.93586300  0.89173600  1
  C  C2  1  0.09420600  0.90364700  0.82450100  1
  C  C3  1  0.01575900  0.92373200  0.87360900  1
  C  C4  1  0.91452200  0.89299900  0.80395500  1
  C  C5  1  0.83512900  0.91132600  0.85153300  1
  C  C6  1  0.21974200  0.98887500  0.01009400  1
  C  C7  1  0.14029300  0.00811100  0.05954800  1
  C  C8  1  0.03822700  0.97584400  0.99083100  1
  C  C9  1  0.95835100  0.99393900  0.03967500  1
  C  C10  1  0.85585700  0.95907100  0.97100200  1
  C  C11  1  0.77552900  0.97533200  0.02050200  1
  C  C12  1  0.16165200  0.05751500  0.17836000  1
  C  C13  1  0.08368700  0.08123000  0.22524500  1
  C  C14  1  0.98091500  0.04712800  0.15683700  1
  C  C15  1  0.90010900  0.06074000  0.20681700  1
  C  C16  1  0.79735100  0.02646600  0.13925800  1
  C  C17  1  0.71207800  0.03454500  0.19873100  1
  C  C18  1  0.52903100  0.71321500  0.42857700  1
  C  C19  1  0.32621900  0.01972000  0.08573600  1
  C  C20  1  0.50564600  0.21282400  0.36854300  1
  C  C21  1  0.48863300  0.74525500  0.66292700  1
  C  C22  1  0.66894200  0.94218800  0.94482900  1
  C  C23  1  0.46439800  0.24467100  0.60233900  1
  C  C24  1  0.28104600  0.92455500  0.83232600  1
  C  C25  1  0.52137200  0.37887900  0.39752500  1
  C  C26  1  0.49301700  0.39495300  0.50368400  1
  C  C27  1  0.50108600  0.56318600  0.52755600  1
  C  C28  1  0.47345300  0.57937800  0.63417000  1
  C  C29  1  0.11522200  0.30091300  0.33234900  1
  C  C30  1  0.17200800  0.40135400  0.43887800  1
  N  N1  1  0.11052800  0.14078900  0.34326200  1
  O  O1  1  0.61127300  0.98304600  0.14294100  1
  O  O2  1  0.61045900  0.75359900  0.36672800  1
  O  O3  1  0.73551300  0.08229000  0.31124400  1
  O  O4  1  0.47015200  0.80713200  0.40120800  1
  O  O5  1  0.35830400  0.89248100  0.13191100  1
  O  O6  1  0.38719700  0.17193500  0.11301800  1
  O  O7  1  0.56369000  0.20371700  0.29019400  1
  O  O8  1  0.42284600  0.07812000  0.40364300  1
  O  O9  1  0.43106500  0.75369000  0.74216000  1
  O  O10  1  0.57058600  0.88063000  0.62665000  1
  O  O11  1  0.63522400  0.06778100  0.89924600  1
  O  O12  1  0.60967700  0.78986900  0.91662700  1
  O  O13  1  0.25692300  0.87805100  0.71930000  1
  O  O14  1  0.52277200  0.15001000  0.62951900  1
  O  O15  1  0.38185100  0.97399700  0.88820100  1
  O  O16  1  0.38331000  0.20531000  0.66450800  1
  O  O17  1  0.07404100  0.36519100  0.23426900  1
