# generated using pymatgen
data_Fe2H13C36N5O17
_symmetry_space_group_name_H-M   'P 1'
_cell_length_a   12.13520500
_cell_length_b   16.82003100
_cell_length_c   13.27920400
_cell_angle_alpha   106.50651300
_cell_angle_beta   91.53713400
_cell_angle_gamma   107.35430800
_symmetry_Int_Tables_number   1
_chemical_formula_structural   Fe2H13C36N5O17
_chemical_formula_sum   'Fe2 H13 C36 N5 O17'
_cell_volume   2461.96839470
_cell_formula_units_Z   1
loop_
 _symmetry_equiv_pos_site_id
 _symmetry_equiv_pos_as_xyz
  1  'x, y, z'
loop_
 _atom_site_type_symbol
 _atom_site_label
 _atom_site_symmetry_multiplicity
 _atom_site_fract_x
 _atom_site_fract_y
 _atom_site_fract_z
 _atom_site_occupancy
  Fe  Fe1  1  0.52239500  0.01788000  0.28093100  1
  Fe  Fe2  1  0.51345600  0.00086100  0.71970700  1
  H  H1  1  0.94153400  0.02865000  0.25684200  1
  H  H2  1  0.36779700  0.95822500  0.99415800  1
  H  H3  1  0.64762900  0.02012100  0.00576900  1
  H  H4  1  0.08636700  0.98551200  0.82807600  1
  H  H5  1  0.91034700  0.97185500  0.82513500  1
  H  H6  1  0.49183000  0.43387800  0.73859700  1
  H  H7  1  0.48793800  0.31362100  0.80409200  1
  H  H8  1  0.49409600  0.57272500  0.26185500  1
  H  H9  1  0.50387500  0.69358300  0.19629400  1
  H  H10  1  0.50095600  0.73337800  0.57670800  1
  H  H11  1  0.28750200  0.30165300  0.41481100  1
  H  H12  1  0.26670100  0.19101000  0.41650600  1
  H  H13  1  0.28421700  0.21815400  0.29451600  1
  C  C1  1  0.28169000  0.96409600  0.99124600  1
  C  C2  1  0.23051700  0.96966700  0.90086600  1
  C  C3  1  0.12123300  0.97931000  0.89963700  1
  C  C4  1  0.23049600  0.97638000  0.08273300  1
  C  C5  1  0.12283300  0.98848000  0.08303200  1
  C  C6  1  0.06421100  0.98652100  0.99066500  1
  C  C7  1  0.95292800  0.99586200  0.99398000  1
  C  C8  1  0.88565700  0.98954800  0.90350300  1
  C  C9  1  0.77905400  0.00202300  0.91038300  1
  C  C10  1  0.97161300  0.01424400  0.18015700  1
  C  C11  1  0.90605700  0.00880300  0.09012500  1
  C  C12  1  0.79504700  0.01743800  0.09506400  1
  C  C13  1  0.73534000  0.01715100  0.00533600  1
  C  C14  1  0.72989000  0.01765200  0.18741400  1
  C  C15  1  0.51225000  0.85591300  0.30208200  1
  C  C16  1  0.30158400  0.99093700  0.18103500  1
  C  C17  1  0.46564100  0.12758700  0.46277800  1
  C  C18  1  0.52482700  0.87851300  0.53725200  1
  C  C19  1  0.69984700  0.98214900  0.81583700  1
  C  C20  1  0.48263500  0.15300500  0.69808600  1
  C  C21  1  0.30033000  0.97437300  0.81257100  1
  C  C22  1  0.46567400  0.20916300  0.54225300  1
  C  C23  1  0.45849500  0.27705200  0.50513300  1
  C  C24  1  0.47362200  0.35969300  0.57488100  1
  C  C25  1  0.48198200  0.37087300  0.68216100  1
  C  C26  1  0.47983500  0.30197200  0.71951100  1
  C  C27  1  0.47495100  0.22131400  0.65125200  1
  C  C28  1  0.49114700  0.57051100  0.46451700  1
  C  C29  1  0.48109500  0.43507600  0.53626700  1
  C  C30  1  0.49809800  0.63465200  0.31779100  1
  C  C31  1  0.50386200  0.70411900  0.28040700  1
  C  C32  1  0.51043300  0.78531300  0.34861600  1
  C  C33  1  0.51010700  0.79503400  0.45671100  1
  C  C34  1  0.49990800  0.72407700  0.49274600  1
  C  C35  1  0.49568400  0.64410100  0.42430000  1
  C  C36  1  0.31229100  0.24210100  0.38091600  1
  N  N1  1  0.07636900  0.00304900  0.17447500  1
  N  N2  1  0.46745500  0.50844700  0.60072100  1
  N  N3  1  0.47248600  0.57531800  0.56528300  1
  N  N4  1  0.50672100  0.49786600  0.40072900  1
  N  N5  1  0.50223800  0.43133300  0.43631100  1
  O  O1  1  0.64884200  0.05580800  0.19689900  1
  O  O2  1  0.50176000  0.83842700  0.19883500  1
  O  O3  1  0.73136300  0.96360500  0.24137900  1
  O  O4  1  0.52402900  0.93576800  0.36185700  1
  O  O5  1  0.37845900  0.94966500  0.17768000  1
  O  O6  1  0.31283500  0.06139400  0.25971000  1
  O  O7  1  0.53222000  0.13275800  0.38662400  1
  O  O8  1  0.39301300  0.05170400  0.46172400  1
  O  O9  1  0.45548900  0.88211800  0.61142600  1
  O  O10  1  0.61917200  0.94505400  0.54734000  1
  O  O11  1  0.67752300  0.04653500  0.79122900  1
  O  O12  1  0.62274300  0.90379600  0.78199400  1
  O  O13  1  0.25716900  0.97733500  0.72252800  1
  O  O14  1  0.51557900  0.08733300  0.64447400  1
  O  O15  1  0.41109200  0.98367100  0.83054000  1
  O  O16  1  0.46154500  0.15999800  0.79607100  1
  O  O17  1  0.43305400  0.26076500  0.39857100  1
