# generated using pymatgen
data_ZnH13C23N3O4
_symmetry_space_group_name_H-M   'P 1'
_cell_length_a   9.37941600
_cell_length_b   10.85455800
_cell_length_c   15.67798500
_cell_angle_alpha   90.00000000
_cell_angle_beta   96.14970500
_cell_angle_gamma   90.00000000
_symmetry_Int_Tables_number   1
_chemical_formula_structural   ZnH13C23N3O4
_chemical_formula_sum   'Zn2 H26 C46 N6 O8'
_cell_volume   1586.98115605
_cell_formula_units_Z   2
loop_
 _symmetry_equiv_pos_site_id
 _symmetry_equiv_pos_as_xyz
  1  'x, y, z'
loop_
 _atom_site_type_symbol
 _atom_site_label
 _atom_site_symmetry_multiplicity
 _atom_site_fract_x
 _atom_site_fract_y
 _atom_site_fract_z
 _atom_site_occupancy
  Zn  Zn1  1  0.16074400  0.50008600  0.50537300  1
  Zn  Zn2  1  0.83925600  0.49991400  0.49462700  1
  H  H1  1  0.99545200  0.22298700  0.00206400  1
  H  H2  1  0.00454800  0.77701300  0.99793600  1
  H  H3  1  0.09323000  0.10646400  0.64796900  1
  H  H4  1  0.90677000  0.89353600  0.35203100  1
  H  H5  1  0.91383300  0.08685800  0.35733500  1
  H  H6  1  0.08616700  0.91314200  0.64266500  1
  H  H7  1  0.89372000  0.40339400  0.75780200  1
  H  H8  1  0.10628100  0.59660600  0.24219800  1
  H  H9  1  0.09860100  0.39477400  0.25168800  1
  H  H10  1  0.90139900  0.60522600  0.74831200  1
  H  H11  1  0.36035700  0.91230400  0.45963700  1
  H  H12  1  0.63964400  0.08769600  0.54036300  1
  H  H13  1  0.62041000  0.91285100  0.45684000  1
  H  H14  1  0.37959100  0.08714900  0.54316000  1
  H  H15  1  0.24884100  0.26324000  0.51227000  1
  H  H16  1  0.75116000  0.73676000  0.48773000  1
  H  H17  1  0.75575000  0.26334500  0.50559200  1
  H  H18  1  0.24425000  0.73665500  0.49440800  1
  H  H19  1  0.76743800  0.22173600  0.91966200  1
  H  H20  1  0.85964800  0.36076700  0.92959800  1
  H  H21  1  0.14035300  0.63923300  0.07040200  1
  H  H22  1  0.23256200  0.77826400  0.08033800  1
  H  H23  1  0.22374200  0.22655100  0.08364200  1
  H  H24  1  0.12417600  0.36217500  0.07673000  1
  H  H25  1  0.87582400  0.63782500  0.92327000  1
  H  H26  1  0.77625800  0.77344900  0.91635900  1
  C  C1  1  0.98477600  0.06419500  0.92273300  1
  C  C2  1  0.01522500  0.93580500  0.07726700  1
  C  C3  1  0.01274700  0.06178900  0.07863600  1
  C  C4  1  0.98725300  0.93821100  0.92136400  1
  C  C5  1  0.99747900  0.12499000  0.00121500  1
  C  C6  1  0.00252200  0.87501000  0.99878600  1
  C  C7  1  0.02296800  0.06990600  0.77385300  1
  C  C8  1  0.97703300  0.93009400  0.22614700  1
  C  C9  1  0.97664900  0.05975400  0.22823700  1
  C  C10  1  0.02335100  0.94024600  0.77176300  1
  C  C11  1  0.05145300  0.14309500  0.70399700  1
  C  C12  1  0.94854800  0.85690500  0.29600300  1
  C  C13  1  0.95127100  0.12794100  0.30141200  1
  C  C14  1  0.04873000  0.87205900  0.69858800  1
  C  C15  1  0.01612100  0.26687000  0.70239900  1
  C  C16  1  0.98388000  0.73313000  0.29760200  1
  C  C17  1  0.98505500  0.25215200  0.30644200  1
  C  C18  1  0.01494500  0.74784800  0.69355800  1
  C  C19  1  0.94233200  0.31389300  0.76560600  1
  C  C20  1  0.05766900  0.68610700  0.23439400  1
  C  C21  1  0.05284100  0.30439800  0.24243800  1
  C  C22  1  0.94715900  0.69560200  0.75756200  1
  C  C23  1  0.92104100  0.24689700  0.83667900  1
  C  C24  1  0.07895900  0.75310300  0.16332100  1
  C  C25  1  0.07196400  0.24233900  0.16877000  1
  C  C26  1  0.92803600  0.75766100  0.83123000  1
  C  C27  1  0.97590700  0.12769100  0.84525700  1
  C  C28  1  0.02409300  0.87230900  0.15474300  1
  C  C29  1  0.02040400  0.12221600  0.15763500  1
  C  C30  1  0.97959600  0.87778400  0.84236500  1
  C  C31  1  0.01597300  0.67368400  0.61521000  1
  C  C32  1  0.98402700  0.32631600  0.38479000  1
  C  C33  1  0.98202700  0.65718600  0.37442800  1
  C  C34  1  0.01797300  0.34281400  0.62557200  1
  C  C35  1  0.36053200  0.27840500  0.51723400  1
  C  C36  1  0.63946900  0.72159500  0.48276600  1
  C  C37  1  0.64634700  0.27839800  0.51206400  1
  C  C38  1  0.35365400  0.72160200  0.48793600  1
  C  C39  1  0.43541400  0.17159000  0.53212000  1
  C  C40  1  0.56458700  0.82841000  0.46788000  1
  C  C41  1  0.57896700  0.17184500  0.53033700  1
  C  C42  1  0.42103300  0.82815500  0.46966300  1
  C  C43  1  0.57623100  0.39259600  0.50482900  1
  C  C44  1  0.42376900  0.60740400  0.49517100  1
  C  C45  1  0.42724300  0.39285900  0.50984100  1
  C  C46  1  0.57275800  0.60714100  0.49015900  1
  N  N1  1  0.65007300  0.49962400  0.49388600  1
  N  N2  1  0.34992800  0.50037600  0.50611400  1
  N  N3  1  0.81522800  0.29260300  0.88790000  1
  N  N4  1  0.18477300  0.70739700  0.11210000  1
  N  N5  1  0.17320700  0.29420900  0.11688100  1
  N  N6  1  0.82679300  0.70579100  0.88311900  1
  O  O1  1  0.89157900  0.62894600  0.58373200  1
  O  O2  1  0.10842100  0.37105400  0.41626800  1
  O  O3  1  0.10646200  0.61588100  0.40798400  1
  O  O4  1  0.89353900  0.38411900  0.59201600  1
  O  O5  1  0.13826500  0.63422700  0.59089400  1
  O  O6  1  0.86173500  0.36577300  0.40910600  1
  O  O7  1  0.85992000  0.62178800  0.40066400  1
  O  O8  1  0.14008100  0.37821200  0.59933600  1
