# generated using pymatgen
data_ZnH9C24(NO)4
_symmetry_space_group_name_H-M   'P 1'
_cell_length_a   15.36618100
_cell_length_b   11.68105500
_cell_length_c   9.29980800
_cell_angle_alpha   90.16800900
_cell_angle_beta   90.00109100
_cell_angle_gamma   90.00000000
_symmetry_Int_Tables_number   1
_chemical_formula_structural   ZnH9C24(NO)4
_chemical_formula_sum   'Zn2 H18 C48 N8 O8'
_cell_volume   1669.24517075
_cell_formula_units_Z   2
loop_
 _symmetry_equiv_pos_site_id
 _symmetry_equiv_pos_as_xyz
  1  'x, y, z'
loop_
 _atom_site_type_symbol
 _atom_site_label
 _atom_site_symmetry_multiplicity
 _atom_site_fract_x
 _atom_site_fract_y
 _atom_site_fract_z
 _atom_site_occupancy
  Zn  Zn1  1  0.50128500  0.50429700  0.84459900  1
  Zn  Zn2  1  0.50242400  0.50012200  0.16588800  1
  H  H1  1  0.31900500  0.79034000  0.79040700  1
  H  H2  1  0.27886600  0.70937500  0.23403600  1
  H  H3  1  0.19041100  0.91306200  0.79628400  1
  H  H4  1  0.17165900  0.13900700  0.75938700  1
  H  H5  1  0.29972000  0.26131500  0.77080300  1
  H  H6  1  0.67653800  0.80675100  0.79967000  1
  H  H7  1  0.73466800  0.68732400  0.22322500  1
  H  H8  1  0.80493600  0.93020400  0.80911600  1
  H  H9  1  0.85340500  0.17220500  0.76960400  1
  H  H10  1  0.69056200  0.22246900  0.22066600  1
  H  H11  1  0.72544700  0.29541500  0.77372500  1
  H  H12  1  0.00274800  0.79393400  0.04775000  1
  H  H13  1  0.00101400  0.20761900  0.95498000  1
  H  H14  1  0.50030800  0.68037200  0.63328400  1
  H  H15  1  0.50086500  0.28208200  0.76625400  1
  H  H16  1  0.50351500  0.11139400  0.64276600  1
  H  H17  1  0.50325900  0.27561600  0.25121800  1
  H  H18  1  0.50145100  0.67652000  0.37087200  1
  C  C1  1  0.30814800  0.74059200  0.01166600  1
  C  C2  1  0.07980300  0.94313900  0.01398700  1
  C  C3  1  0.18755100  0.82220300  0.13923100  1
  C  C4  1  0.28315700  0.79954200  0.88974600  1
  C  C5  1  0.26093700  0.75438600  0.13712700  1
  C  C6  1  0.16178800  0.87943300  0.01688100  1
  C  C7  1  0.21084000  0.86972600  0.89309500  1
  C  C8  1  0.30425200  0.26668900  0.00202500  1
  C  C9  1  0.07916500  0.05862900  0.98341600  1
  C  C10  1  0.19851900  0.16243600  0.86279400  1
  C  C11  1  0.26404100  0.22787600  0.12718000  1
  C  C12  1  0.27092700  0.23216700  0.87015000  1
  C  C13  1  0.15980600  0.12422900  0.98711000  1
  C  C14  1  0.19285200  0.15673600  0.11828000  1
  C  C15  1  0.69623500  0.73873700  0.01095900  1
  C  C16  1  0.92365000  0.94280700  0.01853300  1
  C  C17  1  0.82177100  0.80869700  0.13582900  1
  C  C18  1  0.71642500  0.80777800  0.89539600  1
  C  C19  1  0.74840200  0.74137200  0.13191800  1
  C  C20  1  0.84216300  0.87791100  0.02065500  1
  C  C21  1  0.78845000  0.87847700  0.90136000  1
  C  C22  1  0.00204900  0.88549900  0.03129600  1
  C  C23  1  0.69817400  0.26681600  0.99740700  1
  C  C24  1  0.92336900  0.05885600  0.98986700  1
  C  C25  1  0.81637200  0.18124200  0.86781600  1
  C  C26  1  0.72446500  0.20999300  0.12002300  1
  C  C27  1  0.74387100  0.25079700  0.87068300  1
  C  C28  1  0.84226900  0.12428400  0.99006500  1
  C  C29  1  0.79594300  0.13850300  0.11612700  1
  C  C30  1  0.00110400  0.11608100  0.97174100  1
  C  C31  1  0.62293500  0.65870500  0.00599900  1
  C  C32  1  0.62552400  0.34823700  0.00240300  1
  C  C33  1  0.37775000  0.34816200  0.00475900  1
  C  C34  1  0.38084700  0.65911900  0.00731900  1
  C  C35  1  0.50200200  0.29319900  0.65361000  1
  C  C36  1  0.50347300  0.19058400  0.58291000  1
  C  C37  1  0.50440000  0.18868300  0.43762300  1
  C  C38  1  0.50387600  0.28937100  0.36349300  1
  C  C39  1  0.50294200  0.39664000  0.43180200  1
  C  C40  1  0.50199200  0.39882200  0.58190000  1
  C  C41  1  0.50088100  0.59876400  0.57825400  1
  C  C42  1  0.50168200  0.59648800  0.42885600  1
  C  C43  1  0.13940900  0.83390300  0.27051700  1
  C  C44  1  0.82614400  0.08726500  0.24693700  1
  C  C45  1  0.50521900  0.08153000  0.36177100  1
  C  C46  1  0.29049200  0.26351300  0.26853800  1
  C  C47  1  0.14928700  0.12249100  0.24763300  1
  C  C48  1  0.87558100  0.80625900  0.26171400  1
  N  N1  1  0.50091500  0.50092800  0.65488100  1
  N  N2  1  0.50273800  0.49653000  0.35557100  1
  N  N3  1  0.10143200  0.84311800  0.37728800  1
  N  N4  1  0.85042100  0.04693400  0.35307700  1
  N  N5  1  0.50587900  0.99513600  0.30061400  1
  N  N6  1  0.31108500  0.29218400  0.38275700  1
  N  N7  1  0.11411300  0.09535200  0.35210000  1
  N  N8  1  0.91826700  0.80381500  0.36406300  1
  O  O1  1  0.59552000  0.61802300  0.13026500  1
  O  O2  1  0.59196500  0.62619900  0.87926500  1
  O  O3  1  0.59626300  0.38926300  0.88199500  1
  O  O4  1  0.59460400  0.38125700  0.12627900  1
  O  O5  1  0.40643100  0.38916400  0.88343900  1
  O  O6  1  0.41025000  0.38133000  0.12715900  1
  O  O7  1  0.40927800  0.61833800  0.13115400  1
  O  O8  1  0.41086300  0.62620800  0.88035700  1
