# generated using pymatgen
data_ZnH9C24NO6
_symmetry_space_group_name_H-M   'P 1'
_cell_length_a   17.47273000
_cell_length_b   8.52532400
_cell_length_c   10.83482400
_cell_angle_alpha   90.00000000
_cell_angle_beta   90.89428400
_cell_angle_gamma   90.00000000
_symmetry_Int_Tables_number   1
_chemical_formula_structural   ZnH9C24NO6
_chemical_formula_sum   'Zn2 H18 C48 N2 O12'
_cell_volume   1613.76620903
_cell_formula_units_Z   2
loop_
 _symmetry_equiv_pos_site_id
 _symmetry_equiv_pos_as_xyz
  1  'x, y, z'
loop_
 _atom_site_type_symbol
 _atom_site_label
 _atom_site_symmetry_multiplicity
 _atom_site_fract_x
 _atom_site_fract_y
 _atom_site_fract_z
 _atom_site_occupancy
  Zn  Zn1  1  0.91503400  0.46698300  0.98413100  1
  Zn  Zn2  1  0.08524900  0.46747200  0.01639400  1
  H  H1  1  0.00804700  0.57872200  0.61351100  1
  H  H2  1  0.99345000  0.57674200  0.39152100  1
  H  H3  1  0.00940600  0.22185700  0.40550900  1
  H  H4  1  0.99173300  0.22346500  0.59178400  1
  H  H5  1  0.03367400  0.96877300  0.91648800  1
  H  H6  1  0.96612000  0.96069000  0.08422900  1
  H  H7  1  0.67143100  0.49794700  0.67459600  1
  H  H8  1  0.32933800  0.40894200  0.32523400  1
  H  H9  1  0.70392500  0.43220000  0.28448200  1
  H  H10  1  0.29705000  0.52064700  0.71863200  1
  H  H11  1  0.54913400  0.52984900  0.58067100  1
  H  H12  1  0.45179300  0.38700100  0.41987200  1
  H  H13  1  0.40964100  0.53890900  0.59664800  1
  H  H14  1  0.59154000  0.39596500  0.40502000  1
  H  H15  1  0.81440800  0.46447200  0.16315100  1
  H  H16  1  0.18683400  0.49918600  0.83864700  1
  H  H17  1  0.88362800  0.44805700  0.61723700  1
  H  H18  1  0.11711100  0.43456600  0.38160200  1
  C  C1  1  0.00335300  0.97102400  0.56481700  1
  C  C2  1  0.99725500  0.96998200  0.43566100  1
  C  C3  1  0.00721000  0.82941900  0.62901900  1
  C  C4  1  0.99311700  0.82727800  0.37334900  1
  C  C5  1  0.00402100  0.68931100  0.56527600  1
  C  C6  1  0.99688900  0.68824300  0.43857100  1
  C  C7  1  0.98440300  0.82515100  0.24569600  1
  C  C8  1  0.01526200  0.82948700  0.75695700  1
  C  C9  1  0.97549000  0.96328300  0.18253700  1
  C  C10  1  0.02455700  0.96888700  0.81810500  1
  C  C11  1  0.98582000  0.10400900  0.24093700  1
  C  C12  1  0.01512500  0.10838500  0.75750900  1
  C  C13  1  0.99823400  0.10821600  0.36648500  1
  C  C14  1  0.00268000  0.11046200  0.63211600  1
  C  C15  1  0.99006700  0.68301900  0.17064800  1
  C  C16  1  0.00956000  0.68839600  0.83378800  1
  C  C17  1  0.01002400  0.25060800  0.83129800  1
  C  C18  1  0.99089700  0.24522400  0.16530300  1
  C  C19  1  0.77155400  0.45648100  0.86339000  1
  C  C20  1  0.22812600  0.43731300  0.13495600  1
  C  C21  1  0.78040600  0.46462800  0.07918600  1
  C  C22  1  0.22027900  0.48666400  0.92247800  1
  C  C23  1  0.64668300  0.48262600  0.76443200  1
  C  C24  1  0.35360600  0.41992300  0.23475200  1
  C  C25  1  0.69211500  0.46587800  0.86979300  1
  C  C26  1  0.30793500  0.43847000  0.12963200  1
  C  C27  1  0.65755400  0.46121800  0.98304700  1
  C  C28  1  0.34282600  0.46163300  0.01780100  1
  C  C29  1  0.70213600  0.45492700  0.08797500  1
  C  C30  1  0.29854600  0.48379300  0.91379900  1
  C  C31  1  0.66863200  0.43968300  0.20185400  1
  C  C32  1  0.33218900  0.50328300  0.80049500  1
  C  C33  1  0.52308600  0.51426300  0.66947900  1
  C  C34  1  0.47767900  0.40483500  0.33109700  1
  C  C35  1  0.56799900  0.49063400  0.77368700  1
  C  C36  1  0.43247800  0.42233600  0.22633700  1
  C  C37  1  0.53407300  0.47584100  0.88697800  1
  C  C38  1  0.46637900  0.44210700  0.11349400  1
  C  C39  1  0.44454500  0.51964000  0.67844400  1
  C  C40  1  0.55633300  0.41006300  0.32295900  1
  C  C41  1  0.41070900  0.50026100  0.79149500  1
  C  C42  1  0.59004200  0.43142200  0.21004400  1
  C  C43  1  0.57890400  0.46060700  0.99165600  1
  C  C44  1  0.42152600  0.46084500  0.00913900  1
  C  C45  1  0.54508100  0.44501700  0.10510400  1
  C  C46  1  0.45544100  0.47905400  0.89589000  1
  C  C47  1  0.80577700  0.41494900  0.74454100  1
  C  C48  1  0.19105900  0.39061000  0.24995900  1
  N  N1  1  0.81481800  0.46671000  0.96844700  1
  N  N2  1  0.18549600  0.46814600  0.03187200  1
  O  O1  1  0.05867600  0.63560100  0.13936000  1
  O  O2  1  0.94111600  0.63955300  0.86464200  1
  O  O3  1  0.92711900  0.62850500  0.11901000  1
  O  O4  1  0.07250100  0.63314600  0.88476200  1
  O  O5  1  0.94147600  0.30026600  0.86009300  1
  O  O6  1  0.05934300  0.29636800  0.13710400  1
  O  O7  1  0.07323300  0.30512400  0.88220800  1
  O  O8  1  0.92759000  0.30046000  0.11507600  1
  O  O9  1  0.77617800  0.31239500  0.68153100  1
  O  O10  1  0.86985000  0.49174700  0.70083800  1
  O  O11  1  0.21017800  0.26912500  0.30122400  1
  O  O12  1  0.13503500  0.48387200  0.30217300  1
