# generated using pymatgen
data_Cu3H34C48I2(NO8)2
_symmetry_space_group_name_H-M   'P 1'
_cell_length_a   21.24285000
_cell_length_b   21.24285000
_cell_length_c   46.67299900
_cell_angle_alpha   90.00000000
_cell_angle_beta   90.00000000
_cell_angle_gamma   90.00000000
_symmetry_Int_Tables_number   1
_chemical_formula_structural   Cu3H34C48I2(NO8)2
_chemical_formula_sum   'Cu12 H136 C192 I8 N8 O64'
_cell_volume   21061.59573941
_cell_formula_units_Z   4
loop_
 _symmetry_equiv_pos_site_id
 _symmetry_equiv_pos_as_xyz
  1  'x, y, z'
loop_
 _atom_site_type_symbol
 _atom_site_label
 _atom_site_symmetry_multiplicity
 _atom_site_fract_x
 _atom_site_fract_y
 _atom_site_fract_z
 _atom_site_occupancy
  Cu  Cu1  1  0.00000000  0.00000000  0.02987700  1
  Cu  Cu2  1  0.50000000  0.50000000  0.52987700  1
  Cu  Cu3  1  0.00000000  0.00000000  0.97403500  1
  Cu  Cu4  1  0.50000000  0.50000000  0.47403500  1
  Cu  Cu5  1  0.49961400  0.06273400  0.99942100  1
  Cu  Cu6  1  0.93726600  0.49961400  0.99942100  1
  Cu  Cu7  1  0.50038600  0.93726600  0.99942100  1
  Cu  Cu8  1  0.06273400  0.50038600  0.99942100  1
  Cu  Cu9  1  0.99961500  0.56273400  0.49942100  1
  Cu  Cu10  1  0.43726600  0.99961400  0.49942100  1
  Cu  Cu11  1  0.00038600  0.43726600  0.49942100  1
  Cu  Cu12  1  0.56273400  0.00038600  0.49942100  1
  H  H1  1  0.88352400  0.60498300  0.77528300  1
  H  H2  1  0.39501700  0.88352300  0.77528300  1
  H  H3  1  0.11647700  0.39501700  0.77528300  1
  H  H4  1  0.60498400  0.11647600  0.77528300  1
  H  H5  1  0.38352400  0.10498400  0.27528300  1
  H  H6  1  0.89501700  0.38352400  0.27528300  1
  H  H7  1  0.61647700  0.89501700  0.27528300  1
  H  H8  1  0.10498300  0.61647700  0.27528300  1
  H  H9  1  0.19709300  0.06241500  0.03832600  1
  H  H10  1  0.93758500  0.19709300  0.03832600  1
  H  H11  1  0.80290700  0.93758500  0.03832600  1
  H  H12  1  0.06241500  0.80290700  0.03832600  1
  H  H13  1  0.69709300  0.56241500  0.53832600  1
  H  H14  1  0.43758500  0.69709300  0.53832600  1
  H  H15  1  0.30290700  0.43758500  0.53832600  1
  H  H16  1  0.56241500  0.30290700  0.53832600  1
  H  H17  1  0.30020200  0.07280900  0.03197800  1
  H  H18  1  0.92719100  0.30020100  0.03197800  1
  H  H19  1  0.69979900  0.92719100  0.03197800  1
  H  H20  1  0.07280900  0.69979900  0.03197800  1
  H  H21  1  0.80020200  0.57280900  0.53197800  1
  H  H22  1  0.42719100  0.80020100  0.53197800  1
  H  H23  1  0.19979900  0.42719100  0.53197800  1
  H  H24  1  0.57280900  0.19979800  0.53197800  1
  H  H25  1  0.30950600  0.99432500  0.04621900  1
  H  H26  1  0.00567600  0.30950600  0.04621900  1
  H  H27  1  0.69049400  0.00567600  0.04621900  1
  H  H28  1  0.99432500  0.69049400  0.04621900  1
  H  H29  1  0.80950600  0.49432500  0.54622000  1
  H  H30  1  0.50567600  0.80950600  0.54622000  1
  H  H31  1  0.19049400  0.50567500  0.54622000  1
  H  H32  1  0.49432500  0.19049400  0.54621900  1
  H  H33  1  0.19139300  0.89693800  0.00433100  1
  H  H34  1  0.10306200  0.19139300  0.00433100  1
  H  H35  1  0.80860700  0.10306200  0.00433100  1
  H  H36  1  0.89693800  0.80860700  0.00433100  1
  H  H37  1  0.69139300  0.39693800  0.50433100  1
  H  H38  1  0.60306200  0.69139300  0.50433100  1
  H  H39  1  0.30860700  0.60306200  0.50433100  1
  H  H40  1  0.39693800  0.30860700  0.50433100  1
  H  H41  1  0.29683400  0.90282200  0.01339000  1
  H  H42  1  0.09717800  0.29683400  0.01339000  1
  H  H43  1  0.70316600  0.09717800  0.01339000  1
  H  H44  1  0.90282200  0.70316600  0.01339000  1
  H  H45  1  0.79683400  0.40282200  0.51339000  1
  H  H46  1  0.59717800  0.79683400  0.51339000  1
  H  H47  1  0.20316600  0.59717800  0.51339000  1
  H  H48  1  0.40282200  0.20316600  0.51339000  1
  H  H49  1  0.18955700  0.04124600  0.95930000  1
  H  H50  1  0.95875400  0.18955700  0.95930000  1
  H  H51  1  0.81044300  0.95875400  0.95930000  1
  H  H52  1  0.04124600  0.81044300  0.95930000  1
  H  H53  1  0.68955700  0.54124600  0.45930100  1
  H  H54  1  0.45875400  0.68955700  0.45930000  1
  H  H55  1  0.31044300  0.45875400  0.45930100  1
  H  H56  1  0.54124600  0.31044300  0.45930100  1
  H  H57  1  0.19998500  0.09627700  0.98833100  1
  H  H58  1  0.90372300  0.19998500  0.98833100  1
  H  H59  1  0.80001500  0.90372200  0.98833100  1
  H  H60  1  0.09627800  0.80001500  0.98833100  1
  H  H61  1  0.69998500  0.59627700  0.48833100  1
  H  H62  1  0.40372300  0.69998500  0.48833000  1
  H  H63  1  0.30001500  0.40372300  0.48833100  1
  H  H64  1  0.59627800  0.30001500  0.48833100  1
  H  H65  1  0.30379900  0.09079100  0.97889700  1
  H  H66  1  0.90920900  0.30379900  0.97889700  1
  H  H67  1  0.69620100  0.90920900  0.97889700  1
  H  H68  1  0.09079100  0.69620100  0.97889700  1
  H  H69  1  0.80379900  0.59079100  0.47889700  1
  H  H70  1  0.40920900  0.80379900  0.47889700  1
  H  H71  1  0.19620200  0.40920900  0.47889700  1
  H  H72  1  0.59079100  0.19620200  0.47889700  1
  H  H73  1  0.29406900  0.02363700  0.95558900  1
  H  H74  1  0.97636300  0.29406900  0.95558900  1
  H  H75  1  0.70593100  0.97636300  0.95558900  1
  H  H76  1  0.02363700  0.70593100  0.95558900  1
  H  H77  1  0.79406900  0.52363700  0.45558900  1
  H  H78  1  0.47636300  0.79406900  0.45558900  1
  H  H79  1  0.20593100  0.47636300  0.45558900  1
  H  H80  1  0.52363700  0.20593100  0.45558900  1
  H  H81  1  0.20125900  0.92882600  0.96910200  1
  H  H82  1  0.07117400  0.20125900  0.96910200  1
  H  H83  1  0.79874100  0.07117400  0.96910200  1
  H  H84  1  0.92882600  0.79874100  0.96910200  1
  H  H85  1  0.70125900  0.42882600  0.46910200  1
  H  H86  1  0.57117400  0.70125900  0.46910200  1
  H  H87  1  0.29874100  0.57117400  0.46910200  1
  H  H88  1  0.42882600  0.29874100  0.46910200  1
  H  H89  1  0.30447500  0.91376700  0.97507500  1
  H  H90  1  0.08623300  0.30447500  0.97507500  1
  H  H91  1  0.69552500  0.08623300  0.97507500  1
  H  H92  1  0.91376700  0.69552500  0.97507500  1
  H  H93  1  0.80447500  0.41376700  0.47507500  1
  H  H94  1  0.58623300  0.80447500  0.47507500  1
  H  H95  1  0.19552600  0.58623300  0.47507500  1
  H  H96  1  0.41376700  0.19552500  0.47507500  1
  H  H97  1  0.90340400  0.47253900  0.85711900  1
  H  H98  1  0.52746100  0.90340400  0.85711900  1
  H  H99  1  0.09659600  0.52746100  0.85711900  1
  H  H100  1  0.47253900  0.09659600  0.85711900  1
  H  H101  1  0.40340400  0.97253900  0.35711900  1
  H  H102  1  0.02746100  0.40340400  0.35711900  1
  H  H103  1  0.59659600  0.02746100  0.35711900  1
  H  H104  1  0.97253900  0.59659600  0.35711900  1
  H  H105  1  0.90281100  0.47343200  0.90921400  1
  H  H106  1  0.52656800  0.90281100  0.90921400  1
  H  H107  1  0.09718900  0.52656800  0.90921400  1
  H  H108  1  0.47343200  0.09718900  0.90921400  1
  H  H109  1  0.40281100  0.97343200  0.40921400  1
  H  H110  1  0.02656800  0.40281100  0.40921400  1
  H  H111  1  0.59718900  0.02656800  0.40921400  1
  H  H112  1  0.97343200  0.59718900  0.40921400  1
  H  H113  1  0.38301000  0.10441100  0.22357500  1
  H  H114  1  0.89558900  0.38301000  0.22357500  1
  H  H115  1  0.61699000  0.89558900  0.22357500  1
  H  H116  1  0.10441100  0.61699000  0.22357500  1
  H  H117  1  0.88301000  0.60441100  0.72357500  1
  H  H118  1  0.39558900  0.88301000  0.72357500  1
  H  H119  1  0.11699000  0.39558900  0.72357500  1
  H  H120  1  0.60441100  0.11699000  0.72357500  1
  H  H121  1  0.48315200  0.90100200  0.14174000  1
  H  H122  1  0.09899800  0.48315200  0.14174000  1
  H  H123  1  0.51684800  0.09899900  0.14174000  1
  H  H124  1  0.90100200  0.51684800  0.14174000  1
  H  H125  1  0.98315200  0.40100200  0.64174000  1
  H  H126  1  0.59899900  0.98315200  0.64174000  1
  H  H127  1  0.01684800  0.59899800  0.64174000  1
  H  H128  1  0.40100200  0.01684800  0.64174000  1
  H  H129  1  0.48410400  0.90050300  0.08965000  1
  H  H130  1  0.09949700  0.48410400  0.08965000  1
  H  H131  1  0.51589600  0.09949700  0.08965000  1
  H  H132  1  0.90050300  0.51589600  0.08965000  1
  H  H133  1  0.98410400  0.40050300  0.58965000  1
  H  H134  1  0.59949700  0.98410400  0.58965000  1
  H  H135  1  0.01589600  0.59949700  0.58965000  1
  H  H136  1  0.40050300  0.01589600  0.58965000  1
  C  C1  1  0.00037800  0.11925000  0.00203900  1
  C  C2  1  0.88075000  0.00037800  0.00203900  1
  C  C3  1  0.99962200  0.88075000  0.00203900  1
  C  C4  1  0.11925000  0.99962200  0.00203900  1
  C  C5  1  0.50037800  0.61925000  0.50203900  1
  C  C6  1  0.38075000  0.50037800  0.50203900  1
  C  C7  1  0.49962200  0.38075000  0.50203900  1
  C  C8  1  0.61925000  0.49962200  0.50203900  1
  C  C9  1  0.50000000  0.00000000  0.23465200  1
  C  C10  1  0.00000000  0.50000000  0.23465200  1
  C  C11  1  0.00000000  0.50000000  0.73465200  1
  C  C12  1  0.50000000  0.00000000  0.73465200  1
  C  C13  1  0.50000000  0.00000000  0.08587600  1
  C  C14  1  0.00000000  0.50000000  0.08587600  1
  C  C15  1  0.00000000  0.50000000  0.58587600  1
  C  C16  1  0.50000000  0.00000000  0.58587600  1
  C  C17  1  0.91665600  0.57508600  0.76418700  1
  C  C18  1  0.42491400  0.91665600  0.76418700  1
  C  C19  1  0.08334400  0.42491400  0.76418700  1
  C  C20  1  0.57508700  0.08334400  0.76418700  1
  C  C21  1  0.41665600  0.07508700  0.26418700  1
  C  C22  1  0.92491400  0.41665600  0.26418700  1
  C  C23  1  0.58334400  0.92491400  0.26418700  1
  C  C24  1  0.07508700  0.58334400  0.26418700  1
  C  C25  1  0.45821900  0.03716800  0.21980300  1
  C  C26  1  0.96283200  0.45821900  0.21980300  1
  C  C27  1  0.54178100  0.96283200  0.21980300  1
  C  C28  1  0.03716800  0.54178100  0.21980300  1
  C  C29  1  0.95821900  0.53716800  0.71980300  1
  C  C30  1  0.46283200  0.95821900  0.71980300  1
  C  C31  1  0.04178100  0.46283200  0.71980300  1
  C  C32  1  0.53716800  0.04178100  0.71980300  1
  C  C33  1  0.21615300  0.01633300  0.03127400  1
  C  C34  1  0.98366700  0.21615300  0.03127400  1
  C  C35  1  0.78384700  0.98366700  0.03127400  1
  C  C36  1  0.01633300  0.78384700  0.03127400  1
  C  C37  1  0.71615300  0.51633300  0.53127400  1
  C  C38  1  0.48366700  0.71615300  0.53127400  1
  C  C39  1  0.28384700  0.48366700  0.53127400  1
  C  C40  1  0.51633300  0.28384700  0.53127400  1
  C  C41  1  0.28697200  0.02270400  0.02911700  1
  C  C42  1  0.97729600  0.28697200  0.02911700  1
  C  C43  1  0.71302800  0.97729600  0.02911700  1
  C  C44  1  0.02270400  0.71302800  0.02911700  1
  C  C45  1  0.78697200  0.52270400  0.52911700  1
  C  C46  1  0.47729600  0.78697200  0.52911700  1
  C  C47  1  0.21302800  0.47729600  0.52911700  1
  C  C48  1  0.52270400  0.21302800  0.52911700  1
  C  C49  1  0.21334700  0.93570500  0.99200200  1
  C  C50  1  0.06429500  0.21334700  0.99200200  1
  C  C51  1  0.78665300  0.06429500  0.99200200  1
  C  C52  1  0.93570500  0.78665300  0.99200200  1
  C  C53  1  0.71334700  0.43570500  0.49200200  1
  C  C54  1  0.56429500  0.71334700  0.49200200  1
  C  C55  1  0.28665300  0.56429500  0.49200200  1
  C  C56  1  0.43570500  0.28665300  0.49200200  1
  C  C57  1  0.21216600  0.04855400  0.98044600  1
  C  C58  1  0.95144600  0.21216600  0.98044600  1
  C  C59  1  0.78783400  0.95144600  0.98044600  1
  C  C60  1  0.04855400  0.78783400  0.98044600  1
  C  C61  1  0.71216600  0.54855400  0.48044600  1
  C  C62  1  0.45144600  0.71216600  0.48044600  1
  C  C63  1  0.28783400  0.45144600  0.48044600  1
  C  C64  1  0.54855400  0.28783400  0.48044600  1
  C  C65  1  0.18951400  0.99963300  0.00178500  1
  C  C66  1  0.00036700  0.18951400  0.00178500  1
  C  C67  1  0.81048600  0.00036700  0.00178500  1
  C  C68  1  0.99963300  0.81048600  0.00178500  1
  C  C69  1  0.68951400  0.49963300  0.50178500  1
  C  C70  1  0.50036700  0.68951400  0.50178500  1
  C  C71  1  0.31048600  0.50036700  0.50178500  1
  C  C72  1  0.49963300  0.31048600  0.50178500  1
  C  C73  1  0.30883500  0.99980700  0.00003300  1
  C  C74  1  0.00019300  0.30883500  0.00003300  1
  C  C75  1  0.69116500  0.00019300  0.00003300  1
  C  C76  1  0.99980700  0.69116500  0.00003300  1
  C  C77  1  0.80883500  0.49980700  0.50003300  1
  C  C78  1  0.50019300  0.80883500  0.50003300  1
  C  C79  1  0.19116500  0.50019300  0.50003300  1
  C  C80  1  0.49980700  0.19116500  0.50003300  1
  C  C81  1  0.28422800  0.93353800  0.99504900  1
  C  C82  1  0.06646200  0.28422800  0.99504900  1
  C  C83  1  0.71577200  0.06646200  0.99504900  1
  C  C84  1  0.93353800  0.71577200  0.99504900  1
  C  C85  1  0.78422800  0.43353800  0.49504900  1
  C  C86  1  0.56646200  0.78422800  0.49504900  1
  C  C87  1  0.21577200  0.56646200  0.49504900  1
  C  C88  1  0.43353800  0.21577200  0.49504900  1
  C  C89  1  0.28288100  0.04316500  0.97702900  1
  C  C90  1  0.95683500  0.28288100  0.97702900  1
  C  C91  1  0.71712000  0.95683500  0.97702900  1
  C  C92  1  0.04316500  0.71711900  0.97702900  1
  C  C93  1  0.78288100  0.54316500  0.47702900  1
  C  C94  1  0.45683500  0.78288000  0.47702900  1
  C  C95  1  0.21712000  0.45683500  0.47702900  1
  C  C96  1  0.54316500  0.21711900  0.47702900  1
  C  C97  1  0.50000000  0.00000000  0.14524600  1
  C  C98  1  0.00000000  0.50000000  0.14524600  1
  C  C99  1  0.00000000  0.50000000  0.64524600  1
  C  C100  1  0.50000000  0.00000000  0.64524600  1
  C  C101  1  0.00000000  0.50000000  0.85361200  1
  C  C102  1  0.50000000  0.00000000  0.85361200  1
  C  C103  1  0.50000000  0.00000000  0.35361200  1
  C  C104  1  0.00000000  0.50000000  0.35361200  1
  C  C105  1  0.41632200  0.07471400  0.23467100  1
  C  C106  1  0.92528600  0.41632200  0.23467100  1
  C  C107  1  0.58367800  0.92528600  0.23467100  1
  C  C108  1  0.07471400  0.58367800  0.23467100  1
  C  C109  1  0.91632200  0.57471400  0.73467100  1
  C  C110  1  0.42528600  0.91632200  0.73467100  1
  C  C111  1  0.08367800  0.42528600  0.73467100  1
  C  C112  1  0.57471400  0.08367800  0.73467100  1
  C  C113  1  0.94587800  0.48508900  0.86852400  1
  C  C114  1  0.51491100  0.94587800  0.86852400  1
  C  C115  1  0.05412200  0.51491100  0.86852400  1
  C  C116  1  0.48508900  0.05412200  0.86852400  1
  C  C117  1  0.44587800  0.98508900  0.36852400  1
  C  C118  1  0.01491100  0.44587800  0.36852400  1
  C  C119  1  0.55412200  0.01491100  0.36852400  1
  C  C120  1  0.98508900  0.55412200  0.36852400  1
  C  C121  1  0.45841600  0.03627900  0.19018300  1
  C  C122  1  0.96372100  0.45841600  0.19018300  1
  C  C123  1  0.54158400  0.96372100  0.19018300  1
  C  C124  1  0.03627900  0.54158400  0.19018300  1
  C  C125  1  0.95841600  0.53627900  0.69018300  1
  C  C126  1  0.46372100  0.95841600  0.69018300  1
  C  C127  1  0.04158400  0.46372100  0.69018300  1
  C  C128  1  0.53627900  0.04158400  0.69018300  1
  C  C129  1  0.94571700  0.48545900  0.89805300  1
  C  C130  1  0.51454100  0.94571700  0.89805400  1
  C  C131  1  0.05428300  0.51454100  0.89805300  1
  C  C132  1  0.48545900  0.05428300  0.89805300  1
  C  C133  1  0.44571700  0.98545900  0.39805300  1
  C  C134  1  0.01454100  0.44571700  0.39805300  1
  C  C135  1  0.55428300  0.01454100  0.39805300  1
  C  C136  1  0.98545900  0.55428300  0.39805300  1
  C  C137  1  0.00000000  0.50000000  0.91298200  1
  C  C138  1  0.50000000  0.00000000  0.91298200  1
  C  C139  1  0.50000000  0.00000000  0.41298200  1
  C  C140  1  0.00000000  0.50000000  0.41298200  1
  C  C141  1  0.50000000  0.00000000  0.05448800  1
  C  C142  1  0.00000000  0.50000000  0.05448800  1
  C  C143  1  0.00000000  0.50000000  0.55448800  1
  C  C144  1  0.50000000  0.00000000  0.55448800  1
  C  C145  1  0.37899700  0.00005300  0.99920700  1
  C  C146  1  0.99994700  0.37899700  0.99920700  1
  C  C147  1  0.62100300  0.99994700  0.99920700  1
  C  C148  1  0.00005300  0.62100300  0.99920700  1
  C  C149  1  0.87899700  0.50005300  0.49920700  1
  C  C150  1  0.49994700  0.87899700  0.49920700  1
  C  C151  1  0.12100300  0.49994700  0.49920700  1
  C  C152  1  0.50005300  0.12100300  0.49920700  1
  C  C153  1  0.50000000  0.00000000  0.94437100  1
  C  C154  1  0.00000000  0.50000000  0.94437100  1
  C  C155  1  0.00000000  0.50000000  0.44437100  1
  C  C156  1  0.50000000  0.00000000  0.44437100  1
  C  C157  1  0.49103200  0.94458300  0.13033400  1
  C  C158  1  0.05541700  0.49103200  0.13033400  1
  C  C159  1  0.50896800  0.05541700  0.13033400  1
  C  C160  1  0.94458300  0.50896800  0.13033400  1
  C  C161  1  0.99103200  0.44458300  0.63033400  1
  C  C162  1  0.55541700  0.99103200  0.63033400  1
  C  C163  1  0.00896800  0.55541700  0.63033400  1
  C  C164  1  0.44458300  0.00896800  0.63033400  1
  C  C165  1  0.49141700  0.94446200  0.10080600  1
  C  C166  1  0.05553800  0.49141700  0.10080600  1
  C  C167  1  0.50858300  0.05553800  0.10080600  1
  C  C168  1  0.94446200  0.50858300  0.10080600  1
  C  C169  1  0.99141700  0.44446200  0.60080600  1
  C  C170  1  0.55553800  0.99141700  0.60080600  1
  C  C171  1  0.00858300  0.55553800  0.60080600  1
  C  C172  1  0.44446300  0.00858300  0.60080600  1
  C  C173  1  0.04057300  0.46259400  0.80867500  1
  C  C174  1  0.53740600  0.04057300  0.80867500  1
  C  C175  1  0.95942700  0.53740600  0.80867500  1
  C  C176  1  0.46259400  0.95942700  0.80867500  1
  C  C177  1  0.54057300  0.96259400  0.30867500  1
  C  C178  1  0.03740600  0.54057300  0.30867500  1
  C  C179  1  0.45942700  0.03740600  0.30867500  1
  C  C180  1  0.96259400  0.45942700  0.30867500  1
  C  C181  1  0.95852200  0.53750600  0.77905600  1
  C  C182  1  0.46249400  0.95852200  0.77905600  1
  C  C183  1  0.04147800  0.46249400  0.77905600  1
  C  C184  1  0.53750600  0.04147800  0.77905600  1
  C  C185  1  0.45852200  0.03750600  0.27905600  1
  C  C186  1  0.96249400  0.45852200  0.27905600  1
  C  C187  1  0.54147800  0.96249400  0.27905600  1
  C  C188  1  0.03750600  0.54147800  0.27905600  1
  C  C189  1  0.00000000  0.50000000  0.76420600  1
  C  C190  1  0.50000000  0.00000000  0.76420600  1
  C  C191  1  0.50000000  0.00000000  0.26420600  1
  C  C192  1  0.00000000  0.50000000  0.26420600  1
  I  I1  1  0.19486300  0.94799700  0.06376200  1
  I  I2  1  0.05200300  0.19486300  0.06376200  1
  I  I3  1  0.80513700  0.05200300  0.06376200  1
  I  I4  1  0.94799700  0.80513700  0.06376200  1
  I  I5  1  0.69486300  0.44799700  0.56376200  1
  I  I6  1  0.55200300  0.69486300  0.56376200  1
  I  I7  1  0.30513700  0.55200300  0.56376200  1
  I  I8  1  0.44799700  0.30513700  0.56376200  1
  N  N1  1  0.50000000  0.00000000  0.17584100  1
  N  N2  1  0.00000000  0.50000000  0.17584100  1
  N  N3  1  0.00000000  0.50000000  0.67584100  1
  N  N4  1  0.50000000  0.00000000  0.67584100  1
  N  N5  1  0.00000000  0.50000000  0.82301800  1
  N  N6  1  0.50000000  0.00000000  0.82301800  1
  N  N7  1  0.50000000  0.00000000  0.32301800  1
  N  N8  1  0.00000000  0.50000000  0.32301800  1
  O  O1  1  0.98190700  0.08967000  0.02548400  1
  O  O2  1  0.91033000  0.98190700  0.02548400  1
  O  O3  1  0.01809300  0.91033000  0.02548400  1
  O  O4  1  0.08967000  0.01809300  0.02548400  1
  O  O5  1  0.48190700  0.58967000  0.52548400  1
  O  O6  1  0.41033100  0.48190700  0.52548400  1
  O  O7  1  0.51809400  0.41033000  0.52548400  1
  O  O8  1  0.58967000  0.51809300  0.52548400  1
  O  O9  1  0.01800400  0.08974700  0.97842500  1
  O  O10  1  0.91025300  0.01800400  0.97842500  1
  O  O11  1  0.98199600  0.91025300  0.97842500  1
  O  O12  1  0.08974700  0.98199600  0.97842500  1
  O  O13  1  0.51800500  0.58974700  0.47842500  1
  O  O14  1  0.41025400  0.51800400  0.47842500  1
  O  O15  1  0.48199600  0.41025300  0.47842500  1
  O  O16  1  0.58974700  0.48199600  0.47842500  1
  O  O17  1  0.07929800  0.42418900  0.82326400  1
  O  O18  1  0.57581100  0.07929800  0.82326400  1
  O  O19  1  0.92070200  0.57581100  0.82326400  1
  O  O20  1  0.42418900  0.92070200  0.82326400  1
  O  O21  1  0.57929800  0.92418900  0.32326400  1
  O  O22  1  0.07581100  0.57929800  0.32326400  1
  O  O23  1  0.42070200  0.07581100  0.32326400  1
  O  O24  1  0.92418900  0.42070200  0.32326400  1
  O  O25  1  0.41603900  0.07061200  0.17559400  1
  O  O26  1  0.92938800  0.41603900  0.17559400  1
  O  O27  1  0.58396100  0.92938800  0.17559400  1
  O  O28  1  0.07061200  0.58396100  0.17559400  1
  O  O29  1  0.91603900  0.57061200  0.67559400  1
  O  O30  1  0.42938800  0.91603900  0.67559400  1
  O  O31  1  0.08396100  0.42938800  0.67559400  1
  O  O32  1  0.57061200  0.08396100  0.67559400  1
  O  O33  1  0.49832800  0.05431700  0.04108300  1
  O  O34  1  0.94568300  0.49832800  0.04108300  1
  O  O35  1  0.50167200  0.94568300  0.04108300  1
  O  O36  1  0.05431700  0.50167200  0.04108300  1
  O  O37  1  0.99832800  0.55431700  0.54108300  1
  O  O38  1  0.44568300  0.99832800  0.54108300  1
  O  O39  1  0.00167200  0.44568300  0.54108300  1
  O  O40  1  0.55431700  0.00167200  0.54108300  1
  O  O41  1  0.40815500  0.05429100  0.00105400  1
  O  O42  1  0.94570900  0.40815500  0.00105400  1
  O  O43  1  0.59184500  0.94570900  0.00105400  1
  O  O44  1  0.05429100  0.59184500  0.00105400  1
  O  O45  1  0.90815500  0.55429100  0.50105400  1
  O  O46  1  0.44570900  0.90815500  0.50105400  1
  O  O47  1  0.09184500  0.44570900  0.50105400  1
  O  O48  1  0.55429100  0.09184500  0.50105400  1
  O  O49  1  0.40863200  0.94592100  0.99993800  1
  O  O50  1  0.05407900  0.40863200  0.99993800  1
  O  O51  1  0.59136800  0.05407900  0.99993800  1
  O  O52  1  0.94592100  0.59136800  0.99993800  1
  O  O53  1  0.90863200  0.44592100  0.49993800  1
  O  O54  1  0.55407900  0.90863200  0.49993800  1
  O  O55  1  0.09136800  0.55407900  0.49993800  1
  O  O56  1  0.44592100  0.09136800  0.49993800  1
  O  O57  1  0.49585500  0.05405700  0.95780000  1
  O  O58  1  0.94594300  0.49585400  0.95780000  1
  O  O59  1  0.50414600  0.94594300  0.95780000  1
  O  O60  1  0.05405700  0.50414600  0.95780000  1
  O  O61  1  0.99585500  0.55405700  0.45780000  1
  O  O62  1  0.44594300  0.99585500  0.45780000  1
  O  O63  1  0.00414600  0.44594300  0.45780000  1
  O  O64  1  0.55405700  0.00414600  0.45780000  1
