# generated using pymatgen
data_ZnH15C27(NO2)2
_symmetry_space_group_name_H-M   'P 1'
_cell_length_a   11.92001200
_cell_length_b   14.85981100
_cell_length_c   16.02797400
_cell_angle_alpha   86.03310700
_cell_angle_beta   89.99688200
_cell_angle_gamma   103.20485000
_symmetry_Int_Tables_number   1
_chemical_formula_structural   ZnH15C27(NO2)2
_chemical_formula_sum   'Zn2 H30 C54 N4 O8'
_cell_volume   2756.96662171
_cell_formula_units_Z   2
loop_
 _symmetry_equiv_pos_site_id
 _symmetry_equiv_pos_as_xyz
  1  'x, y, z'
loop_
 _atom_site_type_symbol
 _atom_site_label
 _atom_site_symmetry_multiplicity
 _atom_site_fract_x
 _atom_site_fract_y
 _atom_site_fract_z
 _atom_site_occupancy
  Zn  Zn1  1  0.47140100  0.39196400  0.45663900  1
  Zn  Zn2  1  0.52911000  0.59341900  0.49981100  1
  H  H1  1  0.47725000  0.44203300  0.19166400  1
  H  H2  1  0.50839000  0.54384000  0.76480200  1
  H  H3  1  0.57653900  0.72121900  0.25045900  1
  H  H4  1  0.44204600  0.26388200  0.70614200  1
  H  H5  1  0.42797500  0.21315200  0.85129000  1
  H  H6  1  0.59721800  0.77205300  0.10632900  1
  H  H7  1  0.46432900  0.34991800  0.10260300  1
  H  H8  1  0.56625400  0.63385000  0.85382900  1
  H  H9  1  0.71190900  0.01620000  0.63614700  1
  H  H10  1  0.28648300  0.96869300  0.32189400  1
  H  H11  1  0.54894200  0.22636300  0.51369300  1
  H  H12  1  0.45261800  0.75928900  0.44206000  1
  H  H13  1  0.31167300  0.28276600  0.33912300  1
  H  H14  1  0.68748200  0.70227600  0.61831800  1
  H  H15  1  0.73631200  0.86344100  0.65460300  1
  H  H16  1  0.26188300  0.12139300  0.30365300  1
  H  H17  1  0.62587900  0.12982500  0.57200100  1
  H  H18  1  0.37283400  0.85514000  0.38580700  1
  H  H19  1  0.48706600  0.20669300  0.04443500  1
  H  H20  1  0.36250800  0.09134300  0.12336500  1
  H  H21  1  0.16540500  0.02460800  0.17340100  1
  H  H22  1  0.00350900  0.08055700  0.11080400  1
  H  H23  1  0.03948000  0.20314700  0.99656600  1
  H  H24  1  0.23398800  0.26979400  0.94457800  1
  H  H25  1  0.68187900  0.79222300  0.97785000  1
  H  H26  1  0.64213100  0.93774000  0.97832800  1
  H  H27  1  0.49942300  0.03277700  0.97346500  1
  H  H28  1  0.29826700  0.96476000  0.93925000  1
  H  H29  1  0.24042900  0.80091300  0.90891300  1
  H  H30  1  0.38013400  0.70504600  0.91244800  1
  C  C1  1  0.48512500  0.43906300  0.63787900  1
  C  C2  1  0.51558100  0.54631300  0.31854800  1
  C  C3  1  0.71945400  0.49239900  0.47810000  1
  C  C4  1  0.28105400  0.49299100  0.47833300  1
  C  C5  1  0.83984200  0.49239000  0.47810800  1
  C  C6  1  0.16066500  0.49300200  0.47831900  1
  C  C7  1  0.94098400  0.49256000  0.47816600  1
  C  C8  1  0.05952300  0.49283300  0.47825800  1
  C  C9  1  0.47808600  0.40855800  0.72735100  1
  C  C10  1  0.52668800  0.57683800  0.22905400  1
  C  C11  1  0.44754800  0.28685500  0.83498400  1
  C  C12  1  0.57182500  0.69840200  0.12166200  1
  C  C13  1  0.45527400  0.31553700  0.75161200  1
  C  C14  1  0.55963900  0.66965300  0.20492400  1
  C  C15  1  0.49485900  0.47263200  0.78750700  1
  C  C16  1  0.50545800  0.51301700  0.16877100  1
  C  C17  1  0.49088000  0.44488700  0.87296500  1
  C  C18  1  0.51895500  0.54061000  0.08324700  1
  C  C19  1  0.46408700  0.35061600  0.89555000  1
  C  C20  1  0.55227600  0.63505700  0.06051000  1
  C  C21  1  0.51184800  0.50841400  0.93597800  1
  C  C22  1  0.50006200  0.47661600  0.02040900  1
  C  C23  1  0.47171700  0.38121800  0.03995700  1
  C  C24  1  0.54774200  0.60325400  0.91633700  1
  C  C25  1  0.45353900  0.31951400  0.97881500  1
  C  C26  1  0.56614900  0.66566200  0.97674600  1
  C  C27  1  0.67291600  0.84264400  0.60724500  1
  C  C28  1  0.32609500  0.14237500  0.35037600  1
  C  C29  1  0.64569100  0.75219300  0.58696500  1
  C  C30  1  0.35384400  0.23294900  0.37022400  1
  C  C31  1  0.51377700  0.78667800  0.48821700  1
  C  C32  1  0.48691700  0.19875700  0.46815300  1
  C  C33  1  0.53828900  0.87971800  0.50690000  1
  C  C34  1  0.46167000  0.10553500  0.45002500  1
  C  C35  1  0.61948100  0.90619200  0.56736900  1
  C  C36  1  0.37986700  0.07891100  0.39000200  1
  C  C37  1  0.48487600  0.94656600  0.46750800  1
  C  C38  1  0.51488600  0.03864300  0.48955900  1
  C  C39  1  0.59738900  0.06154300  0.55078100  1
  C  C40  1  0.40187100  0.92354700  0.40664200  1
  C  C41  1  0.64829600  0.99607000  0.58878800  1
  C  C42  1  0.35063300  0.98894100  0.36887300  1
  C  C43  1  0.31368100  0.18699000  0.03181100  1
  C  C44  1  0.29241200  0.11713500  0.09537500  1
  C  C45  1  0.18132300  0.07915300  0.12367600  1
  C  C46  1  0.09058100  0.11042800  0.08860000  1
  C  C47  1  0.11084800  0.17926500  0.02467900  1
  C  C48  1  0.22176300  0.21734400  0.99594000  1
  C  C49  1  0.52192000  0.81404800  0.94763000  1
  C  C50  1  0.55393800  0.90668500  0.96343700  1
  C  C51  1  0.47375500  0.96053300  0.96067800  1
  C  C52  1  0.36107000  0.92246300  0.94152000  1
  C  C53  1  0.32869100  0.83056800  0.92467500  1
  C  C54  1  0.40852400  0.77632100  0.92742300  1
  N  N1  1  0.56723400  0.72586300  0.52814900  1
  N  N2  1  0.43324200  0.25950900  0.42834900  1
  N  N3  1  0.42837600  0.22362800  0.00264700  1
  N  N4  1  0.60645900  0.76050200  0.95042800  1
  O  O1  1  0.46693800  0.37560800  0.58323800  1
  O  O2  1  0.53379900  0.60978300  0.37320800  1
  O  O3  1  0.51058500  0.52827000  0.61597000  1
  O  O4  1  0.49001700  0.45709500  0.34046800  1
  O  O5  1  0.64547200  0.41597900  0.46172200  1
  O  O6  1  0.35504300  0.56940400  0.49467000  1
  O  O7  1  0.68921100  0.56887600  0.49451500  1
  O  O8  1  0.31130700  0.41651700  0.46196600  1
