# generated using pymatgen
data_Cu3H30C42O13
_symmetry_space_group_name_H-M   'P 1'
_cell_length_a   36.64508900
_cell_length_b   30.09165400
_cell_length_c   21.25655200
_cell_angle_alpha   90.00000000
_cell_angle_beta   55.08076700
_cell_angle_gamma   90.00000000
_symmetry_Int_Tables_number   1
_chemical_formula_structural   Cu3H30C42O13
_chemical_formula_sum   'Cu12 H120 C168 O52'
_cell_volume   19219.72662002
_cell_formula_units_Z   4
loop_
 _symmetry_equiv_pos_site_id
 _symmetry_equiv_pos_as_xyz
  1  'x, y, z'
loop_
 _atom_site_type_symbol
 _atom_site_label
 _atom_site_symmetry_multiplicity
 _atom_site_fract_x
 _atom_site_fract_y
 _atom_site_fract_z
 _atom_site_occupancy
  Cu  Cu1  1  0.00000000  0.54064500  0.50000000  1
  Cu  Cu2  1  0.50000000  0.04064500  0.50000000  1
  Cu  Cu3  1  0.00000000  0.45403200  0.50000000  1
  Cu  Cu4  1  0.50000000  0.95403200  0.50000000  1
  Cu  Cu5  1  0.95564900  0.50123500  0.04401300  1
  Cu  Cu6  1  0.04435100  0.50123500  0.95598700  1
  Cu  Cu7  1  0.45564900  0.00123500  0.04401300  1
  Cu  Cu8  1  0.54435100  0.00123500  0.95598700  1
  Cu  Cu9  1  0.49965800  0.50116500  0.93900500  1
  Cu  Cu10  1  0.50034200  0.50116500  0.06099500  1
  Cu  Cu11  1  0.99965800  0.00116500  0.93900500  1
  Cu  Cu12  1  0.00034200  0.00116500  0.06099500  1
  H  H1  1  0.96758300  0.56116600  0.33928600  1
  H  H2  1  0.03241700  0.56116600  0.66071400  1
  H  H3  1  0.46758300  0.06116600  0.33928600  1
  H  H4  1  0.53241700  0.06116600  0.66071400  1
  H  H5  1  0.93087600  0.51394400  0.37253300  1
  H  H6  1  0.06912400  0.51394400  0.62746700  1
  H  H7  1  0.43087600  0.01394400  0.37253300  1
  H  H8  1  0.56912400  0.01394400  0.62746700  1
  H  H9  1  0.93067700  0.51827500  0.26788400  1
  H  H10  1  0.06932300  0.51827500  0.73211600  1
  H  H11  1  0.43067700  0.01827500  0.26788400  1
  H  H12  1  0.56932300  0.01827500  0.73211600  1
  H  H13  1  0.96938900  0.56421800  0.23187900  1
  H  H14  1  0.03061100  0.56421800  0.76812100  1
  H  H15  1  0.46938900  0.06421800  0.23187900  1
  H  H16  1  0.53061100  0.06421800  0.76812100  1
  H  H17  1  0.04608100  0.55252600  0.25585000  1
  H  H18  1  0.95391900  0.55252600  0.74415000  1
  H  H19  1  0.54608100  0.05252600  0.25585000  1
  H  H20  1  0.45391900  0.05252600  0.74415000  1
  H  H21  1  0.05206200  0.54957300  0.14613400  1
  H  H22  1  0.94793800  0.54957300  0.85386600  1
  H  H23  1  0.55206200  0.04957300  0.14613400  1
  H  H24  1  0.44793800  0.04957300  0.85386600  1
  H  H25  1  0.95852000  0.44033800  0.33865400  1
  H  H26  1  0.04148000  0.44033800  0.66134600  1
  H  H27  1  0.45852000  0.94033800  0.33865400  1
  H  H28  1  0.54148000  0.94033800  0.66134600  1
  H  H29  1  0.95982200  0.44084200  0.23425000  1
  H  H30  1  0.04017800  0.44084200  0.76575100  1
  H  H31  1  0.45982200  0.94084200  0.23425000  1
  H  H32  1  0.54017800  0.94084200  0.76575100  1
  H  H33  1  0.01864900  0.43057200  0.17380500  1
  H  H34  1  0.98135100  0.43057200  0.82619600  1
  H  H35  1  0.51864900  0.93057200  0.17380500  1
  H  H36  1  0.48135100  0.93057200  0.82619600  1
  H  H37  1  0.07318600  0.49991300  0.23468900  1
  H  H38  1  0.92681400  0.49991300  0.76531100  1
  H  H39  1  0.57318600  0.99991300  0.23468900  1
  H  H40  1  0.42681400  0.99991300  0.76531100  1
  H  H41  1  0.07194100  0.49299000  0.12909300  1
  H  H42  1  0.92805900  0.49299000  0.87090700  1
  H  H43  1  0.57194100  0.99299000  0.12909300  1
  H  H44  1  0.42805900  0.99299000  0.87090700  1
  H  H45  1  0.78005700  0.43415900  0.76239600  1
  H  H46  1  0.21994300  0.43415900  0.23760400  1
  H  H47  1  0.28005700  0.93415900  0.76239600  1
  H  H48  1  0.71994300  0.93415900  0.23760400  1
  H  H49  1  0.86069800  0.43353900  0.68219500  1
  H  H50  1  0.13930200  0.43353900  0.31780500  1
  H  H51  1  0.36069800  0.93353900  0.68219500  1
  H  H52  1  0.63930200  0.93353900  0.31780500  1
  H  H53  1  0.86108800  0.56189100  0.59499300  1
  H  H54  1  0.13891200  0.56189100  0.40500700  1
  H  H55  1  0.36108800  0.06189100  0.59499300  1
  H  H56  1  0.63891200  0.06189100  0.40500700  1
  H  H57  1  0.78058900  0.56274300  0.67635300  1
  H  H58  1  0.21941100  0.56274300  0.32364700  1
  H  H59  1  0.28058900  0.06274300  0.67635300  1
  H  H60  1  0.71941100  0.06274300  0.32364700  1
  H  H61  1  0.71928200  0.52662700  0.68777800  1
  H  H62  1  0.28071800  0.52662700  0.31222200  1
  H  H63  1  0.21928200  0.02662700  0.68777800  1
  H  H64  1  0.78071800  0.02662700  0.31222200  1
  H  H65  1  0.63875300  0.52825200  0.76870800  1
  H  H66  1  0.36124700  0.52825200  0.23129200  1
  H  H67  1  0.13875300  0.02825200  0.76870800  1
  H  H68  1  0.86124700  0.02825200  0.23129200  1
  H  H69  1  0.63949100  0.47240500  0.95318500  1
  H  H70  1  0.36050900  0.47240500  0.04681500  1
  H  H71  1  0.13949100  0.97240500  0.95318500  1
  H  H72  1  0.86050900  0.97240500  0.04681500  1
  H  H73  1  0.72005400  0.47163400  0.87243800  1
  H  H74  1  0.27994600  0.47163400  0.12756200  1
  H  H75  1  0.22005400  0.97163400  0.87243800  1
  H  H76  1  0.77994600  0.97163400  0.12756200  1
  H  H77  1  0.06846500  0.72174900  0.90537200  1
  H  H78  1  0.93153500  0.72174900  0.09462800  1
  H  H79  1  0.56846500  0.22174900  0.90537200  1
  H  H80  1  0.43153500  0.22174900  0.09462800  1
  H  H81  1  0.06856700  0.64114500  0.90511900  1
  H  H82  1  0.93143300  0.64114500  0.09488100  1
  H  H83  1  0.56856700  0.14114500  0.90511900  1
  H  H84  1  0.43143300  0.14114500  0.09488100  1
  H  H85  1  0.46481700  0.28181000  0.12204200  1
  H  H86  1  0.53518300  0.28181000  0.87795800  1
  H  H87  1  0.96481700  0.78181000  0.12204200  1
  H  H88  1  0.03518300  0.78181000  0.87795800  1
  H  H89  1  0.46468700  0.36240900  0.12227500  1
  H  H90  1  0.53531300  0.36240900  0.87772500  1
  H  H91  1  0.96468700  0.86240900  0.12227500  1
  H  H92  1  0.03531300  0.86240900  0.87772500  1
  H  H93  1  0.06957800  0.28059300  0.95187600  1
  H  H94  1  0.93042200  0.28059300  0.04812400  1
  H  H95  1  0.56957800  0.78059300  0.95187600  1
  H  H96  1  0.43042200  0.78059300  0.04812400  1
  H  H97  1  0.06971000  0.36126000  0.95171900  1
  H  H98  1  0.93029000  0.36126000  0.04828100  1
  H  H99  1  0.56971000  0.86126000  0.95171900  1
  H  H100  1  0.43029000  0.86126000  0.04828100  1
  H  H101  1  0.46156100  0.72058200  0.95342000  1
  H  H102  1  0.53843900  0.72058200  0.04658000  1
  H  H103  1  0.96156100  0.22058200  0.95342000  1
  H  H104  1  0.03843900  0.22058200  0.04658000  1
  H  H105  1  0.46152600  0.63992200  0.95326800  1
  H  H106  1  0.53847400  0.63992200  0.04673200  1
  H  H107  1  0.96152600  0.13992200  0.95326800  1
  H  H108  1  0.03847400  0.13992200  0.04673200  1
  H  H109  1  0.08859000  0.43103800  0.17546800  1
  H  H110  1  0.11460200  0.35905100  0.21043500  1
  H  H111  1  0.04393800  0.32774800  0.33877500  1
  H  H112  1  0.91141000  0.43103800  0.82453200  1
  H  H113  1  0.88539800  0.35905100  0.78956500  1
  H  H114  1  0.95606200  0.32774800  0.66122500  1
  H  H115  1  0.58859000  0.93103800  0.17546800  1
  H  H116  1  0.61460200  0.85905100  0.21043500  1
  H  H117  1  0.54393800  0.82774800  0.33877500  1
  H  H118  1  0.41141000  0.93103800  0.82453200  1
  H  H119  1  0.38539800  0.85905100  0.78956500  1
  H  H120  1  0.45606200  0.82774800  0.66122500  1
  C  C1  1  0.91564600  0.49737400  0.58373500  1
  C  C2  1  0.08435400  0.49737400  0.41626500  1
  C  C3  1  0.41564600  0.99737400  0.58373500  1
  C  C4  1  0.58435400  0.99737400  0.41626500  1
  C  C5  1  0.00045600  0.49703100  0.38034800  1
  C  C6  1  0.99954400  0.49703100  0.61965200  1
  C  C7  1  0.50045600  0.99703100  0.38034800  1
  C  C8  1  0.49954400  0.99703100  0.61965200  1
  C  C9  1  0.96332500  0.52719500  0.32421900  1
  C  C10  1  0.03667500  0.52719500  0.67578100  1
  C  C11  1  0.46332500  0.02719500  0.32421900  1
  C  C12  1  0.53667500  0.02719500  0.67578100  1
  C  C13  1  0.96363600  0.52942100  0.25269900  1
  C  C14  1  0.03636400  0.52942100  0.74730100  1
  C  C15  1  0.46363600  0.02942100  0.25269900  1
  C  C16  1  0.53636400  0.02942100  0.74730100  1
  C  C17  1  0.04402800  0.51721800  0.24327700  1
  C  C18  1  0.95597200  0.51721800  0.75672300  1
  C  C19  1  0.54402800  0.01721800  0.24327700  1
  C  C20  1  0.45597200  0.01721800  0.75672300  1
  C  C21  1  0.99250000  0.45056000  0.29080500  1
  C  C22  1  0.00750000  0.45056000  0.70919500  1
  C  C23  1  0.49250000  0.95056000  0.29080500  1
  C  C24  1  0.50750000  0.95056000  0.70919500  1
  C  C25  1  0.00070200  0.49723900  0.30974200  1
  C  C26  1  0.99929800  0.49723900  0.69025800  1
  C  C27  1  0.50070200  0.99723900  0.30974200  1
  C  C28  1  0.49929800  0.99723900  0.69025800  1
  C  C29  1  0.00033100  0.49981400  0.19059600  1
  C  C30  1  0.99966900  0.49981400  0.80940400  1
  C  C31  1  0.50033100  0.99981400  0.19059600  1
  C  C32  1  0.49966900  0.99981400  0.80940400  1
  C  C33  1  0.04505900  0.51569700  0.17107400  1
  C  C34  1  0.95494100  0.51569700  0.82892600  1
  C  C35  1  0.54505900  0.01569700  0.17107400  1
  C  C36  1  0.45494100  0.01569700  0.82892600  1
  C  C37  1  0.99257100  0.45243100  0.21949400  1
  C  C38  1  0.00742900  0.45243100  0.78050600  1
  C  C39  1  0.49257100  0.95243100  0.21949400  1
  C  C40  1  0.50742900  0.95243100  0.78050600  1
  C  C41  1  0.79758900  0.46260700  0.72644900  1
  C  C42  1  0.20241100  0.46260700  0.27355100  1
  C  C43  1  0.29758900  0.96260700  0.72644900  1
  C  C44  1  0.70241100  0.96260700  0.27355100  1
  C  C45  1  0.84348700  0.46207400  0.68019100  1
  C  C46  1  0.15651300  0.46207400  0.31980900  1
  C  C47  1  0.34348700  0.96207400  0.68019100  1
  C  C48  1  0.65651300  0.96207400  0.31980900  1
  C  C49  1  0.86683800  0.49762800  0.63253900  1
  C  C50  1  0.13316200  0.49762800  0.36746100  1
  C  C51  1  0.36683800  0.99762800  0.63253900  1
  C  C52  1  0.63316200  0.99762800  0.36746100  1
  C  C53  1  0.84372500  0.53360300  0.63154300  1
  C  C54  1  0.15627500  0.53360300  0.36845700  1
  C  C55  1  0.34372500  0.03360300  0.63154300  1
  C  C56  1  0.65627500  0.03360300  0.36845700  1
  C  C57  1  0.79785700  0.53392400  0.67730000  1
  C  C58  1  0.20214300  0.53392400  0.32270000  1
  C  C59  1  0.29785700  0.03392400  0.67730000  1
  C  C60  1  0.70214300  0.03392400  0.32270000  1
  C  C61  1  0.77444600  0.49848600  0.72518900  1
  C  C62  1  0.22555400  0.49848600  0.27481100  1
  C  C63  1  0.27444600  0.99848600  0.72518900  1
  C  C64  1  0.72555400  0.99848600  0.27481100  1
  C  C65  1  0.70206300  0.51516500  0.74633900  1
  C  C66  1  0.29793700  0.51516500  0.25366100  1
  C  C67  1  0.20206300  0.01516500  0.74633900  1
  C  C68  1  0.79793700  0.01516500  0.25366100  1
  C  C69  1  0.65618300  0.51570700  0.79225800  1
  C  C70  1  0.34381700  0.51570700  0.20774200  1
  C  C71  1  0.15618300  0.01570700  0.79225800  1
  C  C72  1  0.84381700  0.01570700  0.20774200  1
  C  C73  1  0.63314400  0.50046000  0.86696700  1
  C  C74  1  0.36685600  0.50046000  0.13303300  1
  C  C75  1  0.13314400  0.00046000  0.86696700  1
  C  C76  1  0.86685600  0.00046000  0.13303300  1
  C  C77  1  0.65659500  0.48448200  0.89500100  1
  C  C78  1  0.34340500  0.48448200  0.10499900  1
  C  C79  1  0.15659500  0.98448200  0.89500100  1
  C  C80  1  0.84340500  0.98448200  0.10499900  1
  C  C81  1  0.70247500  0.48361900  0.84881700  1
  C  C82  1  0.29752500  0.48361900  0.15118300  1
  C  C83  1  0.20247500  0.98361900  0.84881700  1
  C  C84  1  0.79752500  0.98361900  0.15118300  1
  C  C85  1  0.72554500  0.49904400  0.77421500  1
  C  C86  1  0.27445500  0.49904400  0.22578500  1
  C  C87  1  0.22554500  0.99904400  0.77421500  1
  C  C88  1  0.77445500  0.99904400  0.22578500  1
  C  C89  1  0.00000000  0.58659900  0.00000000  1
  C  C90  1  0.50000000  0.08659900  0.00000000  1
  C  C91  1  0.00007800  0.50099800  0.12070700  1
  C  C92  1  0.99992200  0.50099800  0.87929300  1
  C  C93  1  0.50007800  0.00099800  0.12070700  1
  C  C94  1  0.49992200  0.00099800  0.87929300  1
  C  C95  1  0.00000000  0.41578900  0.00000000  1
  C  C96  1  0.50000000  0.91578900  0.00000000  1
  C  C97  1  0.50000000  0.41696400  0.00000000  1
  C  C98  1  0.00000000  0.91696400  0.00000000  1
  C  C99  1  0.58432000  0.50100000  0.91585800  1
  C  C100  1  0.41568000  0.50100000  0.08414200  1
  C  C101  1  0.08432000  0.00100000  0.91585800  1
  C  C102  1  0.91568000  0.00100000  0.08414200  1
  C  C103  1  0.50000000  0.58537400  0.00000000  1
  C  C104  1  0.00000000  0.08537400  0.00000000  1
  C  C105  1  0.03811400  0.70425500  0.94674700  1
  C  C106  1  0.96188600  0.70425500  0.05325300  1
  C  C107  1  0.53811400  0.20425500  0.94674700  1
  C  C108  1  0.46188600  0.20425500  0.05325300  1
  C  C109  1  0.03824800  0.65845200  0.94714000  1
  C  C110  1  0.96175200  0.65845200  0.05286000  1
  C  C111  1  0.53824800  0.15845200  0.94714000  1
  C  C112  1  0.46175200  0.15845200  0.05286000  1
  C  C113  1  0.00000000  0.63529100  0.00000000  1
  C  C114  1  0.50000000  0.13529100  0.00000000  1
  C  C115  1  0.00000000  0.72741500  0.00000000  1
  C  C116  1  0.50000000  0.22741500  0.00000000  1
  C  C117  1  0.48002000  0.29930500  0.06818900  1
  C  C118  1  0.51998000  0.29930500  0.93181100  1
  C  C119  1  0.98002000  0.79930500  0.06818900  1
  C  C120  1  0.01998000  0.79930500  0.93181100  1
  C  C121  1  0.48034700  0.34510700  0.06817700  1
  C  C122  1  0.51965300  0.34510700  0.93182300  1
  C  C123  1  0.98034700  0.84510700  0.06817700  1
  C  C124  1  0.01965300  0.84510700  0.93182300  1
  C  C125  1  0.50000000  0.36827000  0.00000000  1
  C  C126  1  0.00000000  0.86827000  0.00000000  1
  C  C127  1  0.50000000  0.27614400  0.00000000  1
  C  C128  1  0.00000000  0.77614400  0.00000000  1
  C  C129  1  0.03877300  0.29811400  0.97371200  1
  C  C130  1  0.96122700  0.29811400  0.02628800  1
  C  C131  1  0.53877300  0.79811400  0.97371200  1
  C  C132  1  0.46122700  0.79811400  0.02628800  1
  C  C133  1  0.03889400  0.34392600  0.97296400  1
  C  C134  1  0.96110600  0.34392600  0.02703600  1
  C  C135  1  0.53889400  0.84392600  0.97296400  1
  C  C136  1  0.46110600  0.84392600  0.02703600  1
  C  C137  1  0.00000000  0.36709000  0.00000000  1
  C  C138  1  0.50000000  0.86709000  0.00000000  1
  C  C139  1  0.00000000  0.27495400  0.00000000  1
  C  C140  1  0.50000000  0.77495400  0.00000000  1
  C  C141  1  0.47823000  0.70306100  0.97457700  1
  C  C142  1  0.52177000  0.70306100  0.02542300  1
  C  C143  1  0.97823000  0.20306100  0.97457700  1
  C  C144  1  0.02177000  0.20306100  0.02542300  1
  C  C145  1  0.47860100  0.65724900  0.97382600  1
  C  C146  1  0.52139900  0.65724900  0.02617400  1
  C  C147  1  0.97860100  0.15724900  0.97382600  1
  C  C148  1  0.02139900  0.15724900  0.02617400  1
  C  C149  1  0.50000000  0.63408000  0.00000000  1
  C  C150  1  0.00000000  0.13408000  0.00000000  1
  C  C151  1  0.50000000  0.72622100  0.00000000  1
  C  C152  1  0.00000000  0.22622100  0.00000000  1
  C  C153  1  0.02358900  0.41512000  0.28366800  1
  C  C154  1  0.06815500  0.41062300  0.22570100  1
  C  C155  1  0.08164100  0.37343900  0.24298000  1
  C  C156  1  0.04455900  0.35749600  0.30967600  1
  C  C157  1  0.97641100  0.41512000  0.71633200  1
  C  C158  1  0.93184500  0.41062400  0.77429900  1
  C  C159  1  0.91835900  0.37343900  0.75702000  1
  C  C160  1  0.95544100  0.35749600  0.69032400  1
  C  C161  1  0.52358900  0.91512000  0.28366800  1
  C  C162  1  0.56815500  0.91062300  0.22570100  1
  C  C163  1  0.58164100  0.87343900  0.24298000  1
  C  C164  1  0.54455900  0.85749600  0.30967600  1
  C  C165  1  0.47641100  0.91512000  0.71633200  1
  C  C166  1  0.43184500  0.91062400  0.77429900  1
  C  C167  1  0.41835900  0.87343900  0.75702000  1
  C  C168  1  0.45544100  0.85749600  0.69032400  1
  O  O1  1  0.93656100  0.53384200  0.54499100  1
  O  O2  1  0.06343900  0.53384200  0.45500900  1
  O  O3  1  0.43656100  0.03384200  0.54499100  1
  O  O4  1  0.56343900  0.03384200  0.45500900  1
  O  O5  1  0.93659900  0.46081500  0.58077600  1
  O  O6  1  0.06340100  0.46081500  0.41922400  1
  O  O7  1  0.43659900  0.96081500  0.58077600  1
  O  O8  1  0.56340100  0.96081500  0.41922400  1
  O  O9  1  0.01246500  0.53382500  0.39801400  1
  O  O10  1  0.98753500  0.53382500  0.60198600  1
  O  O11  1  0.51246500  0.03382500  0.39801400  1
  O  O12  1  0.48753500  0.03382500  0.60198600  1
  O  O13  1  0.98708700  0.46085200  0.42322700  1
  O  O14  1  0.01291300  0.46085200  0.57677300  1
  O  O15  1  0.48708700  0.96085200  0.42322700  1
  O  O16  1  0.51291300  0.96085200  0.57677300  1
  O  O17  1  0.96169600  0.56579500  0.04199400  1
  O  O18  1  0.03830400  0.56579500  0.95800600  1
  O  O19  1  0.46169600  0.06579500  0.04199400  1
  O  O20  1  0.53830400  0.06579500  0.95800600  1
  O  O21  1  0.96160800  0.50185700  0.12959900  1
  O  O22  1  0.03839200  0.50185700  0.87040100  1
  O  O23  1  0.46160800  0.00185700  0.12959900  1
  O  O24  1  0.53839200  0.00185700  0.87040100  1
  O  O25  1  0.03823600  0.50391600  0.05340600  1
  O  O26  1  0.96176400  0.50391600  0.94659400  1
  O  O27  1  0.53823600  0.00391600  0.05340600  1
  O  O28  1  0.46176400  0.00391600  0.94659400  1
  O  O29  1  0.96168500  0.43662000  0.03917100  1
  O  O30  1  0.03831500  0.43662000  0.96082900  1
  O  O31  1  0.46168500  0.93662000  0.03917100  1
  O  O32  1  0.53831500  0.93662000  0.96082900  1
  O  O33  1  0.51232300  0.43784500  0.93598100  1
  O  O34  1  0.48767700  0.43784500  0.06401900  1
  O  O35  1  0.01232300  0.93784500  0.93598100  1
  O  O36  1  0.98767700  0.93784500  0.06401900  1
  O  O37  1  0.56312300  0.51376100  0.88534100  1
  O  O38  1  0.43687700  0.51376100  0.11465900  1
  O  O39  1  0.06312300  0.01376100  0.88534100  1
  O  O40  1  0.93687700  0.01376100  0.11465900  1
  O  O41  1  0.56363000  0.48854100  0.98825700  1
  O  O42  1  0.43637000  0.48854100  0.01174300  1
  O  O43  1  0.06363000  0.98854100  0.98825700  1
  O  O44  1  0.93637000  0.98854100  0.01174300  1
  O  O45  1  0.48709500  0.56448800  0.96115700  1
  O  O46  1  0.51290500  0.56448800  0.03884300  1
  O  O47  1  0.98709500  0.06448800  0.96115700  1
  O  O48  1  0.01290500  0.06448800  0.03884300  1
  O  O49  1  0.00904300  0.38250300  0.33452900  1
  O  O50  1  0.99095700  0.38250300  0.66547100  1
  O  O51  1  0.50904300  0.88250300  0.33452900  1
  O  O52  1  0.49095700  0.88250300  0.66547100  1
