# generated using pymatgen
data_Cu3H27C50NO12
_symmetry_space_group_name_H-M   'P 1'
_cell_length_a   40.81532100
_cell_length_b   35.27273800
_cell_length_c   21.54412800
_cell_angle_alpha   90.00000000
_cell_angle_beta   59.65740500
_cell_angle_gamma   90.00000000
_symmetry_Int_Tables_number   1
_chemical_formula_structural   Cu3H27C50NO12
_chemical_formula_sum   'Cu12 H108 C200 N4 O48'
_cell_volume   26767.77592140
_cell_formula_units_Z   4
loop_
 _symmetry_equiv_pos_site_id
 _symmetry_equiv_pos_as_xyz
  1  'x, y, z'
loop_
 _atom_site_type_symbol
 _atom_site_label
 _atom_site_symmetry_multiplicity
 _atom_site_fract_x
 _atom_site_fract_y
 _atom_site_fract_z
 _atom_site_occupancy
  Cu  Cu1  1  0.00000000  0.03159800  0.99999900  1
  Cu  Cu2  1  0.50000000  0.53159800  0.99999900  1
  Cu  Cu3  1  0.00000000  0.95752000  0.99999900  1
  Cu  Cu4  1  0.50000000  0.45752000  0.99999900  1
  Cu  Cu5  1  0.03774900  0.99449500  0.46038100  1
  Cu  Cu6  1  0.96225100  0.99449500  0.53961600  1
  Cu  Cu7  1  0.53774900  0.49449500  0.46038100  1
  Cu  Cu8  1  0.46225100  0.49449500  0.53961600  1
  Cu  Cu9  1  0.50255200  0.99460000  0.55800100  1
  Cu  Cu10  1  0.49744800  0.99460000  0.44199600  1
  Cu  Cu11  1  0.00255200  0.49460000  0.55800100  1
  Cu  Cu12  1  0.99744800  0.49460000  0.44199600  1
  H  H1  1  0.04008000  0.03004400  0.15461200  1
  H  H2  1  0.95992100  0.03004400  0.84538600  1
  H  H3  1  0.54008000  0.53004400  0.15461200  1
  H  H4  1  0.45992100  0.53004400  0.84538600  1
  H  H5  1  0.92657100  0.96312200  0.20886300  1
  H  H6  1  0.07342900  0.96312100  0.79113500  1
  H  H7  1  0.42657100  0.46312200  0.20886300  1
  H  H8  1  0.57342900  0.46312100  0.79113500  1
  H  H9  1  0.88353700  0.92276900  0.30602500  1
  H  H10  1  0.11646300  0.92276800  0.69397300  1
  H  H11  1  0.38353700  0.42276900  0.30602500  1
  H  H12  1  0.61646300  0.42276800  0.69397300  1
  H  H13  1  0.89279200  0.91077100  0.40827000  1
  H  H14  1  0.10720800  0.91077000  0.59172800  1
  H  H15  1  0.39279200  0.41077100  0.40827000  1
  H  H16  1  0.60720800  0.41077000  0.59172800  1
  H  H17  1  0.94405500  0.94031400  0.41443500  1
  H  H18  1  0.05594500  0.94031400  0.58556300  1
  H  H19  1  0.44405500  0.44031400  0.41443500  1
  H  H20  1  0.55594500  0.44031400  0.58556300  1
  H  H21  1  0.04124500  0.02876600  0.26563800  1
  H  H22  1  0.95875500  0.02876600  0.73436000  1
  H  H23  1  0.54124500  0.52876600  0.26563800  1
  H  H24  1  0.45875500  0.52876600  0.73436000  1
  H  H25  1  0.68389500  0.97365800  0.21049800  1
  H  H26  1  0.31610500  0.97365800  0.78949900  1
  H  H27  1  0.18389500  0.47365800  0.21049800  1
  H  H28  1  0.81610500  0.47365800  0.78949900  1
  H  H29  1  0.61474400  0.97438900  0.28323900  1
  H  H30  1  0.38525600  0.97438900  0.71675900  1
  H  H31  1  0.11474400  0.47438900  0.28323900  1
  H  H32  1  0.88525600  0.47438900  0.71675900  1
  H  H33  1  0.62254100  0.01366100  0.46352100  1
  H  H34  1  0.37745800  0.01366100  0.53647700  1
  H  H35  1  0.12254100  0.51366100  0.46352100  1
  H  H36  1  0.87745800  0.51366100  0.53647700  1
  H  H37  1  0.69159300  0.01266200  0.38961900  1
  H  H38  1  0.30840600  0.01266100  0.61037800  1
  H  H39  1  0.19159300  0.51266200  0.38961900  1
  H  H40  1  0.80840600  0.51266100  0.61037800  1
  H  H41  1  0.81249400  0.93573500  0.14150500  1
  H  H42  1  0.18750600  0.93573500  0.85849200  1
  H  H43  1  0.31249400  0.43573500  0.14150500  1
  H  H44  1  0.68750600  0.43573500  0.85849200  1
  H  H45  1  0.88183500  0.93618300  0.07392300  1
  H  H46  1  0.11816500  0.93618200  0.92607400  1
  H  H47  1  0.38183500  0.43618300  0.07392300  1
  H  H48  1  0.61816500  0.43618200  0.92607400  1
  H  H49  1  0.88063100  0.05205100  0.13469000  1
  H  H50  1  0.11936900  0.05205100  0.86530700  1
  H  H51  1  0.38063100  0.55205100  0.13469000  1
  H  H52  1  0.61936900  0.55205100  0.86530700  1
  H  H53  1  0.81150400  0.05082500  0.20166500  1
  H  H54  1  0.18849500  0.05082500  0.79833300  1
  H  H55  1  0.31150400  0.55082500  0.20166500  1
  H  H56  1  0.68849500  0.55082500  0.79833300  1
  H  H57  1  0.48494100  0.18232500  0.61005000  1
  H  H58  1  0.51505900  0.18232500  0.38994800  1
  H  H59  1  0.98494100  0.68232500  0.61005000  1
  H  H60  1  0.01505900  0.68232500  0.38994800  1
  H  H61  1  0.48481500  0.11318200  0.61083600  1
  H  H62  1  0.51518500  0.11318300  0.38916200  1
  H  H63  1  0.98481500  0.61318200  0.61083600  1
  H  H64  1  0.01518500  0.61318300  0.38916200  1
  H  H65  1  0.94321700  0.87566500  0.51954300  1
  H  H66  1  0.05678200  0.87566500  0.48045400  1
  H  H67  1  0.44321700  0.37566500  0.51954300  1
  H  H68  1  0.55678200  0.37566500  0.48045400  1
  H  H69  1  0.47661700  0.80693400  0.43131400  1
  H  H70  1  0.52338400  0.80693400  0.56868300  1
  H  H71  1  0.97661700  0.30693400  0.43131400  1
  H  H72  1  0.02338400  0.30693400  0.56868300  1
  H  H73  1  0.47644800  0.87606800  0.43083400  1
  H  H74  1  0.52355200  0.87606800  0.56916200  1
  H  H75  1  0.97644800  0.37606800  0.43083400  1
  H  H76  1  0.02355200  0.37606800  0.56916200  1
  H  H77  1  0.93962200  0.18315000  0.56083600  1
  H  H78  1  0.06037800  0.18314900  0.43916100  1
  H  H79  1  0.43962200  0.68315000  0.56083600  1
  H  H80  1  0.56037800  0.68314900  0.43916100  1
  H  H81  1  0.93919700  0.11401200  0.56127000  1
  H  H82  1  0.06080200  0.11401200  0.43872800  1
  H  H83  1  0.43919700  0.61401200  0.56127000  1
  H  H84  1  0.56080200  0.61401200  0.43872800  1
  H  H85  1  0.91331200  0.80586600  0.56785300  1
  H  H86  1  0.86878000  0.81576800  0.53479800  1
  H  H87  1  0.85489600  0.83082500  0.43966400  1
  H  H88  1  0.90638800  0.83342500  0.31353300  1
  H  H89  1  0.97205200  0.82012200  0.28249500  1
  H  H90  1  0.98655400  0.80438300  0.37621800  1
  H  H91  1  0.08668700  0.80586500  0.43214500  1
  H  H92  1  0.13121900  0.81576700  0.46520000  1
  H  H93  1  0.14510300  0.83082400  0.56033500  1
  H  H94  1  0.09361100  0.83342400  0.68646600  1
  H  H95  1  0.02794700  0.82012200  0.71750300  1
  H  H96  1  0.01344600  0.80438200  0.62377800  1
  H  H97  1  0.41331200  0.30586600  0.56785300  1
  H  H98  1  0.36878000  0.31576800  0.53479800  1
  H  H99  1  0.35489600  0.33082500  0.43966400  1
  H  H100  1  0.40638800  0.33342500  0.31353300  1
  H  H101  1  0.47205200  0.32012200  0.28249500  1
  H  H102  1  0.48655400  0.30438300  0.37621800  1
  H  H103  1  0.58668700  0.30586500  0.43214500  1
  H  H104  1  0.63121900  0.31576700  0.46520000  1
  H  H105  1  0.64510300  0.33082400  0.56033500  1
  H  H106  1  0.59361100  0.33342400  0.68646600  1
  H  H107  1  0.52794700  0.32012200  0.71750300  1
  H  H108  1  0.51344600  0.30438200  0.62377800  1
  C  C1  1  0.92806700  0.99450100  0.06102900  1
  C  C2  1  0.07193300  0.99450100  0.93896900  1
  C  C3  1  0.42806700  0.49450100  0.06102900  1
  C  C4  1  0.57193300  0.49450100  0.93896900  1
  C  C5  1  0.99354800  0.99495200  0.12338400  1
  C  C6  1  0.00645200  0.99495200  0.87661400  1
  C  C7  1  0.49354800  0.49495200  0.12338400  1
  C  C8  1  0.50645200  0.49495200  0.87661400  1
  C  C9  1  0.93235800  0.95818900  0.25176800  1
  C  C10  1  0.06764200  0.95818800  0.74822900  1
  C  C11  1  0.43235800  0.45818900  0.25176800  1
  C  C12  1  0.56764200  0.45818800  0.74822900  1
  C  C13  1  0.90706500  0.93572600  0.30774400  1
  C  C14  1  0.09293500  0.93572600  0.69225400  1
  C  C15  1  0.40706500  0.43572600  0.30774400  1
  C  C16  1  0.59293500  0.43572600  0.69225400  1
  C  C17  1  0.91205800  0.92924000  0.36515900  1
  C  C18  1  0.08794100  0.92924000  0.63483900  1
  C  C19  1  0.41205800  0.42924000  0.36515900  1
  C  C20  1  0.58794100  0.42924000  0.63483900  1
  C  C21  1  0.94104200  0.94694700  0.36874900  1
  C  C22  1  0.05895800  0.94694700  0.63124900  1
  C  C23  1  0.44104200  0.44694700  0.36874900  1
  C  C24  1  0.55895800  0.44694700  0.63124900  1
  C  C25  1  0.96565900  0.97138600  0.31437200  1
  C  C26  1  0.03434000  0.97138600  0.68562600  1
  C  C27  1  0.46565900  0.47138600  0.31437200  1
  C  C28  1  0.53434000  0.47138600  0.68562600  1
  C  C29  1  0.96309700  0.97463700  0.25268400  1
  C  C30  1  0.03690300  0.97463600  0.74731400  1
  C  C31  1  0.46309700  0.47463700  0.25268400  1
  C  C32  1  0.53690300  0.47463600  0.74731400  1
  C  C33  1  0.99075900  0.99500500  0.19390900  1
  C  C34  1  0.00924100  0.99500500  0.80608800  1
  C  C35  1  0.49075900  0.49500500  0.19390900  1
  C  C36  1  0.50924100  0.49500500  0.80608800  1
  C  C37  1  0.01843800  0.01425700  0.19972900  1
  C  C38  1  0.98156200  0.01425800  0.80026800  1
  C  C39  1  0.51843800  0.51425700  0.19972900  1
  C  C40  1  0.48156200  0.51425800  0.80026800  1
  C  C41  1  0.01959700  0.01286700  0.26215500  1
  C  C42  1  0.98040300  0.01286700  0.73784200  1
  C  C43  1  0.51959700  0.51286700  0.26215500  1
  C  C44  1  0.48040300  0.51286700  0.73784200  1
  C  C45  1  0.99344400  0.99172800  0.31969600  1
  C  C46  1  0.00655600  0.99172700  0.68030100  1
  C  C47  1  0.49344400  0.49172800  0.31969600  1
  C  C48  1  0.50655600  0.49172700  0.68030100  1
  C  C49  1  0.67027600  0.98241300  0.26614200  1
  C  C50  1  0.32972400  0.98241300  0.73385600  1
  C  C51  1  0.17027600  0.48241300  0.26614200  1
  C  C52  1  0.82972400  0.48241300  0.73385600  1
  C  C53  1  0.63116600  0.98290300  0.30751500  1
  C  C54  1  0.36883400  0.98290300  0.69248300  1
  C  C55  1  0.13116600  0.48290300  0.30751500  1
  C  C56  1  0.86883400  0.48290300  0.69248300  1
  C  C57  1  0.61350700  0.99410600  0.37882200  1
  C  C58  1  0.38649200  0.99410600  0.62117500  1
  C  C59  1  0.11350700  0.49410600  0.37882200  1
  C  C60  1  0.88649200  0.49410600  0.62117500  1
  C  C61  1  0.63550000  0.00479000  0.40805400  1
  C  C62  1  0.36449900  0.00479000  0.59194300  1
  C  C63  1  0.13550000  0.50479000  0.40805400  1
  C  C64  1  0.86449900  0.50479000  0.59194300  1
  C  C65  1  0.67458000  0.00425600  0.36648200  1
  C  C66  1  0.32542000  0.00425600  0.63351600  1
  C  C67  1  0.17458000  0.50425600  0.36648200  1
  C  C68  1  0.82542000  0.50425600  0.63351600  1
  C  C69  1  0.69201400  0.99306600  0.29556400  1
  C  C70  1  0.30798500  0.99306600  0.70443300  1
  C  C71  1  0.19201400  0.49306600  0.29556400  1
  C  C72  1  0.80798500  0.49306600  0.70443300  1
  C  C73  1  0.73274100  0.99273200  0.25253000  1
  C  C74  1  0.26725900  0.99273200  0.74746700  1
  C  C75  1  0.23274100  0.49273200  0.25253000  1
  C  C76  1  0.76725900  0.49273200  0.74746700  1
  C  C77  1  0.76694600  0.99275600  0.21704300  1
  C  C78  1  0.23305400  0.99275600  0.78295400  1
  C  C79  1  0.26694600  0.49275600  0.21704300  1
  C  C80  1  0.73305400  0.49275600  0.78295400  1
  C  C81  1  0.82762100  0.96128800  0.13949000  1
  C  C82  1  0.17237900  0.96128700  0.86050700  1
  C  C83  1  0.32762100  0.46128800  0.13949000  1
  C  C84  1  0.67237900  0.46128700  0.86050700  1
  C  C85  1  0.86682500  0.96168100  0.10132000  1
  C  C86  1  0.13317400  0.96168100  0.89867800  1
  C  C87  1  0.36682500  0.46168100  0.10132000  1
  C  C88  1  0.63317400  0.46168100  0.89867800  1
  C  C89  1  0.88637800  0.99418300  0.09918600  1
  C  C90  1  0.11362200  0.99418300  0.90081200  1
  C  C91  1  0.38637800  0.49418300  0.09918600  1
  C  C92  1  0.61362200  0.49418300  0.90081200  1
  C  C93  1  0.86620100  0.02627900  0.13518400  1
  C  C94  1  0.13379900  0.02627900  0.86481400  1
  C  C95  1  0.36620100  0.52627900  0.13518400  1
  C  C96  1  0.63379900  0.52627900  0.86481400  1
  C  C97  1  0.82706400  0.02575000  0.17319300  1
  C  C98  1  0.17293600  0.02575000  0.82680500  1
  C  C99  1  0.32706400  0.52575000  0.17319300  1
  C  C100  1  0.67293600  0.52575000  0.82680500  1
  C  C101  1  0.80772000  0.99327200  0.17566900  1
  C  C102  1  0.19228000  0.99327200  0.82432900  1
  C  C103  1  0.30772000  0.49327200  0.17566900  1
  C  C104  1  0.69228000  0.49327200  0.82432900  1
  C  C105  1  0.00000000  0.92170500  0.49999900  1
  C  C106  1  0.50000000  0.42170500  0.49999900  1
  C  C107  1  0.99555600  0.99261800  0.38549600  1
  C  C108  1  0.00444300  0.99261800  0.61450200  1
  C  C109  1  0.49555600  0.49261800  0.38549600  1
  C  C110  1  0.50444300  0.49261800  0.61450200  1
  C  C111  1  0.00000000  0.06738400  0.49999900  1
  C  C112  1  0.50000000  0.56738400  0.49999900  1
  C  C113  1  0.50000000  0.92270300  0.49999900  1
  C  C114  1  0.00000000  0.42270300  0.49999900  1
  C  C115  1  0.57188800  0.99449400  0.42312500  1
  C  C116  1  0.42811200  0.99449400  0.57687200  1
  C  C117  1  0.07188800  0.49449400  0.42312500  1
  C  C118  1  0.92811200  0.49449400  0.57687200  1
  C  C119  1  0.50000000  0.06651000  0.49999900  1
  C  C120  1  0.00000000  0.56651000  0.49999900  1
  C  C121  1  0.49155900  0.16697300  0.56166500  1
  C  C122  1  0.50844000  0.16697300  0.43833200  1
  C  C123  1  0.99155900  0.66697300  0.56166500  1
  C  C124  1  0.00844000  0.66697300  0.43833200  1
  C  C125  1  0.49153100  0.12788400  0.56181100  1
  C  C126  1  0.50846900  0.12788400  0.43818700  1
  C  C127  1  0.99153100  0.62788400  0.56181100  1
  C  C128  1  0.00846900  0.62788400  0.43818700  1
  C  C129  1  0.50000000  0.10809300  0.49999900  1
  C  C130  1  0.00000000  0.60809300  0.49999900  1
  C  C131  1  0.50000000  0.18651100  0.49999900  1
  C  C132  1  0.00000000  0.68651100  0.49999900  1
  C  C133  1  0.50000000  0.22717400  0.49999900  1
  C  C134  1  0.00000000  0.72717400  0.49999900  1
  C  C135  1  0.00000000  0.76132300  0.49999900  1
  C  C136  1  0.50000000  0.26132300  0.49999900  1
  C  C137  1  0.96853500  0.82150800  0.50956500  1
  C  C138  1  0.03146400  0.82150800  0.49043300  1
  C  C139  1  0.46853500  0.32150800  0.50956500  1
  C  C140  1  0.53146400  0.32150800  0.49043300  1
  C  C141  1  0.96818000  0.86061100  0.51126900  1
  C  C142  1  0.03181900  0.86061100  0.48872900  1
  C  C143  1  0.46818000  0.36061100  0.51126900  1
  C  C144  1  0.53181900  0.36061100  0.48872900  1
  C  C145  1  0.00000000  0.88026200  0.49999900  1
  C  C146  1  0.50000000  0.38026200  0.49999900  1
  C  C147  1  0.00000000  0.80198300  0.49999900  1
  C  C148  1  0.50000000  0.30198300  0.49999900  1
  C  C149  1  0.48689800  0.82228700  0.46150800  1
  C  C150  1  0.51310200  0.82228700  0.53848900  1
  C  C151  1  0.98689800  0.32228700  0.46150800  1
  C  C152  1  0.01310200  0.32228700  0.53848900  1
  C  C153  1  0.48687000  0.86136600  0.46141800  1
  C  C154  1  0.51313100  0.86136600  0.53857900  1
  C  C155  1  0.98687000  0.36136600  0.46141800  1
  C  C156  1  0.01313100  0.36136600  0.53857900  1
  C  C157  1  0.50000000  0.88114200  0.49999900  1
  C  C158  1  0.00000000  0.38114200  0.49999900  1
  C  C159  1  0.50000000  0.80276200  0.49999900  1
  C  C160  1  0.00000000  0.30276200  0.49999900  1
  C  C161  1  0.50000000  0.76211200  0.49999900  1
  C  C162  1  0.00000000  0.26211200  0.49999900  1
  C  C163  1  0.00000000  0.22797100  0.49999900  1
  C  C164  1  0.50000000  0.72797100  0.49999900  1
  C  C165  1  0.96616600  0.16779700  0.53409000  1
  C  C166  1  0.03383400  0.16779700  0.46590700  1
  C  C167  1  0.46616600  0.66779700  0.53409000  1
  C  C168  1  0.53383400  0.66779700  0.46590700  1
  C  C169  1  0.96608900  0.12871800  0.53416900  1
  C  C170  1  0.03391100  0.12871800  0.46582800  1
  C  C171  1  0.46608900  0.62871800  0.53416900  1
  C  C172  1  0.53391100  0.62871800  0.46582800  1
  C  C173  1  0.00000000  0.10894400  0.49999900  1
  C  C174  1  0.50000000  0.60894400  0.49999900  1
  C  C175  1  0.00000000  0.18732200  0.49999900  1
  C  C176  1  0.50000000  0.68732200  0.49999900  1
  C  C177  1  0.92869400  0.80971400  0.46256000  1
  C  C178  1  0.89174000  0.81665400  0.47957000  1
  C  C179  1  0.88379500  0.82514500  0.42607800  1
  C  C180  1  0.91264600  0.82660500  0.35537500  1
  C  C181  1  0.94945800  0.81925100  0.33803000  1
  C  C182  1  0.95753400  0.81064300  0.39130700  1
  C  C183  1  0.07130500  0.80971400  0.53743900  1
  C  C184  1  0.10826000  0.81665400  0.52042800  1
  C  C185  1  0.11620400  0.82514400  0.57392000  1
  C  C186  1  0.08735300  0.82660400  0.64462300  1
  C  C187  1  0.05054100  0.81925100  0.66196800  1
  C  C188  1  0.04246500  0.81064300  0.60869100  1
  C  C189  1  0.42869400  0.30971400  0.46256000  1
  C  C190  1  0.39174000  0.31665400  0.47957000  1
  C  C191  1  0.38379500  0.32514500  0.42607800  1
  C  C192  1  0.41264600  0.32660500  0.35537500  1
  C  C193  1  0.44945800  0.31925100  0.33803000  1
  C  C194  1  0.45753400  0.31064300  0.39130700  1
  C  C195  1  0.57130500  0.30971400  0.53743900  1
  C  C196  1  0.60826000  0.31665400  0.52042800  1
  C  C197  1  0.61620400  0.32514400  0.57392000  1
  C  C198  1  0.58735300  0.32660400  0.64462300  1
  C  C199  1  0.55054100  0.31925100  0.66196800  1
  C  C200  1  0.54246500  0.31064300  0.60869100  1
  N  N1  1  0.93669500  0.80147900  0.51779700  1
  N  N2  1  0.06330500  0.80147900  0.48220100  1
  N  N3  1  0.43669500  0.30147900  0.51779700  1
  N  N4  1  0.56330500  0.30147900  0.48220100  1
  O  O1  1  0.94522500  0.02585200  0.06292200  1
  O  O2  1  0.05477500  0.02585200  0.93707500  1
  O  O3  1  0.44522500  0.52585200  0.06292200  1
  O  O4  1  0.55477500  0.52585200  0.93707500  1
  O  O5  1  0.94665100  0.96328500  0.02801400  1
  O  O6  1  0.05334900  0.96328500  0.97198300  1
  O  O7  1  0.44665100  0.46328500  0.02801400  1
  O  O8  1  0.55334900  0.46328500  0.97198300  1
  O  O9  1  0.00635800  0.02584600  0.08348900  1
  O  O10  1  0.99364200  0.02584600  0.91650900  1
  O  O11  1  0.50635800  0.52584600  0.08348900  1
  O  O12  1  0.49364200  0.52584600  0.91650900  1
  O  O13  1  0.98586300  0.96327500  0.10063300  1
  O  O14  1  0.01413700  0.96327500  0.89936500  1
  O  O15  1  0.48586300  0.46327500  0.10063300  1
  O  O16  1  0.51413700  0.46327500  0.89936500  1
  O  O17  1  0.03274100  0.93941700  0.46934400  1
  O  O18  1  0.96725800  0.93941700  0.53065300  1
  O  O19  1  0.53274100  0.43941700  0.46934400  1
  O  O20  1  0.46725800  0.43941700  0.53065300  1
  O  O21  1  0.02919000  0.99505200  0.37903100  1
  O  O22  1  0.97081000  0.99505200  0.62096700  1
  O  O23  1  0.52919000  0.49505200  0.37903100  1
  O  O24  1  0.47081000  0.49505200  0.62096700  1
  O  O25  1  0.96405500  0.99645500  0.44739800  1
  O  O26  1  0.03594500  0.99645400  0.55260000  1
  O  O27  1  0.46405500  0.49645500  0.44739800  1
  O  O28  1  0.53594500  0.49645400  0.55260000  1
  O  O29  1  0.03272600  0.04962100  0.46708500  1
  O  O30  1  0.96727400  0.04962100  0.53291300  1
  O  O31  1  0.53272600  0.54962100  0.46708500  1
  O  O32  1  0.46727400  0.54962100  0.53291300  1
  O  O33  1  0.51262100  0.94052800  0.53775200  1
  O  O34  1  0.48737900  0.94052800  0.46224500  1
  O  O35  1  0.01262100  0.44052800  0.53775200  1
  O  O36  1  0.98737900  0.44052800  0.46224500  1
  O  O37  1  0.55618500  0.00505900  0.49113300  1
  O  O38  1  0.44381500  0.00505900  0.50886400  1
  O  O39  1  0.05618500  0.50505900  0.49113300  1
  O  O40  1  0.94381500  0.50505900  0.50886400  1
  O  O41  1  0.55187300  0.98412100  0.39323800  1
  O  O42  1  0.44812600  0.98412100  0.60676000  1
  O  O43  1  0.05187300  0.48412100  0.39323800  1
  O  O44  1  0.94812600  0.48412100  0.60676000  1
  O  O45  1  0.49168900  0.04867500  0.56015400  1
  O  O46  1  0.50831000  0.04867500  0.43984400  1
  O  O47  1  0.99168900  0.54867500  0.56015400  1
  O  O48  1  0.00831000  0.54867500  0.43984400  1
