# generated using pymatgen
data_Fe2H18C41O16
_symmetry_space_group_name_H-M   'P 1'
_cell_length_a   15.90851300
_cell_length_b   16.07594700
_cell_length_c   13.74838800
_cell_angle_alpha   88.50829400
_cell_angle_beta   97.53392000
_cell_angle_gamma   104.40858500
_symmetry_Int_Tables_number   1
_chemical_formula_structural   Fe2H18C41O16
_chemical_formula_sum   'Fe2 H18 C41 O16'
_cell_volume   3376.00075445
_cell_formula_units_Z   1
loop_
 _symmetry_equiv_pos_site_id
 _symmetry_equiv_pos_as_xyz
  1  'x, y, z'
loop_
 _atom_site_type_symbol
 _atom_site_label
 _atom_site_symmetry_multiplicity
 _atom_site_fract_x
 _atom_site_fract_y
 _atom_site_fract_z
 _atom_site_occupancy
  Fe  Fe1  1  0.49815500  0.00478800  0.78411500  1
  Fe  Fe2  1  0.49700400  0.99286500  0.21433800  1
  H  H1  1  0.21977000  0.97051800  0.77659300  1
  H  H2  1  0.07437800  0.96987100  0.81664500  1
  H  H3  1  0.17612500  0.01401700  0.11687300  1
  H  H4  1  0.81988000  0.98719100  0.88202100  1
  H  H5  1  0.77561700  0.03181200  0.22178500  1
  H  H6  1  0.92144400  0.03388200  0.18194100  1
  H  H7  1  0.51197500  0.91837700  0.49860800  1
  H  H8  1  0.48894000  0.68141900  0.65233200  1
  H  H9  1  0.40403000  0.55619300  0.37863800  1
  H  H10  1  0.40219300  0.40420900  0.37559700  1
  H  H11  1  0.59432700  0.44106100  0.62885200  1
  H  H12  1  0.59872000  0.59382400  0.62934900  1
  H  H13  1  0.50720500  0.31634700  0.34565700  1
  H  H14  1  0.47542400  0.07783600  0.49818900  1
  H  H15  1  0.48485000  0.30379900  0.65325900  1
  H  H16  1  0.56473700  0.63179300  0.33779500  1
  H  H17  1  0.49098000  0.68593100  0.26558300  1
  H  H18  1  0.60466300  0.73908500  0.30207800  1
  C  C1  1  0.21079800  0.97820900  0.85212000  1
  C  C2  1  0.12912200  0.97879600  0.87421200  1
  C  C3  1  0.11787400  0.99395400  0.96897000  1
  C  C4  1  0.18749600  0.00476200  0.04261400  1
  C  C5  1  0.27013700  0.00372200  0.02162500  1
  C  C6  1  0.28196000  0.99312500  0.92430500  1
  C  C7  1  0.03350600  0.99913500  0.99064800  1
  C  C8  1  0.96259100  0.00381700  0.00826800  1
  C  C9  1  0.80837800  0.99681900  0.95613400  1
  C  C10  1  0.72544100  0.99685200  0.97699600  1
  C  C11  1  0.71350200  0.00779600  0.07423600  1
  C  C12  1  0.78472900  0.02392300  0.14634500  1
  C  C13  1  0.86665300  0.02417200  0.12437000  1
  C  C14  1  0.87807700  0.00868900  0.02976900  1
  C  C15  1  0.46299900  0.13094700  0.66730300  1
  C  C16  1  0.36858000  0.00660000  0.89263500  1
  C  C17  1  0.65432200  0.99049200  0.89469400  1
  C  C18  1  0.49524100  0.85235300  0.67508300  1
  C  C19  1  0.49772800  0.14486300  0.32269200  1
  C  C20  1  0.34117500  0.00905800  0.10376400  1
  C  C21  1  0.62684700  0.99314300  0.10608100  1
  C  C22  1  0.53640300  0.86983600  0.33343000  1
  C  C23  1  0.52070800  0.81312900  0.41707500  1
  C  C24  1  0.52233400  0.72761200  0.41586400  1
  C  C25  1  0.50822300  0.67885900  0.50085400  1
  C  C26  1  0.49874500  0.71857600  0.58629700  1
  C  C27  1  0.50127700  0.80528000  0.58695700  1
  C  C28  1  0.51089800  0.85094600  0.50146500  1
  C  C29  1  0.44688900  0.53148500  0.43308100  1
  C  C30  1  0.44616100  0.44556500  0.43108300  1
  C  C31  1  0.49932100  0.41232400  0.50088500  1
  C  C32  1  0.55229600  0.46588800  0.57354400  1
  C  C33  1  0.55465300  0.55235500  0.57402300  1
  C  C34  1  0.50326400  0.58607000  0.50256600  1
  C  C35  1  0.49960000  0.27967500  0.41233200  1
  C  C36  1  0.49348200  0.19223900  0.41119100  1
  C  C37  1  0.48226600  0.14636400  0.49657300  1
  C  C38  1  0.48034400  0.18613800  0.58283400  1
  C  C39  1  0.48917100  0.27348800  0.58546100  1
  C  C40  1  0.49704900  0.32043700  0.49962400  1
  C  C41  1  0.54632100  0.69350700  0.32551100  1
  O  O1  1  0.52907000  0.12265900  0.73152100  1
  O  O2  1  0.42798000  0.07815300  0.91688600  1
  O  O3  1  0.39205600  0.06774000  0.65748500  1
  O  O4  1  0.38270400  0.95458500  0.82801400  1
  O  O5  1  0.57852300  0.00329600  0.90910700  1
  O  O6  1  0.66958600  0.98047500  0.80479700  1
  O  O7  1  0.50608400  0.93596800  0.66747500  1
  O  O8  1  0.48132400  0.81331400  0.75861800  1
  O  O9  1  0.48778300  0.06144100  0.33069500  1
  O  O10  1  0.51235400  0.18390600  0.23931600  1
  O  O11  1  0.41505400  0.99142800  0.08988900  1
  O  O12  1  0.32747700  0.02337500  0.19314600  1
  O  O13  1  0.60518800  0.93537100  0.34410100  1
  O  O14  1  0.61124700  0.04579300  0.16895700  1
  O  O15  1  0.46986000  0.87523600  0.26825800  1
  O  O16  1  0.56917900  0.92000500  0.08421700  1
