# generated using pymatgen
data_V2H3C10BrO10
_symmetry_space_group_name_H-M   'P 1'
_cell_length_a   14.95038900
_cell_length_b   6.31458100
_cell_length_c   11.86744500
_cell_angle_alpha   90.00000000
_cell_angle_beta   100.81663700
_cell_angle_gamma   90.00000000
_symmetry_Int_Tables_number   1
_chemical_formula_structural   V2H3C10BrO10
_chemical_formula_sum   'V4 H6 C20 Br2 O20'
_cell_volume   1100.44588641
_cell_formula_units_Z   2
loop_
 _symmetry_equiv_pos_site_id
 _symmetry_equiv_pos_as_xyz
  1  'x, y, z'
loop_
 _atom_site_type_symbol
 _atom_site_label
 _atom_site_symmetry_multiplicity
 _atom_site_fract_x
 _atom_site_fract_y
 _atom_site_fract_z
 _atom_site_occupancy
  V  V1  1  0.49574800  0.04343800  0.48161700  1
  V  V2  1  0.99574800  0.95656300  0.98161700  1
  V  V3  1  0.49889200  0.54374700  0.50946900  1
  V  V4  1  0.99889200  0.45625500  0.00946900  1
  H  H1  1  0.29097400  0.93224600  0.65448000  1
  H  H2  1  0.79097300  0.06775400  0.15448000  1
  H  H3  1  0.31201700  0.39412700  0.73100700  1
  H  H4  1  0.81201700  0.60587300  0.23100700  1
  H  H5  1  0.18218000  0.38938900  0.76727500  1
  H  H6  1  0.68218000  0.61061100  0.26727500  1
  C  C1  1  0.61069000  0.78122600  0.38786300  1
  C  C2  1  0.11069000  0.21877400  0.88786300  1
  C  C3  1  0.35972300  0.75078900  0.37183500  1
  C  C4  1  0.85972300  0.24921200  0.87183500  1
  C  C5  1  0.38387400  0.25055000  0.60235900  1
  C  C6  1  0.88387400  0.74945000  0.10235900  1
  C  C7  1  0.63514000  0.27960900  0.61911000  1
  C  C8  1  0.13514000  0.72039100  0.11911000  1
  C  C9  1  0.71416900  0.25877400  0.70767000  1
  C  C10  1  0.21416900  0.74122600  0.20767000  1
  C  C11  1  0.78060900  0.24967200  0.78254400  1
  C  C12  1  0.28060900  0.75032800  0.28254400  1
  C  C13  1  0.27662100  0.07581000  0.69791900  1
  C  C14  1  0.77662100  0.92419000  0.19791900  1
  C  C15  1  0.31979800  0.25362500  0.68125600  1
  C  C16  1  0.81979800  0.74637500  0.18125600  1
  C  C17  1  0.21581100  0.06667100  0.78102900  1
  C  C18  1  0.71581000  0.93332900  0.28102900  1
  C  C19  1  0.17390500  0.23937300  0.80851800  1
  C  C20  1  0.67390500  0.76062700  0.30851800  1
  Br  Br1  1  0.18919700  0.79940000  0.84232800  1
  Br  Br2  1  0.68919700  0.20060000  0.34232800  1
  O  O1  1  0.36991600  0.58309900  0.43928800  1
  O  O2  1  0.86991600  0.41690100  0.93928800  1
  O  O3  1  0.61495100  0.95495300  0.44746700  1
  O  O4  1  0.11495100  0.04504700  0.94746700  1
  O  O5  1  0.56330800  0.16660800  0.62537800  1
  O  O6  1  0.06330800  0.83339200  0.12537800  1
  O  O7  1  0.43077300  0.86442900  0.35547500  1
  O  O8  1  0.93077300  0.13557100  0.85547500  1
  O  O9  1  0.37953600  0.08348700  0.53448000  1
  O  O10  1  0.87953600  0.91651300  0.03448000  1
  O  O11  1  0.53777800  0.66248600  0.37305100  1
  O  O12  1  0.03777800  0.33751400  0.87305100  1
  O  O13  1  0.50549800  0.77040000  0.58410800  1
  O  O14  1  0.00549800  0.22960000  0.08410800  1
  O  O15  1  0.45855200  0.36873000  0.62832200  1
  O  O16  1  0.95855200  0.63127000  0.12832200  1
  O  O17  1  0.62667100  0.45526800  0.56117900  1
  O  O18  1  0.12667100  0.54473300  0.06117900  1
  O  O19  1  0.48586100  0.26826000  0.40677600  1
  O  O20  1  0.98586100  0.73174000  0.90677600  1
