# generated using pymatgen
data_CuH16C26(NO3)2
_symmetry_space_group_name_H-M   'P 1'
_cell_length_a   23.38157900
_cell_length_b   12.97013900
_cell_length_c   11.50378100
_cell_angle_alpha   99.72938400
_cell_angle_beta   94.22865400
_cell_angle_gamma   90.00541600
_symmetry_Int_Tables_number   1
_chemical_formula_structural   CuH16C26(NO3)2
_chemical_formula_sum   'Cu2 H32 C52 N4 O12'
_cell_volume   3428.84546265
_cell_formula_units_Z   2
loop_
 _symmetry_equiv_pos_site_id
 _symmetry_equiv_pos_as_xyz
  1  'x, y, z'
loop_
 _atom_site_type_symbol
 _atom_site_label
 _atom_site_symmetry_multiplicity
 _atom_site_fract_x
 _atom_site_fract_y
 _atom_site_fract_z
 _atom_site_occupancy
  Cu  Cu1  1  0.50548900  0.50730000  0.61763200  1
  Cu  Cu2  1  0.49448300  0.49273800  0.38257700  1
  H  H1  1  0.95752500  0.37128600  0.72885100  1
  H  H2  1  0.04246300  0.62867300  0.27134400  1
  H  H3  1  0.06073200  0.37132700  0.72735100  1
  H  H4  1  0.93925300  0.62858400  0.27279800  1
  H  H5  1  0.21636600  0.59952800  0.67047200  1
  H  H6  1  0.78363000  0.40052400  0.32991900  1
  H  H7  1  0.31575000  0.41809300  0.33509900  1
  H  H8  1  0.68422600  0.58253200  0.66495700  1
  H  H9  1  0.21183200  0.41255700  0.32950300  1
  H  H10  1  0.78817800  0.58800300  0.67058900  1
  H  H11  1  0.49024100  0.81437500  0.34803300  1
  H  H12  1  0.50947500  0.18566100  0.65222400  1
  H  H13  1  0.51908400  0.84333700  0.72406900  1
  H  H14  1  0.48067100  0.15670200  0.27618500  1
  H  H15  1  0.48146800  0.96705900  0.25897100  1
  H  H16  1  0.51827500  0.03295800  0.74129000  1
  H  H17  1  0.44660800  0.40828100  0.78931900  1
  H  H18  1  0.55382400  0.59128400  0.21083100  1
  H  H19  1  0.57979500  0.63152800  0.81965600  1
  H  H20  1  0.42045200  0.36837100  0.18049000  1
  H  H21  1  0.41362500  0.35397700  0.96461000  1
  H  H22  1  0.58676200  0.64570800  0.03552900  1
  H  H23  1  0.38469700  0.71544300  0.61465900  1
  H  H24  1  0.31534300  0.77359500  0.63693200  1
  H  H25  1  0.36938600  0.78310000  0.75900700  1
  H  H26  1  0.29664900  0.65495700  0.77672300  1
  H  H27  1  0.36206500  0.58964800  0.75360600  1
  H  H28  1  0.68436700  0.22655600  0.36252900  1
  H  H29  1  0.61507100  0.28496100  0.38483200  1
  H  H30  1  0.63042300  0.21769500  0.24035100  1
  H  H31  1  0.63801300  0.41121100  0.24659900  1
  H  H32  1  0.70334100  0.34561800  0.22334800  1
  C  C1  1  0.49567700  0.29934700  0.47707700  1
  C  C2  1  0.50418500  0.70068300  0.52313900  1
  C  C3  1  0.39010800  0.50860700  0.50561400  1
  C  C4  1  0.60988800  0.49157400  0.49461300  1
  C  C5  1  0.87851300  0.54480600  0.42125400  1
  C  C6  1  0.12148000  0.45524900  0.57900200  1
  C  C7  1  0.88489900  0.45451200  0.58188800  1
  C  C8  1  0.11508900  0.54563900  0.41844900  1
  C  C9  1  0.94410500  0.45434600  0.58254300  1
  C  C10  1  0.05588300  0.54571400  0.41773000  1
  C  C11  1  0.97049700  0.50007500  0.50061800  1
  C  C12  1  0.02949200  0.49995900  0.49963500  1
  C  C13  1  0.93760100  0.54580000  0.41956100  1
  C  C14  1  0.06238900  0.45422200  0.58067600  1
  C  C15  1  0.97706700  0.40797100  0.66371800  1
  C  C16  1  0.02292000  0.59202600  0.33650100  1
  C  C17  1  0.03598100  0.40793400  0.66280500  1
  C  C18  1  0.96400600  0.59203400  0.33738800  1
  C  C19  1  0.23923200  0.55880800  0.59847100  1
  C  C20  1  0.76076700  0.44131400  0.40187900  1
  C  C21  1  0.29852100  0.56440800  0.60323600  1
  C  C22  1  0.70147900  0.43582600  0.39704300  1
  C  C23  1  0.32708400  0.51196900  0.50786700  1
  C  C24  1  0.67291200  0.48832700  0.49236700  1
  C  C25  1  0.29491400  0.45933500  0.40976200  1
  C  C26  1  0.70507500  0.54114300  0.59039100  1
  C  C27  1  0.23593700  0.45555200  0.40628000  1
  C  C28  1  0.76405800  0.54488000  0.59390400  1
  C  C29  1  0.20794600  0.50451300  0.50115400  1
  C  C30  1  0.79205200  0.49567600  0.49915500  1
  C  C31  1  0.50484900  0.81513300  0.53469400  1
  C  C32  1  0.49494900  0.18489400  0.46554600  1
  C  C33  1  0.48758700  0.01503900  0.34552000  1
  C  C34  1  0.51215500  0.98498800  0.65473700  1
  C  C35  1  0.48710600  0.12251100  0.35547800  1
  C  C36  1  0.51266300  0.87751900  0.64477200  1
  C  C37  1  0.50316000  0.13846700  0.56533000  1
  C  C38  1  0.49659700  0.86156600  0.43492400  1
  C  C39  1  0.50374200  0.03089300  0.55505300  1
  C  C40  1  0.49600500  0.96913700  0.44520500  1
  C  C41  1  0.44465900  0.40711600  0.01786600  1
  C  C42  1  0.55576800  0.59248100  0.98227200  1
  C  C43  1  0.44850400  0.41535900  0.13939700  1
  C  C44  1  0.55184200  0.58437900  0.86075100  1
  C  C45  1  0.52275900  0.53933800  0.15603100  1
  C  C46  1  0.47767900  0.46022500  0.84411700  1
  C  C47  1  0.51987000  0.53287800  0.03482300  1
  C  C48  1  0.48058100  0.46667100  0.96531500  1
  C  C49  1  0.32804500  0.63192400  0.70975600  1
  C  C50  1  0.35098700  0.73216300  0.67760100  1
  C  C51  1  0.67193800  0.36862000  0.29031500  1
  C  C52  1  0.64882500  0.26831300  0.32197400  1
  N  N1  1  0.85314200  0.49930200  0.50165800  1
  N  N2  1  0.14685200  0.50083400  0.49865600  1
  N  N3  1  0.51372600  0.51749500  0.79355800  1
  N  N4  1  0.48662100  0.48224000  0.20659600  1
  O  O1  1  0.50340500  0.35465800  0.58322200  1
  O  O2  1  0.49659200  0.64538200  0.41689300  1
  O  O3  1  0.48984200  0.34216300  0.38152000  1
  O  O4  1  0.51007400  0.65788900  0.61876100  1
  O  O5  1  0.42192000  0.51507000  0.60518600  1
  O  O6  1  0.57804700  0.48491800  0.39521800  1
  O  O7  1  0.41220600  0.49546800  0.40252800  1
  O  O8  1  0.58774900  0.50466700  0.59751300  1
  O  O9  1  0.84610400  0.59061400  0.34353900  1
  O  O10  1  0.15388900  0.40940400  0.65668500  1
  O  O11  1  0.85871500  0.40747000  0.65938500  1
  O  O12  1  0.14126800  0.59279900  0.34104500  1
