# generated using pymatgen
data_Zn2H18C36N2O9
_symmetry_space_group_name_H-M   'P 1'
_cell_length_a   8.51782500
_cell_length_b   13.02279000
_cell_length_c   13.41832400
_cell_angle_alpha   90.61038200
_cell_angle_beta   93.27478200
_cell_angle_gamma   86.47102500
_symmetry_Int_Tables_number   1
_chemical_formula_structural   Zn2H18C36N2O9
_chemical_formula_sum   'Zn2 H18 C36 N2 O9'
_cell_volume   1483.15259484
_cell_formula_units_Z   1
loop_
 _symmetry_equiv_pos_site_id
 _symmetry_equiv_pos_as_xyz
  1  'x, y, z'
loop_
 _atom_site_type_symbol
 _atom_site_label
 _atom_site_symmetry_multiplicity
 _atom_site_fract_x
 _atom_site_fract_y
 _atom_site_fract_z
 _atom_site_occupancy
  Zn  Zn1  1  0.49938500  0.50781200  0.89174700  1
  Zn  Zn2  1  0.51486300  0.49385500  0.11408400  1
  H  H1  1  0.02394300  0.57196100  0.04072900  1
  H  H2  1  0.71309800  0.83155800  0.99841300  1
  H  H3  1  0.69061100  0.98443800  0.03092400  1
  H  H4  1  0.65883000  0.16464700  0.01789200  1
  H  H5  1  0.99060100  0.42960100  0.96510200  1
  H  H6  1  0.30123500  0.16995200  0.00771700  1
  H  H7  1  0.32365400  0.01715500  0.97498500  1
  H  H8  1  0.35546600  0.83698000  0.98803200  1
  H  H9  1  0.53740000  0.32683600  0.25461400  1
  H  H10  1  0.46306200  0.75696100  0.57810600  1
  H  H11  1  0.47852400  0.74549900  0.40059900  1
  H  H12  1  0.52936200  0.32499200  0.43254200  1
  H  H13  1  0.52865900  0.33408800  0.58549900  1
  H  H14  1  0.50227600  0.64946200  0.25297900  1
  H  H15  1  0.52141100  0.35166600  0.76024300  1
  H  H16  1  0.20961300  0.71015700  0.66070700  1
  H  H17  1  0.29015700  0.83203700  0.69578400  1
  H  H18  1  0.19585000  0.75932800  0.78669600  1
  C  C1  1  0.13365500  0.70898100  0.01379400  1
  C  C2  1  0.00631000  0.65322300  0.02849900  1
  C  C3  1  0.85715900  0.69832100  0.01999400  1
  C  C4  1  0.83364200  0.80261000  0.00848200  1
  C  C5  1  0.96173200  0.86389500  0.00788000  1
  C  C6  1  0.11201800  0.81538100  0.00504400  1
  C  C7  1  0.94204000  0.97176400  0.00722600  1
  C  C8  1  0.07224200  0.02982900  0.99878100  1
  C  C9  1  0.21920100  0.97867600  0.98854200  1
  C  C10  1  0.23880800  0.87333600  0.99368900  1
  C  C11  1  0.79507800  0.02293100  0.01742800  1
  C  C12  1  0.77548900  0.12828300  0.01227300  1
  C  C13  1  0.90229500  0.18623700  0.00092600  1
  C  C14  1  0.05257200  0.13769200  0.99812500  1
  C  C15  1  0.88070300  0.29265000  0.99214200  1
  C  C16  1  0.00815100  0.34834500  0.97738600  1
  C  C17  1  0.15731400  0.30318700  0.98591700  1
  C  C18  1  0.18071500  0.19892300  0.99755100  1
  C  C19  1  0.28997700  0.36825800  0.99128600  1
  C  C20  1  0.28503800  0.64898500  0.00857000  1
  C  C21  1  0.72465400  0.63315000  0.01458800  1
  C  C22  1  0.72928500  0.35269300  0.99740900  1
  C  C23  1  0.50858100  0.57834200  0.29412400  1
  C  C24  1  0.52879700  0.39908000  0.29494200  1
  C  C25  1  0.52370400  0.39909200  0.39771300  1
  C  C26  1  0.50805500  0.49154600  0.45050400  1
  C  C27  1  0.50005700  0.58138800  0.39633600  1
  C  C28  1  0.51296600  0.41105100  0.61425000  1
  C  C29  1  0.49993400  0.49746300  0.55457900  1
  C  C30  1  0.47822700  0.59262800  0.60120600  1
  C  C31  1  0.47137900  0.68130400  0.54476700  1
  C  C32  1  0.48297800  0.67537600  0.44332900  1
  C  C33  1  0.51060600  0.42083800  0.71619100  1
  C  C34  1  0.46903700  0.59923100  0.70452800  1
  C  C35  1  0.42435200  0.69840500  0.75139000  1
  C  C36  1  0.27039600  0.75346500  0.72152600  1
  N  N1  1  0.52081800  0.48812400  0.24475800  1
  N  N2  1  0.49334600  0.51358800  0.76086600  1
  O  O1  1  0.34561500  0.39580100  0.08002600  1
  O  O2  1  0.33810200  0.40328600  0.90787000  1
  O  O3  1  0.32904500  0.61696400  0.92039100  1
  O  O4  1  0.34711400  0.60869500  0.09210300  1
  O  O5  1  0.66953800  0.60518100  0.92593400  1
  O  O6  1  0.67630700  0.59825400  0.09792100  1
  O  O7  1  0.68545100  0.38480000  0.08566000  1
  O  O8  1  0.66701900  0.39287100  0.91380100  1
  O  O9  1  0.51044800  0.73547600  0.81589100  1
