# generated using pymatgen
data_Cu3H36C68(NO8)2
_symmetry_space_group_name_H-M   'P 1'
_cell_length_a   21.53362900
_cell_length_b   21.53363000
_cell_length_c   54.92505300
_cell_angle_alpha   90.00000000
_cell_angle_beta   90.00000000
_cell_angle_gamma   90.00000000
_symmetry_Int_Tables_number   1
_chemical_formula_structural   Cu3H36C68(NO8)2
_chemical_formula_sum   'Cu12 H144 C272 N8 O64'
_cell_volume   25468.59325537
_cell_formula_units_Z   4
loop_
 _symmetry_equiv_pos_site_id
 _symmetry_equiv_pos_as_xyz
  1  'x, y, z'
loop_
 _atom_site_type_symbol
 _atom_site_label
 _atom_site_symmetry_multiplicity
 _atom_site_fract_x
 _atom_site_fract_y
 _atom_site_fract_z
 _atom_site_occupancy
  Cu  Cu1  1  0.99999900  0.00000100  0.47717800  1
  Cu  Cu2  1  0.50000000  0.49999900  0.97717800  1
  Cu  Cu3  1  0.99999900  0.00000100  0.52469800  1
  Cu  Cu4  1  0.50000000  0.50000000  0.02469800  1
  Cu  Cu5  1  0.93985100  0.49389900  0.49618400  1
  Cu  Cu6  1  0.50610100  0.93985000  0.49618400  1
  Cu  Cu7  1  0.06015000  0.50610300  0.49618400  1
  Cu  Cu8  1  0.49389800  0.06014900  0.49618400  1
  Cu  Cu9  1  0.43985200  0.99389800  0.99618400  1
  Cu  Cu10  1  0.00610200  0.43985100  0.99618400  1
  Cu  Cu11  1  0.56015100  0.00610100  0.99618400  1
  Cu  Cu12  1  0.99389900  0.56015000  0.99618400  1
  H  H1  1  0.38728300  0.89482500  0.30655500  1
  H  H2  1  0.10517500  0.38728500  0.30655400  1
  H  H3  1  0.61271800  0.10517500  0.30655500  1
  H  H4  1  0.89482500  0.61271900  0.30655400  1
  H  H5  1  0.88728300  0.39482500  0.80655400  1
  H  H6  1  0.60517500  0.88728200  0.80655500  1
  H  H7  1  0.11271700  0.60517500  0.80655400  1
  H  H8  1  0.39482500  0.11271600  0.80655500  1
  H  H9  1  0.91821500  0.19338500  0.49098900  1
  H  H10  1  0.80661500  0.91821100  0.49099700  1
  H  H11  1  0.08178500  0.80661800  0.49099000  1
  H  H12  1  0.19338400  0.08178800  0.49099400  1
  H  H13  1  0.41821500  0.69338300  0.99099100  1
  H  H14  1  0.30661600  0.41821300  0.99099200  1
  H  H15  1  0.58178800  0.30661600  0.99099300  1
  H  H16  1  0.69338300  0.58178700  0.99099300  1
  H  H17  1  0.12019600  0.13496500  0.51467600  1
  H  H18  1  0.86503400  0.12020300  0.51467000  1
  H  H19  1  0.87980400  0.86503500  0.51467800  1
  H  H20  1  0.13496300  0.87980100  0.51467300  1
  H  H21  1  0.62019700  0.63496400  0.01467600  1
  H  H22  1  0.36503600  0.62019900  0.01467300  1
  H  H23  1  0.37980100  0.36503400  0.01467400  1
  H  H24  1  0.63496600  0.37980200  0.01467500  1
  H  H25  1  0.21947500  0.18595000  0.51599400  1
  H  H26  1  0.81404800  0.21948100  0.51598300  1
  H  H27  1  0.78052600  0.81405000  0.51599600  1
  H  H28  1  0.18594800  0.78052300  0.51598800  1
  H  H29  1  0.71947600  0.68594800  0.01599400  1
  H  H30  1  0.31405100  0.71947800  0.01598900  1
  H  H31  1  0.28052300  0.31404900  0.01598900  1
  H  H32  1  0.68595100  0.28052300  0.01599000  1
  H  H33  1  0.13872600  0.35380200  0.49237700  1
  H  H34  1  0.64619600  0.13872100  0.49237100  1
  H  H35  1  0.86127500  0.64619900  0.49237800  1
  H  H36  1  0.35380100  0.86127700  0.49237500  1
  H  H37  1  0.63872600  0.85380100  0.99237700  1
  H  H38  1  0.14619800  0.63872500  0.99237500  1
  H  H39  1  0.36127700  0.14619700  0.99237400  1
  H  H40  1  0.85380300  0.36127600  0.99237500  1
  H  H41  1  0.91909200  0.30446600  0.48909200  1
  H  H42  1  0.69553400  0.91908600  0.48910000  1
  H  H43  1  0.08090900  0.69553700  0.48909300  1
  H  H44  1  0.30446500  0.08091200  0.48909800  1
  H  H45  1  0.41909100  0.80446500  0.98909400  1
  H  H46  1  0.19553500  0.41908900  0.98909600  1
  H  H47  1  0.58091200  0.19553500  0.98909700  1
  H  H48  1  0.80446400  0.58091200  0.98909700  1
  H  H49  1  0.51340600  0.90176000  0.37602800  1
  H  H50  1  0.09824000  0.51340900  0.37602800  1
  H  H51  1  0.48659400  0.09824000  0.37602800  1
  H  H52  1  0.90176000  0.48659500  0.37602800  1
  H  H53  1  0.01340600  0.40176000  0.87602800  1
  H  H54  1  0.59824100  0.01340500  0.87602800  1
  H  H55  1  0.98659300  0.59824000  0.87602800  1
  H  H56  1  0.40176100  0.98659300  0.87602800  1
  H  H57  1  0.51162500  0.90140100  0.42030500  1
  H  H58  1  0.09859900  0.51162800  0.42030400  1
  H  H59  1  0.48837300  0.09859800  0.42030500  1
  H  H60  1  0.90140200  0.48837500  0.42030400  1
  H  H61  1  0.01162600  0.40140200  0.92030400  1
  H  H62  1  0.59860000  0.01162600  0.92030400  1
  H  H63  1  0.98837300  0.59859900  0.92030400  1
  H  H64  1  0.40140200  0.98837300  0.92030500  1
  H  H65  1  0.38729200  0.89221400  0.26375000  1
  H  H66  1  0.10778600  0.38729300  0.26375000  1
  H  H67  1  0.61271000  0.10778500  0.26375100  1
  H  H68  1  0.89221500  0.61271000  0.26375000  1
  H  H69  1  0.88729100  0.39221400  0.76375000  1
  H  H70  1  0.60778600  0.88729000  0.76375000  1
  H  H71  1  0.11270900  0.60778500  0.76375000  1
  H  H72  1  0.39221500  0.11270800  0.76375000  1
  H  H73  1  0.90096000  0.49524600  0.61632200  1
  H  H74  1  0.50475300  0.90095800  0.61632200  1
  H  H75  1  0.09904200  0.50475300  0.61632200  1
  H  H76  1  0.49524600  0.09904000  0.61632200  1
  H  H77  1  0.40096100  0.99524700  0.11632200  1
  H  H78  1  0.00475400  0.40096000  0.11632200  1
  H  H79  1  0.59904200  0.00475300  0.11632200  1
  H  H80  1  0.99524700  0.59904200  0.11632200  1
  H  H81  1  0.90094600  0.49343000  0.57203800  1
  H  H82  1  0.50657000  0.90094400  0.57203800  1
  H  H83  1  0.09905600  0.50657000  0.57203800  1
  H  H84  1  0.49343000  0.09905400  0.57203800  1
  H  H85  1  0.40094600  0.99343000  0.07203800  1
  H  H86  1  0.00657100  0.40094600  0.07203800  1
  H  H87  1  0.59905700  0.00657000  0.07203800  1
  H  H88  1  0.99343100  0.59905600  0.07203800  1
  H  H89  1  0.08549800  0.63042600  0.72860200  1
  H  H90  1  0.36957300  0.08549600  0.72860200  1
  H  H91  1  0.91450300  0.36957300  0.72860200  1
  H  H92  1  0.63042700  0.91450200  0.72860200  1
  H  H93  1  0.58549900  0.13042600  0.22860200  1
  H  H94  1  0.86957400  0.58549900  0.22860200  1
  H  H95  1  0.41450400  0.86957300  0.22860200  1
  H  H96  1  0.13042700  0.41450400  0.22860200  1
  H  H97  1  0.08292500  0.62996200  0.68579800  1
  H  H98  1  0.37003700  0.08292400  0.68579800  1
  H  H99  1  0.91707600  0.37003700  0.68579800  1
  H  H100  1  0.62996300  0.91707400  0.68579800  1
  H  H101  1  0.58292600  0.12996200  0.18579800  1
  H  H102  1  0.87003800  0.58292600  0.18579800  1
  H  H103  1  0.41707600  0.87003700  0.18579800  1
  H  H104  1  0.12996400  0.41707700  0.18579800  1
  H  H105  1  0.25291200  0.32595500  0.48591700  1
  H  H106  1  0.28280500  0.27030700  0.50751100  1
  H  H107  1  0.20930300  0.36133000  0.53527700  1
  H  H108  1  0.33844900  0.38111400  0.51353800  1
  H  H109  1  0.30123800  0.42406900  0.53944800  1
  H  H110  1  0.67404100  0.25290600  0.48590500  1
  H  H111  1  0.72969000  0.28280700  0.50749600  1
  H  H112  1  0.63867000  0.20931300  0.53526700  1
  H  H113  1  0.61888300  0.33845200  0.51352100  1
  H  H114  1  0.57593000  0.30124900  0.53943400  1
  H  H115  1  0.74708800  0.67404600  0.48591900  1
  H  H116  1  0.71719600  0.72969300  0.50751300  1
  H  H117  1  0.79070000  0.63867000  0.53527900  1
  H  H118  1  0.66155200  0.61888500  0.51353900  1
  H  H119  1  0.69876500  0.57592900  0.53945000  1
  H  H120  1  0.32595600  0.74709100  0.48591200  1
  H  H121  1  0.27030600  0.71719400  0.50750400  1
  H  H122  1  0.36132600  0.79069300  0.53527300  1
  H  H123  1  0.38111300  0.66155000  0.51353100  1
  H  H124  1  0.42406600  0.69875700  0.53944300  1
  H  H125  1  0.75291200  0.82595500  0.98591700  1
  H  H126  1  0.78280600  0.77030600  0.00751000  1
  H  H127  1  0.70930300  0.86132800  0.03527700  1
  H  H128  1  0.83845000  0.88111300  0.01353800  1
  H  H129  1  0.80123800  0.92406700  0.03944900  1
  H  H130  1  0.17404400  0.75290900  0.98591200  1
  H  H131  1  0.22969400  0.78280600  0.00750400  1
  H  H132  1  0.13867200  0.70930700  0.03527300  1
  H  H133  1  0.11888700  0.83845100  0.01353100  1
  H  H134  1  0.07593300  0.80124300  0.03944300  1
  H  H135  1  0.24709200  0.17404300  0.98591100  1
  H  H136  1  0.21719500  0.22969100  0.00750300  1
  H  H137  1  0.29069300  0.13866900  0.03527200  1
  H  H138  1  0.16155000  0.11888400  0.01352900  1
  H  H139  1  0.19875700  0.07592900  0.03944100  1
  H  H140  1  0.82595700  0.24709200  0.98591200  1
  H  H141  1  0.77030900  0.21719500  0.00750500  1
  H  H142  1  0.86133000  0.29069500  0.03527400  1
  H  H143  1  0.88111600  0.16155100  0.01353200  1
  H  H144  1  0.92407000  0.19876000  0.03944300  1
  C  C1  1  0.11719100  0.99036000  0.50092400  1
  C  C2  1  0.00964000  0.11719300  0.50092400  1
  C  C3  1  0.88280700  0.00964200  0.50092400  1
  C  C4  1  0.99035900  0.88280900  0.50092400  1
  C  C5  1  0.61719200  0.49035900  0.00092400  1
  C  C6  1  0.50964100  0.61719100  0.00092400  1
  C  C7  1  0.38280800  0.50964000  0.00092400  1
  C  C8  1  0.49035900  0.38280800  0.00092400  1
  C  C9  1  0.50000000  0.00000000  0.29670900  1
  C  C10  1  0.00000000  0.50000200  0.29670800  1
  C  C11  1  0.00000000  0.50000000  0.79670800  1
  C  C12  1  0.50000000  0.99999900  0.79670900  1
  C  C13  1  0.42132500  0.92190700  0.27209300  1
  C  C14  1  0.07809300  0.42132600  0.27209200  1
  C  C15  1  0.57867600  0.07809200  0.27209300  1
  C  C16  1  0.92190800  0.57867700  0.27209200  1
  C  C17  1  0.92132500  0.42190700  0.77209200  1
  C  C18  1  0.57809300  0.92132400  0.77209300  1
  C  C19  1  0.07867600  0.57809200  0.77209200  1
  C  C20  1  0.42190800  0.07867500  0.77209300  1
  C  C21  1  0.46020400  0.96221700  0.30949500  1
  C  C22  1  0.03778300  0.46020600  0.30949500  1
  C  C23  1  0.53979600  0.03778200  0.30949500  1
  C  C24  1  0.96221800  0.53979800  0.30949500  1
  C  C25  1  0.96020400  0.46221700  0.80949500  1
  C  C26  1  0.53778300  0.96020300  0.80949500  1
  C  C27  1  0.03979600  0.53778200  0.80949500  1
  C  C28  1  0.46221800  0.03979500  0.80949500  1
  C  C29  1  0.12207200  0.18349000  0.50994200  1
  C  C30  1  0.81651000  0.12207600  0.50993600  1
  C  C31  1  0.87792900  0.81651100  0.50994400  1
  C  C32  1  0.18348800  0.87792700  0.50993900  1
  C  C33  1  0.62207200  0.68348800  0.00994200  1
  C  C34  1  0.31651100  0.62207300  0.00993900  1
  C  C35  1  0.37792700  0.31651000  0.00993900  1
  C  C36  1  0.68349000  0.37792700  0.00994000  1
  C  C37  1  0.17881100  0.21240400  0.51094300  1
  C  C38  1  0.78759500  0.17881500  0.51093400  1
  C  C39  1  0.82119000  0.78759600  0.51094500  1
  C  C40  1  0.21240200  0.82118800  0.51093900  1
  C  C41  1  0.67881100  0.71240300  0.01094300  1
  C  C42  1  0.28759700  0.67881200  0.01093900  1
  C  C43  1  0.32118800  0.28759500  0.01093900  1
  C  C44  1  0.71240500  0.32118800  0.01094000  1
  C  C45  1  0.18367100  0.27390400  0.50467200  1
  C  C46  1  0.72609500  0.18367200  0.50466200  1
  C  C47  1  0.81633000  0.72609700  0.50467300  1
  C  C48  1  0.27390200  0.81632900  0.50466700  1
  C  C49  1  0.68367100  0.77390200  0.00467100  1
  C  C50  1  0.22609700  0.68367100  0.00466800  1
  C  C51  1  0.31633000  0.22609500  0.00466700  1
  C  C52  1  0.77390400  0.31633000  0.00466800  1
  C  C53  1  0.13123200  0.30725100  0.49871300  1
  C  C54  1  0.69274800  0.13123100  0.49870600  1
  C  C55  1  0.86876900  0.69275000  0.49871400  1
  C  C56  1  0.30725000  0.86876900  0.49871000  1
  C  C57  1  0.63123200  0.80725000  0.99871300  1
  C  C58  1  0.19275000  0.63123200  0.99871000  1
  C  C59  1  0.36877000  0.19274800  0.99870900  1
  C  C60  1  0.80725100  0.36876900  0.99871000  1
  C  C61  1  0.07258400  0.28002300  0.49945700  1
  C  C62  1  0.71997700  0.07258400  0.49945400  1
  C  C63  1  0.92741600  0.71997800  0.49945800  1
  C  C64  1  0.28002100  0.92741700  0.49945600  1
  C  C65  1  0.57258400  0.78002200  0.99945700  1
  C  C66  1  0.21997800  0.57258400  0.99945500  1
  C  C67  1  0.42741700  0.21997700  0.99945500  1
  C  C68  1  0.78002300  0.42741700  0.99945600  1
  C  C69  1  0.06925100  0.21618500  0.50339000  1
  C  C70  1  0.78381500  0.06925200  0.50338700  1
  C  C71  1  0.93075000  0.78381600  0.50339100  1
  C  C72  1  0.21618300  0.93074900  0.50338900  1
  C  C73  1  0.56925100  0.71618300  0.00339000  1
  C  C74  1  0.28381600  0.56925100  0.00338900  1
  C  C75  1  0.43074900  0.28381500  0.00338900  1
  C  C76  1  0.71618400  0.43074900  0.00338900  1
  C  C77  1  0.01343400  0.18503100  0.50045400  1
  C  C78  1  0.81497000  0.01343500  0.50045500  1
  C  C79  1  0.98656600  0.81497100  0.50045500  1
  C  C80  1  0.18502900  0.98656600  0.50045500  1
  C  C81  1  0.51343500  0.68502900  0.00045500  1
  C  C82  1  0.31497000  0.51343400  0.00045400  1
  C  C83  1  0.48656600  0.31497000  0.00045500  1
  C  C84  1  0.68503000  0.48656600  0.00045500  1
  C  C85  1  0.96107900  0.21767000  0.49440000  1
  C  C86  1  0.78233000  0.96107600  0.49440500  1
  C  C87  1  0.03892100  0.78233200  0.49440100  1
  C  C88  1  0.21766900  0.03892400  0.49440300  1
  C  C89  1  0.46107800  0.71766900  0.99440200  1
  C  C90  1  0.28233100  0.46107700  0.99440200  1
  C  C91  1  0.53892300  0.28233000  0.99440300  1
  C  C92  1  0.71766900  0.53892300  0.99440300  1
  C  C93  1  0.96247500  0.28114500  0.49275000  1
  C  C94  1  0.71885500  0.96247200  0.49275500  1
  C  C95  1  0.03752500  0.71885700  0.49275100  1
  C  C96  1  0.28114400  0.03752700  0.49275400  1
  C  C97  1  0.46247500  0.78114300  0.99275200  1
  C  C98  1  0.21885600  0.46247400  0.99275200  1
  C  C99  1  0.53752700  0.21885600  0.99275300  1
  C  C100  1  0.78114400  0.53752700  0.99275300  1
  C  C101  1  0.01746600  0.31376800  0.49556700  1
  C  C102  1  0.68623200  0.01746400  0.49556800  1
  C  C103  1  0.98253500  0.68623400  0.49556800  1
  C  C104  1  0.31376600  0.98253600  0.49556800  1
  C  C105  1  0.51746600  0.81376700  0.99556800  1
  C  C106  1  0.18623300  0.51746500  0.99556800  1
  C  C107  1  0.48253600  0.18623200  0.99556800  1
  C  C108  1  0.81376700  0.48253600  0.99556800  1
  C  C109  1  0.49999900  0.00000000  0.42341500  1
  C  C110  1  0.00000000  0.50000200  0.42341500  1
  C  C111  1  0.99999900  0.50000000  0.92341500  1
  C  C112  1  0.50000100  0.99999900  0.92341500  1
  C  C113  1  0.50000000  0.00000000  0.37295600  1
  C  C114  1  0.00000000  0.50000200  0.37295500  1
  C  C115  1  0.99999900  0.50000000  0.87295500  1
  C  C116  1  0.50000100  0.99999900  0.87295500  1
  C  C117  1  0.94473600  0.49590300  0.58159600  1
  C  C118  1  0.50409600  0.94473500  0.58159700  1
  C  C119  1  0.05526500  0.50409700  0.58159600  1
  C  C120  1  0.49590300  0.05526400  0.58159700  1
  C  C121  1  0.44473700  0.99590300  0.08159700  1
  C  C122  1  0.00409800  0.44473600  0.08159600  1
  C  C123  1  0.55526600  0.00409700  0.08159700  1
  C  C124  1  0.99590400  0.55526600  0.08159600  1
  C  C125  1  0.42007000  0.92405800  0.29706000  1
  C  C126  1  0.07594200  0.42007200  0.29706000  1
  C  C127  1  0.57993000  0.07594100  0.29706100  1
  C  C128  1  0.92405900  0.57993100  0.29706000  1
  C  C129  1  0.92007000  0.42405800  0.79706000  1
  C  C130  1  0.57594200  0.92006900  0.79706100  1
  C  C131  1  0.07993000  0.57594100  0.79706000  1
  C  C132  1  0.42405900  0.07992900  0.79706100  1
  C  C133  1  0.50607900  0.94491900  0.41075500  1
  C  C134  1  0.05508100  0.50608200  0.41075400  1
  C  C135  1  0.49392000  0.05508000  0.41075500  1
  C  C136  1  0.94492000  0.49392200  0.41075400  1
  C  C137  1  0.00607900  0.44492000  0.91075400  1
  C  C138  1  0.55508100  0.00607900  0.91075500  1
  C  C139  1  0.99392000  0.55508100  0.91075400  1
  C  C140  1  0.44492000  0.99392000  0.91075500  1
  C  C141  1  0.54019700  0.03649100  0.33467100  1
  C  C142  1  0.96350900  0.54019900  0.33467100  1
  C  C143  1  0.45980300  0.96350900  0.33467100  1
  C  C144  1  0.03649100  0.45980400  0.33467100  1
  C  C145  1  0.04019700  0.53649100  0.83467100  1
  C  C146  1  0.46351000  0.04019600  0.83467100  1
  C  C147  1  0.95980200  0.46350900  0.83467100  1
  C  C148  1  0.53649100  0.95980200  0.83467100  1
  C  C149  1  0.50689900  0.94504300  0.38566300  1
  C  C150  1  0.05495700  0.50690200  0.38566300  1
  C  C151  1  0.49310000  0.05495600  0.38566300  1
  C  C152  1  0.94504400  0.49310200  0.38566300  1
  C  C153  1  0.00689900  0.44504400  0.88566300  1
  C  C154  1  0.55495700  0.00689900  0.88566300  1
  C  C155  1  0.99310000  0.55495700  0.88566300  1
  C  C156  1  0.44504400  0.99310000  0.88566300  1
  C  C157  1  0.00000100  0.50000000  0.54230100  1
  C  C158  1  0.50000000  0.99999900  0.54230100  1
  C  C159  1  0.50000100  0.00000000  0.04230100  1
  C  C160  1  0.00000100  0.50000100  0.04230100  1
  C  C161  1  0.01263300  0.38254400  0.49536600  1
  C  C162  1  0.61745600  0.01263100  0.49536700  1
  C  C163  1  0.98736800  0.61745700  0.49536700  1
  C  C164  1  0.38254300  0.98736800  0.49536700  1
  C  C165  1  0.51263300  0.88254300  0.99536700  1
  C  C166  1  0.11745700  0.51263200  0.99536700  1
  C  C167  1  0.48736900  0.11745600  0.99536700  1
  C  C168  1  0.88254300  0.48736900  0.99536700  1
  C  C169  1  0.00000100  0.50000000  0.61939600  1
  C  C170  1  0.50000000  0.99999900  0.61939600  1
  C  C171  1  0.50000100  0.00000000  0.11939600  1
  C  C172  1  0.00000100  0.50000100  0.11939600  1
  C  C173  1  0.00000000  0.50000200  0.45005900  1
  C  C174  1  0.49999900  0.00000000  0.45006000  1
  C  C175  1  0.50000100  0.99999900  0.95006000  1
  C  C176  1  0.00000000  0.50000000  0.95005900  1
  C  C177  1  0.94470500  0.49674500  0.60668700  1
  C  C178  1  0.50325500  0.94470400  0.60668800  1
  C  C179  1  0.05529600  0.50325500  0.60668700  1
  C  C180  1  0.49674500  0.05529400  0.60668800  1
  C  C181  1  0.44470600  0.99674500  0.10668800  1
  C  C182  1  0.00325600  0.44470600  0.10668700  1
  C  C183  1  0.55529700  0.00325500  0.10668800  1
  C  C184  1  0.99674600  0.55529600  0.10668700  1
  C  C185  1  0.00000100  0.50000000  0.56894000  1
  C  C186  1  0.50000000  0.99999900  0.56894100  1
  C  C187  1  0.50000100  0.00000000  0.06894000  1
  C  C188  1  0.00000100  0.50000100  0.06894000  1
  C  C189  1  0.03378800  0.54448500  0.73348700  1
  C  C190  1  0.45551500  0.03378700  0.73348700  1
  C  C191  1  0.96621200  0.45551400  0.73348700  1
  C  C192  1  0.54448500  0.96621100  0.73348700  1
  C  C193  1  0.53378900  0.04448500  0.23348700  1
  C  C194  1  0.95551500  0.53378900  0.23348700  1
  C  C195  1  0.46621300  0.95551400  0.23348700  1
  C  C196  1  0.04448600  0.46621400  0.23348700  1
  C  C197  1  0.00000000  0.50000000  0.72093800  1
  C  C198  1  0.50000000  0.99999900  0.72093800  1
  C  C199  1  0.50000100  0.00000000  0.22093800  1
  C  C200  1  0.00000000  0.50000100  0.22093800  1
  C  C201  1  0.06248700  0.59156200  0.72026000  1
  C  C202  1  0.40843800  0.06248500  0.72026000  1
  C  C203  1  0.93751400  0.40843700  0.72026000  1
  C  C204  1  0.59156200  0.93751300  0.72026000  1
  C  C205  1  0.56248800  0.09156200  0.22026000  1
  C  C206  1  0.90843800  0.56248800  0.22026000  1
  C  C207  1  0.43751500  0.90843700  0.22026000  1
  C  C208  1  0.09156300  0.43751500  0.22026000  1
  C  C209  1  0.06014100  0.59240600  0.69529200  1
  C  C210  1  0.40759400  0.06014000  0.69529200  1
  C  C211  1  0.93986000  0.40759300  0.69529200  1
  C  C212  1  0.59240600  0.93985800  0.69529200  1
  C  C213  1  0.56014200  0.09240600  0.19529200  1
  C  C214  1  0.90759400  0.56014200  0.19529200  1
  C  C215  1  0.43986100  0.90759300  0.19529200  1
  C  C216  1  0.09240700  0.43986100  0.19529200  1
  C  C217  1  0.02991500  0.54600300  0.68285700  1
  C  C218  1  0.45399600  0.02991300  0.68285800  1
  C  C219  1  0.97008600  0.45399600  0.68285700  1
  C  C220  1  0.54600400  0.97008500  0.68285800  1
  C  C221  1  0.52991600  0.04600300  0.18285800  1
  C  C222  1  0.95399700  0.52991600  0.18285700  1
  C  C223  1  0.47008700  0.95399600  0.18285800  1
  C  C224  1  0.04600400  0.47008700  0.18285700  1
  C  C225  1  0.00000000  0.50000000  0.69564400  1
  C  C226  1  0.50000000  0.99999900  0.69564400  1
  C  C227  1  0.50000100  0.00000000  0.19564400  1
  C  C228  1  0.00000100  0.50000100  0.19564400  1
  C  C229  1  0.02856800  0.54616500  0.65768100  1
  C  C230  1  0.45383400  0.02856700  0.65768100  1
  C  C231  1  0.97143300  0.45383400  0.65768100  1
  C  C232  1  0.54616600  0.97143100  0.65768100  1
  C  C233  1  0.52856900  0.04616500  0.15768100  1
  C  C234  1  0.95383500  0.52856900  0.15768100  1
  C  C235  1  0.47143400  0.95383400  0.15768100  1
  C  C236  1  0.04616700  0.47143300  0.15768100  1
  C  C237  1  0.53760200  0.04131200  0.25886600  1
  C  C238  1  0.95868800  0.53760200  0.25886500  1
  C  C239  1  0.46240000  0.95868700  0.25886500  1
  C  C240  1  0.04131300  0.46240100  0.25886500  1
  C  C241  1  0.03760100  0.54131200  0.75886500  1
  C  C242  1  0.45868800  0.03760000  0.75886600  1
  C  C243  1  0.96239900  0.45868700  0.75886500  1
  C  C244  1  0.54131300  0.96239800  0.75886500  1
  C  C245  1  0.50000100  0.00000000  0.27141400  1
  C  C246  1  0.00000000  0.50000200  0.27141400  1
  C  C247  1  0.00000000  0.50000000  0.77141400  1
  C  C248  1  0.50000000  0.99999900  0.77141400  1
  C  C249  1  0.24555700  0.30475200  0.50409100  1
  C  C250  1  0.24839400  0.35385400  0.52318800  1
  C  C251  1  0.29914500  0.38845100  0.52552900  1
  C  C252  1  0.69524500  0.24555800  0.50407900  1
  C  C253  1  0.64614500  0.24840000  0.52317600  1
  C  C254  1  0.61154700  0.29915200  0.52551400  1
  C  C255  1  0.75444400  0.69524800  0.50409300  1
  C  C256  1  0.75160800  0.64614600  0.52318900  1
  C  C257  1  0.70085700  0.61154800  0.52553000  1
  C  C258  1  0.30475100  0.75444300  0.50408600  1
  C  C259  1  0.35385100  0.75160400  0.52318300  1
  C  C260  1  0.38844900  0.70085200  0.52552300  1
  C  C261  1  0.74555700  0.80475100  0.00409100  1
  C  C262  1  0.74839400  0.85385200  0.02318800  1
  C  C263  1  0.79914500  0.88845000  0.02552900  1
  C  C264  1  0.19524800  0.74555700  0.00408600  1
  C  C265  1  0.14614800  0.74839600  0.02318300  1
  C  C266  1  0.11155000  0.79914800  0.02552300  1
  C  C267  1  0.25444400  0.19524600  0.00408500  1
  C  C268  1  0.25160400  0.14614500  0.02318100  1
  C  C269  1  0.20085300  0.11154700  0.02552100  1
  C  C270  1  0.80475400  0.25444400  0.00408700  1
  C  C271  1  0.85385500  0.25160500  0.02318300  1
  C  C272  1  0.88845300  0.20085400  0.02552300  1
  N  N1  1  0.50000000  0.00000000  0.34692500  1
  N  N2  1  0.00000000  0.50000200  0.34692500  1
  N  N3  1  0.00000000  0.50000000  0.84692500  1
  N  N4  1  0.50000100  0.99999900  0.84692500  1
  N  N5  1  0.00000100  0.50000000  0.64542700  1
  N  N6  1  0.50000000  0.99999900  0.64542700  1
  N  N7  1  0.50000200  0.00000000  0.14542700  1
  N  N8  1  0.00000100  0.50000100  0.14542700  1
  O  O1  1  0.08678300  0.97531900  0.48087900  1
  O  O2  1  0.02468100  0.08678400  0.48087900  1
  O  O3  1  0.91321600  0.02468200  0.48087900  1
  O  O4  1  0.97531800  0.91321700  0.48087900  1
  O  O5  1  0.58678400  0.47531800  0.98087900  1
  O  O6  1  0.52468200  0.58678300  0.98087900  1
  O  O7  1  0.41321700  0.52468100  0.98087900  1
  O  O8  1  0.47531900  0.41321600  0.98087900  1
  O  O9  1  0.08967900  0.01021100  0.52099100  1
  O  O10  1  0.98979000  0.08968100  0.52099100  1
  O  O11  1  0.91032000  0.98979100  0.52099100  1
  O  O12  1  0.01020900  0.91032200  0.52099200  1
  O  O13  1  0.58967900  0.51020900  0.02099200  1
  O  O14  1  0.48979000  0.58967900  0.02099100  1
  O  O15  1  0.41032000  0.48979000  0.02099100  1
  O  O16  1  0.51021000  0.41032000  0.02099100  1
  O  O17  1  0.95094300  0.47741600  0.53088200  1
  O  O18  1  0.52258400  0.95094200  0.53088200  1
  O  O19  1  0.04905800  0.52258500  0.53088200  1
  O  O20  1  0.47741500  0.04905700  0.53088200  1
  O  O21  1  0.45094300  0.97741500  0.03088200  1
  O  O22  1  0.02258500  0.45094300  0.03088200  1
  O  O23  1  0.54905900  0.02258400  0.03088200  1
  O  O24  1  0.97741600  0.54905900  0.03088200  1
  O  O25  1  0.95840300  0.40690400  0.48918600  1
  O  O26  1  0.59309600  0.95840100  0.48918600  1
  O  O27  1  0.04159800  0.59309800  0.48918600  1
  O  O28  1  0.40690300  0.04159800  0.48918600  1
  O  O29  1  0.45840300  0.90690300  0.98918600  1
  O  O30  1  0.09309700  0.45840200  0.98918600  1
  O  O31  1  0.54159900  0.09309600  0.98918600  1
  O  O32  1  0.90690300  0.54159900  0.98918600  1
  O  O33  1  0.05945800  0.41712800  0.50302900  1
  O  O34  1  0.58287300  0.05945600  0.50302900  1
  O  O35  1  0.94054300  0.58287300  0.50302900  1
  O  O36  1  0.41712600  0.94054300  0.50303000  1
  O  O37  1  0.55945800  0.91712700  0.00303000  1
  O  O38  1  0.08287300  0.55945800  0.00302900  1
  O  O39  1  0.44054400  0.08287200  0.00302900  1
  O  O40  1  0.91712700  0.44054400  0.00302900  1
  O  O41  1  0.58180400  0.07082000  0.34698000  1
  O  O42  1  0.92918000  0.58180600  0.34697900  1
  O  O43  1  0.41819600  0.92918000  0.34698000  1
  O  O44  1  0.07082100  0.41819800  0.34698000  1
  O  O45  1  0.08180300  0.57082000  0.84698000  1
  O  O46  1  0.42918000  0.08180300  0.84698000  1
  O  O47  1  0.91819600  0.42918000  0.84697900  1
  O  O48  1  0.57082100  0.91819500  0.84698000  1
  O  O49  1  0.94746200  0.51229200  0.46148900  1
  O  O50  1  0.48770800  0.94746100  0.46148900  1
  O  O51  1  0.05253900  0.48771100  0.46148900  1
  O  O52  1  0.51229000  0.05253800  0.46148900  1
  O  O53  1  0.44746300  0.01229000  0.96148900  1
  O  O54  1  0.98770900  0.44746200  0.96148900  1
  O  O55  1  0.55253900  0.98770900  0.96148900  1
  O  O56  1  0.01229000  0.55253900  0.96148900  1
  O  O57  1  0.05475100  0.59332700  0.64537400  1
  O  O58  1  0.40667200  0.05474900  0.64537400  1
  O  O59  1  0.94525000  0.40667200  0.64537300  1
  O  O60  1  0.59332800  0.94524900  0.64537400  1
  O  O61  1  0.55475200  0.09332700  0.14537400  1
  O  O62  1  0.90667300  0.55475100  0.14537300  1
  O  O63  1  0.44525100  0.90667200  0.14537400  1
  O  O64  1  0.09332900  0.44525100  0.14537400  1
