# generated using pymatgen
data_CuH9C15NO4F3
_symmetry_space_group_name_H-M   'P 1'
_cell_length_a   10.92919600
_cell_length_b   11.05025000
_cell_length_c   9.60705000
_cell_angle_alpha   90.02042400
_cell_angle_beta   90.01216700
_cell_angle_gamma   89.99689500
_symmetry_Int_Tables_number   1
_chemical_formula_structural   CuH9C15NO4F3
_chemical_formula_sum   'Cu2 H18 C30 N2 O8 F6'
_cell_volume   1160.24667113
_cell_formula_units_Z   2
loop_
 _symmetry_equiv_pos_site_id
 _symmetry_equiv_pos_as_xyz
  1  'x, y, z'
loop_
 _atom_site_type_symbol
 _atom_site_label
 _atom_site_symmetry_multiplicity
 _atom_site_fract_x
 _atom_site_fract_y
 _atom_site_fract_z
 _atom_site_occupancy
  Cu  Cu1  1  0.50999900  0.49150800  0.64166000  1
  Cu  Cu2  1  0.51262200  0.49132900  0.36324500  1
  H  H1  1  0.25071700  0.60712200  0.87771300  1
  H  H2  1  0.17032400  0.76987400  0.02701300  1
  H  H3  1  0.09140400  0.72186600  0.25931600  1
  H  H4  1  0.15661300  0.34784200  0.18847000  1
  H  H5  1  0.23530800  0.39380500  0.95597000  1
  H  H6  1  0.89160300  0.52129500  0.29000100  1
  H  H7  1  0.12831000  0.45896000  0.71624600  1
  H  H8  1  0.89171500  0.66051100  0.78777800  1
  H  H9  1  0.75653300  0.45120100  0.12885800  1
  H  H10  1  0.81181400  0.26625200  0.00573000  1
  H  H11  1  0.90241700  0.27716800  0.77256900  1
  H  H12  1  0.55460400  0.89988800  0.59269700  1
  H  H13  1  0.51890700  0.10939200  0.29524900  1
  H  H14  1  0.48375100  0.08577200  0.60944700  1
  H  H15  1  0.53645700  0.31120200  0.87249200  1
  H  H16  1  0.45948100  0.56504400  0.89884400  1
  H  H17  1  0.48563000  0.30691300  0.12528000  1
  H  H18  1  0.54079600  0.56756200  0.10513400  1
  C  C1  1  0.50848600  0.25871300  0.50440000  1
  C  C2  1  0.27613300  0.49450200  0.49581000  1
  C  C3  1  0.51384300  0.72408800  0.50007900  1
  C  C4  1  0.74813200  0.49039500  0.50947100  1
  C  C5  1  0.17121700  0.67723900  0.06349900  1
  C  C6  1  0.12605900  0.65057400  0.19351800  1
  C  C7  1  0.12367300  0.53290500  0.23985000  1
  C  C8  1  0.16213800  0.44060300  0.15389000  1
  C  C9  1  0.20711600  0.46690300  0.02354900  1
  C  C10  1  0.21419900  0.58563300  0.97925500  1
  C  C11  1  0.94322600  0.50614400  0.38393100  1
  C  C12  1  0.88321700  0.49171600  0.50922600  1
  C  C13  1  0.95339300  0.47611000  0.62808900  1
  C  C14  1  0.07920500  0.47305400  0.62019400  1
  C  C15  1  0.14004600  0.49130600  0.49554300  1
  C  C16  1  0.06973200  0.50652500  0.37549900  1
  C  C17  1  0.87198200  0.57431900  0.83591600  1
  C  C18  1  0.81921100  0.56999800  0.96605900  1
  C  C19  1  0.79672400  0.45850700  0.02708000  1
  C  C20  1  0.82881800  0.35337400  0.95842400  1
  C  C21  1  0.88002300  0.35896400  0.82772300  1
  C  C22  1  0.90011300  0.46922600  0.76611600  1
  C  C23  1  0.49028200  0.92890300  0.38874500  1
  C  C24  1  0.52101200  0.85779500  0.49807600  1
  C  C25  1  0.50708700  0.06187500  0.39298200  1
  C  C26  1  0.50119700  0.12683900  0.50947300  1
  C  C27  1  0.51544500  0.39590700  0.92268400  1
  C  C28  1  0.50447700  0.39383600  0.07761400  1
  C  C29  1  0.43307500  0.87905700  0.25945600  1
  C  C30  1  0.78949500  0.68661900  0.03637700  1
  N  N1  1  0.50292700  0.49317300  0.85005900  1
  N  N2  1  0.51890500  0.48812300  0.15474000  1
  O  O1  1  0.50239100  0.31605100  0.62329600  1
  O  O2  1  0.51701700  0.31427200  0.38373100  1
  O  O3  1  0.33198600  0.49814400  0.61702700  1
  O  O4  1  0.33587400  0.48823700  0.37782300  1
  O  O5  1  0.50848500  0.66773300  0.62011600  1
  O  O6  1  0.52011600  0.66584700  0.38250500  1
  O  O7  1  0.68750600  0.49317000  0.62659700  1
  O  O8  1  0.69135000  0.48508900  0.38907800  1
  F  F1  1  0.38544900  0.97239200  0.18084100  1
  F  F2  1  0.33818400  0.80202800  0.29414100  1
  F  F3  1  0.51972900  0.81927400  0.18051900  1
  F  F4  1  0.89328100  0.75777800  0.04138100  1
  F  F5  1  0.74778800  0.66761100  0.17007800  1
  F  F6  1  0.70041800  0.74552300  0.96035200  1
