# generated using pymatgen
data_Cu3H36C72N4(ClO3)4
_symmetry_space_group_name_H-M   'P 1'
_cell_length_a   21.55293300
_cell_length_b   21.55293300
_cell_length_c   38.27347300
_cell_angle_alpha   90.00000000
_cell_angle_beta   90.00000000
_cell_angle_gamma   90.00000000
_symmetry_Int_Tables_number   1
_chemical_formula_structural   Cu3H36C72N4(ClO3)4
_chemical_formula_sum   'Cu12 H144 C288 N16 Cl16 O48'
_cell_volume   17779.13511188
_cell_formula_units_Z   4
loop_
 _symmetry_equiv_pos_site_id
 _symmetry_equiv_pos_as_xyz
  1  'x, y, z'
loop_
 _atom_site_type_symbol
 _atom_site_label
 _atom_site_symmetry_multiplicity
 _atom_site_fract_x
 _atom_site_fract_y
 _atom_site_fract_z
 _atom_site_occupancy
  Cu  Cu1  1  0.56054300  0.00000000  0.50000000  1
  Cu  Cu2  1  0.00000000  0.56054300  0.50000000  1
  Cu  Cu3  1  0.43945700  0.00000000  0.50000000  1
  Cu  Cu4  1  0.00000000  0.43945700  0.50000000  1
  Cu  Cu5  1  0.06054300  0.50000000  0.00000000  1
  Cu  Cu6  1  0.50000000  0.06054300  0.00000000  1
  Cu  Cu7  1  0.93945700  0.50000000  0.00000000  1
  Cu  Cu8  1  0.50000000  0.93945700  0.00000000  1
  Cu  Cu9  1  0.50000000  0.50000000  0.53416600  1
  Cu  Cu10  1  0.50000000  0.50000000  0.46583400  1
  Cu  Cu11  1  0.00000000  0.00000000  0.03416600  1
  Cu  Cu12  1  0.00000000  0.00000000  0.96583400  1
  H  H1  1  0.41583900  0.05244600  0.39110800  1
  H  H2  1  0.94755400  0.41583900  0.39110800  1
  H  H3  1  0.58416100  0.94755400  0.39110800  1
  H  H4  1  0.05244600  0.58416100  0.39110800  1
  H  H5  1  0.41583900  0.94755400  0.60889300  1
  H  H6  1  0.94755400  0.58416100  0.60889200  1
  H  H7  1  0.58416100  0.05244600  0.60889200  1
  H  H8  1  0.05244600  0.41583900  0.60889200  1
  H  H9  1  0.91583900  0.55244600  0.89110800  1
  H  H10  1  0.44755400  0.91583900  0.89110800  1
  H  H11  1  0.08416100  0.44755400  0.89110800  1
  H  H12  1  0.55244600  0.08416100  0.89110800  1
  H  H13  1  0.91583900  0.44755400  0.10889200  1
  H  H14  1  0.44755400  0.08416100  0.10889200  1
  H  H15  1  0.08416100  0.55244600  0.10889200  1
  H  H16  1  0.55244600  0.91583900  0.10889200  1
  H  H17  1  0.41591400  0.05279500  0.32788100  1
  H  H18  1  0.94720500  0.41591400  0.32788100  1
  H  H19  1  0.58408600  0.94720500  0.32788100  1
  H  H20  1  0.05279500  0.58408600  0.32788100  1
  H  H21  1  0.41591400  0.94720500  0.67211900  1
  H  H22  1  0.94720500  0.58408600  0.67211900  1
  H  H23  1  0.58408600  0.05279500  0.67211900  1
  H  H24  1  0.05279500  0.41591400  0.67211900  1
  H  H25  1  0.91591400  0.55279500  0.82788100  1
  H  H26  1  0.44720500  0.91591400  0.82788100  1
  H  H27  1  0.08408600  0.44720500  0.82788100  1
  H  H28  1  0.55279500  0.08408600  0.82788100  1
  H  H29  1  0.91591400  0.44720500  0.17211900  1
  H  H30  1  0.44720500  0.08408600  0.17211900  1
  H  H31  1  0.08408600  0.55279500  0.17211900  1
  H  H32  1  0.55279500  0.91591400  0.17211900  1
  H  H33  1  0.43105100  0.13638700  0.44843400  1
  H  H34  1  0.86361300  0.43105100  0.44843400  1
  H  H35  1  0.56894900  0.86361300  0.44843400  1
  H  H36  1  0.13638700  0.56894900  0.44843400  1
  H  H37  1  0.43105100  0.86361300  0.55156600  1
  H  H38  1  0.86361300  0.56894900  0.55156600  1
  H  H39  1  0.56894900  0.13638700  0.55156600  1
  H  H40  1  0.13638700  0.43105100  0.55156600  1
  H  H41  1  0.93105200  0.63638700  0.94843400  1
  H  H42  1  0.36361300  0.93105100  0.94843400  1
  H  H43  1  0.06894900  0.36361300  0.94843400  1
  H  H44  1  0.63638700  0.06894900  0.94843400  1
  H  H45  1  0.93105100  0.36361300  0.05156600  1
  H  H46  1  0.36361300  0.06894900  0.05156600  1
  H  H47  1  0.06894900  0.63638700  0.05156600  1
  H  H48  1  0.63638700  0.93105100  0.05156600  1
  H  H49  1  0.35851700  0.30605100  0.41189300  1
  H  H50  1  0.69394900  0.35851800  0.41189300  1
  H  H51  1  0.64148200  0.69394900  0.41189300  1
  H  H52  1  0.30605100  0.64148200  0.41189300  1
  H  H53  1  0.35851800  0.69394900  0.58810700  1
  H  H54  1  0.69394900  0.64148200  0.58810700  1
  H  H55  1  0.64148200  0.30605100  0.58810700  1
  H  H56  1  0.30605100  0.35851700  0.58810700  1
  H  H57  1  0.85851800  0.80605100  0.91189300  1
  H  H58  1  0.19394900  0.85851800  0.91189300  1
  H  H59  1  0.14148300  0.19394900  0.91189300  1
  H  H60  1  0.80605100  0.14148300  0.91189300  1
  H  H61  1  0.85851800  0.19394900  0.08810700  1
  H  H62  1  0.19394900  0.14148300  0.08810700  1
  H  H63  1  0.14148300  0.80605100  0.08810700  1
  H  H64  1  0.80605100  0.85851800  0.08810700  1
  H  H65  1  0.41754000  0.36270200  0.45407600  1
  H  H66  1  0.63729900  0.41754000  0.45407600  1
  H  H67  1  0.58246000  0.63729900  0.45407600  1
  H  H68  1  0.36270100  0.58246000  0.45407600  1
  H  H69  1  0.41754000  0.63729900  0.54592400  1
  H  H70  1  0.63729900  0.58246000  0.54592400  1
  H  H71  1  0.58246000  0.36270100  0.54592400  1
  H  H72  1  0.36270100  0.41754000  0.54592400  1
  H  H73  1  0.91754000  0.86270100  0.95407600  1
  H  H74  1  0.13729900  0.91754000  0.95407600  1
  H  H75  1  0.08246000  0.13729900  0.95407600  1
  H  H76  1  0.86270100  0.08246000  0.95407600  1
  H  H77  1  0.91754000  0.13729900  0.04592400  1
  H  H78  1  0.13729900  0.08246000  0.04592400  1
  H  H79  1  0.08246000  0.86270100  0.04592400  1
  H  H80  1  0.86270200  0.91754000  0.04592400  1
  H  H81  1  0.66287000  0.16568800  0.68516400  1
  H  H82  1  0.73863100  0.08883300  0.66451700  1
  H  H83  1  0.75228400  0.07110400  0.60152700  1
  H  H84  1  0.69127200  0.13094500  0.55923600  1
  H  H85  1  0.83431200  0.66287000  0.68516400  1
  H  H86  1  0.91116700  0.73863100  0.66451700  1
  H  H87  1  0.92889600  0.75228400  0.60152800  1
  H  H88  1  0.86905500  0.69127300  0.55923600  1
  H  H89  1  0.33713000  0.83431200  0.68516400  1
  H  H90  1  0.26136900  0.91116700  0.66451700  1
  H  H91  1  0.24771600  0.92889600  0.60152800  1
  H  H92  1  0.30872800  0.86905500  0.55923600  1
  H  H93  1  0.16568800  0.33713000  0.68516400  1
  H  H94  1  0.08883300  0.26136900  0.66451700  1
  H  H95  1  0.07110400  0.24771600  0.60152700  1
  H  H96  1  0.13094500  0.30872800  0.55923600  1
  H  H97  1  0.66287000  0.83431200  0.31483600  1
  H  H98  1  0.73863100  0.91116700  0.33548300  1
  H  H99  1  0.75228400  0.92889600  0.39847200  1
  H  H100  1  0.69127300  0.86905500  0.44076400  1
  H  H101  1  0.83431200  0.33713000  0.31483600  1
  H  H102  1  0.91116700  0.26136900  0.33548300  1
  H  H103  1  0.92889600  0.24771600  0.39847200  1
  H  H104  1  0.86905500  0.30872800  0.44076400  1
  H  H105  1  0.33713000  0.16568800  0.31483600  1
  H  H106  1  0.26136900  0.08883300  0.33548300  1
  H  H107  1  0.24771600  0.07110400  0.39847300  1
  H  H108  1  0.30872800  0.13094500  0.44076400  1
  H  H109  1  0.16568800  0.66287000  0.31483600  1
  H  H110  1  0.08883300  0.73863100  0.33548300  1
  H  H111  1  0.07110400  0.75228400  0.39847200  1
  H  H112  1  0.13094500  0.69127200  0.44076400  1
  H  H113  1  0.16287000  0.66568800  0.18516400  1
  H  H114  1  0.23863100  0.58883300  0.16451700  1
  H  H115  1  0.25228400  0.57110400  0.10152800  1
  H  H116  1  0.19127300  0.63094500  0.05923600  1
  H  H117  1  0.33431200  0.16287000  0.18516400  1
  H  H118  1  0.41116700  0.23863100  0.16451700  1
  H  H119  1  0.42889600  0.25228400  0.10152700  1
  H  H120  1  0.36905500  0.19127200  0.05923600  1
  H  H121  1  0.83713000  0.33431200  0.18516400  1
  H  H122  1  0.76136900  0.41116700  0.16451700  1
  H  H123  1  0.74771600  0.42889600  0.10152700  1
  H  H124  1  0.80872800  0.36905500  0.05923600  1
  H  H125  1  0.66568800  0.83713000  0.18516400  1
  H  H126  1  0.58883300  0.76136900  0.16451700  1
  H  H127  1  0.57110400  0.74771600  0.10152800  1
  H  H128  1  0.63094500  0.80872800  0.05923600  1
  H  H129  1  0.16287000  0.33431200  0.81483600  1
  H  H130  1  0.23863100  0.41116700  0.83548300  1
  H  H131  1  0.25228400  0.42889600  0.89847200  1
  H  H132  1  0.19127300  0.36905500  0.94076400  1
  H  H133  1  0.33431200  0.83713000  0.81483600  1
  H  H134  1  0.41116700  0.76136900  0.83548300  1
  H  H135  1  0.42889600  0.74771600  0.89847200  1
  H  H136  1  0.36905500  0.80872700  0.94076400  1
  H  H137  1  0.83713000  0.66568800  0.81483600  1
  H  H138  1  0.76136900  0.58883300  0.83548300  1
  H  H139  1  0.74771600  0.57110400  0.89847300  1
  H  H140  1  0.80872800  0.63094500  0.94076400  1
  H  H141  1  0.66568800  0.16287000  0.81483600  1
  H  H142  1  0.58883300  0.23863100  0.83548300  1
  H  H143  1  0.57110400  0.25228400  0.89847200  1
  H  H144  1  0.63094500  0.19127300  0.94076400  1
  C  C1  1  0.50000000  0.11751000  0.50000000  1
  C  C2  1  0.88249000  0.50000000  0.50000000  1
  C  C3  1  0.50000000  0.88249000  0.50000000  1
  C  C4  1  0.11751000  0.50000000  0.50000000  1
  C  C5  1  0.00000000  0.61751000  0.00000000  1
  C  C6  1  0.38249000  0.00000000  0.00000000  1
  C  C7  1  0.00000000  0.38249000  0.00000000  1
  C  C8  1  0.61751000  0.00000000  0.00000000  1
  C  C9  1  0.50000000  0.00000000  0.43389100  1
  C  C10  1  0.00000000  0.50000000  0.43389100  1
  C  C11  1  0.50000000  0.00000000  0.56610900  1
  C  C12  1  0.00000000  0.50000000  0.56610900  1
  C  C13  1  0.00000000  0.50000000  0.93389100  1
  C  C14  1  0.50000000  0.00000000  0.93389100  1
  C  C15  1  0.00000000  0.50000000  0.06610900  1
  C  C16  1  0.50000000  0.00000000  0.06610900  1
  C  C17  1  0.45295600  0.02915500  0.37745900  1
  C  C18  1  0.97084500  0.45295600  0.37745900  1
  C  C19  1  0.54704400  0.97084500  0.37745900  1
  C  C20  1  0.02915500  0.54704400  0.37745900  1
  C  C21  1  0.45295600  0.97084500  0.62254100  1
  C  C22  1  0.97084500  0.54704400  0.62254100  1
  C  C23  1  0.54704400  0.02915500  0.62254100  1
  C  C24  1  0.02915500  0.45295600  0.62254100  1
  C  C25  1  0.95295600  0.52915500  0.87745900  1
  C  C26  1  0.47084500  0.95295600  0.87745900  1
  C  C27  1  0.04704400  0.47084500  0.87745900  1
  C  C28  1  0.52915500  0.04704400  0.87745900  1
  C  C29  1  0.95295600  0.47084500  0.12254100  1
  C  C30  1  0.47084500  0.04704400  0.12254100  1
  C  C31  1  0.04704400  0.52915500  0.12254100  1
  C  C32  1  0.52915500  0.95295600  0.12254100  1
  C  C33  1  0.45322700  0.02963200  0.34145700  1
  C  C34  1  0.97036800  0.45322600  0.34145700  1
  C  C35  1  0.54677300  0.97036800  0.34145700  1
  C  C36  1  0.02963200  0.54677400  0.34145700  1
  C  C37  1  0.45322600  0.97036800  0.65854300  1
  C  C38  1  0.97036800  0.54677300  0.65854300  1
  C  C39  1  0.54677400  0.02963200  0.65854300  1
  C  C40  1  0.02963200  0.45322600  0.65854300  1
  C  C41  1  0.95322700  0.52963200  0.84145700  1
  C  C42  1  0.47036800  0.95322700  0.84145700  1
  C  C43  1  0.04677400  0.47036800  0.84145700  1
  C  C44  1  0.52963200  0.04677400  0.84145700  1
  C  C45  1  0.95322700  0.47036800  0.15854300  1
  C  C46  1  0.47036800  0.04677400  0.15854300  1
  C  C47  1  0.04677400  0.52963200  0.15854300  1
  C  C48  1  0.52963200  0.95322700  0.15854300  1
  C  C49  1  0.50000000  0.00000000  0.32324000  1
  C  C50  1  0.00000000  0.50000000  0.32324000  1
  C  C51  1  0.50000000  0.00000000  0.67676000  1
  C  C52  1  0.00000000  0.50000000  0.67676000  1
  C  C53  1  0.00000000  0.50000000  0.82324000  1
  C  C54  1  0.50000000  0.00000000  0.82324000  1
  C  C55  1  0.00000000  0.50000000  0.17676000  1
  C  C56  1  0.50000000  0.00000000  0.17676000  1
  C  C57  1  0.50000000  0.00000000  0.39564200  1
  C  C58  1  0.00000000  0.50000000  0.39564200  1
  C  C59  1  0.50000000  0.00000000  0.60435800  1
  C  C60  1  0.00000000  0.50000000  0.60435800  1
  C  C61  1  0.00000000  0.50000000  0.89564200  1
  C  C62  1  0.50000000  0.00000000  0.89564200  1
  C  C63  1  0.00000000  0.50000000  0.10435800  1
  C  C64  1  0.50000000  0.00000000  0.10435800  1
  C  C65  1  0.50000000  0.00000000  0.21506200  1
  C  C66  1  0.00000000  0.50000000  0.21506200  1
  C  C67  1  0.50000000  0.00000000  0.78493800  1
  C  C68  1  0.00000000  0.50000000  0.78493800  1
  C  C69  1  0.00000000  0.50000000  0.71506200  1
  C  C70  1  0.50000000  0.00000000  0.71506200  1
  C  C71  1  0.00000000  0.50000000  0.28493800  1
  C  C72  1  0.50000000  0.00000000  0.28493800  1
  C  C73  1  0.42967600  0.18608900  0.45090100  1
  C  C74  1  0.81391100  0.42967600  0.45090100  1
  C  C75  1  0.57032400  0.81391100  0.45090100  1
  C  C76  1  0.18608900  0.57032400  0.45090100  1
  C  C77  1  0.42967600  0.81391100  0.54909900  1
  C  C78  1  0.81391100  0.57032400  0.54909900  1
  C  C79  1  0.57032400  0.18608900  0.54909900  1
  C  C80  1  0.18608900  0.42967600  0.54909900  1
  C  C81  1  0.92967600  0.68608900  0.95090100  1
  C  C82  1  0.31391100  0.92967600  0.95090100  1
  C  C83  1  0.07032400  0.31391100  0.95090100  1
  C  C84  1  0.68608900  0.07032400  0.95090100  1
  C  C85  1  0.92967600  0.31391100  0.04909900  1
  C  C86  1  0.31391100  0.07032400  0.04909900  1
  C  C87  1  0.07032400  0.68608900  0.04909900  1
  C  C88  1  0.68608900  0.92967600  0.04909900  1
  C  C89  1  0.39334700  0.21761400  0.42732600  1
  C  C90  1  0.78238600  0.39334700  0.42732600  1
  C  C91  1  0.60665300  0.78238600  0.42732600  1
  C  C92  1  0.21761400  0.60665300  0.42732600  1
  C  C93  1  0.39334700  0.78238600  0.57267400  1
  C  C94  1  0.78238600  0.60665300  0.57267400  1
  C  C95  1  0.60665300  0.21761400  0.57267400  1
  C  C96  1  0.21761400  0.39334700  0.57267400  1
  C  C97  1  0.89334700  0.71761400  0.92732600  1
  C  C98  1  0.28238600  0.89334700  0.92732600  1
  C  C99  1  0.10665300  0.28238600  0.92732600  1
  C  C100  1  0.71761400  0.10665300  0.92732600  1
  C  C101  1  0.89334700  0.28238600  0.07267400  1
  C  C102  1  0.28238600  0.10665300  0.07267400  1
  C  C103  1  0.10665300  0.71761400  0.07267400  1
  C  C104  1  0.71761400  0.89334700  0.07267400  1
  C  C105  1  0.38907600  0.28107100  0.42931500  1
  C  C106  1  0.71892900  0.38907600  0.42931500  1
  C  C107  1  0.61092400  0.71892900  0.42931500  1
  C  C108  1  0.28107100  0.61092400  0.42931500  1
  C  C109  1  0.38907600  0.71892900  0.57068500  1
  C  C110  1  0.71892900  0.61092400  0.57068500  1
  C  C111  1  0.61092400  0.28107100  0.57068500  1
  C  C112  1  0.28107100  0.38907600  0.57068500  1
  C  C113  1  0.88907600  0.78107100  0.92931500  1
  C  C114  1  0.21892900  0.88907600  0.92931500  1
  C  C115  1  0.11092400  0.21892900  0.92931500  1
  C  C116  1  0.78107100  0.11092400  0.92931500  1
  C  C117  1  0.88907600  0.21892900  0.07068500  1
  C  C118  1  0.21892900  0.11092400  0.07068500  1
  C  C119  1  0.11092400  0.78107100  0.07068500  1
  C  C120  1  0.78107100  0.88907600  0.07068500  1
  C  C121  1  0.42344200  0.31311600  0.45359200  1
  C  C122  1  0.68688400  0.42344200  0.45359200  1
  C  C123  1  0.57655800  0.68688400  0.45359200  1
  C  C124  1  0.31311600  0.57655800  0.45359200  1
  C  C125  1  0.42344200  0.68688400  0.54640800  1
  C  C126  1  0.68688400  0.57655800  0.54640800  1
  C  C127  1  0.57655800  0.31311600  0.54640800  1
  C  C128  1  0.31311600  0.42344200  0.54640800  1
  C  C129  1  0.92344200  0.81311600  0.95359200  1
  C  C130  1  0.18688400  0.92344200  0.95359200  1
  C  C131  1  0.07655800  0.18688400  0.95359200  1
  C  C132  1  0.81311600  0.07655800  0.95359200  1
  C  C133  1  0.92344200  0.18688400  0.04640800  1
  C  C134  1  0.18688400  0.07655800  0.04640800  1
  C  C135  1  0.07655800  0.81311600  0.04640800  1
  C  C136  1  0.81311600  0.92344200  0.04640800  1
  C  C137  1  0.46290200  0.28201300  0.47641400  1
  C  C138  1  0.71798700  0.46290200  0.47641400  1
  C  C139  1  0.53709800  0.71798700  0.47641400  1
  C  C140  1  0.28201300  0.53709800  0.47641400  1
  C  C141  1  0.46290200  0.71798700  0.52358600  1
  C  C142  1  0.71798700  0.53709800  0.52358600  1
  C  C143  1  0.53709800  0.28201300  0.52358600  1
  C  C144  1  0.28201300  0.46290200  0.52358600  1
  C  C145  1  0.96290200  0.78201300  0.97641400  1
  C  C146  1  0.21798700  0.96290200  0.97641400  1
  C  C147  1  0.03709800  0.21798700  0.97641400  1
  C  C148  1  0.78201300  0.03709800  0.97641400  1
  C  C149  1  0.96290200  0.21798700  0.02358600  1
  C  C150  1  0.21798700  0.03709800  0.02358600  1
  C  C151  1  0.03709800  0.78201300  0.02358600  1
  C  C152  1  0.78201300  0.96290200  0.02358600  1
  C  C153  1  0.46412200  0.21774800  0.47589600  1
  C  C154  1  0.78225200  0.46412200  0.47589600  1
  C  C155  1  0.53587800  0.78225200  0.47589600  1
  C  C156  1  0.21774800  0.53587800  0.47589600  1
  C  C157  1  0.46412200  0.78225200  0.52410400  1
  C  C158  1  0.78225200  0.53587800  0.52410400  1
  C  C159  1  0.53587800  0.21774800  0.52410400  1
  C  C160  1  0.21774800  0.46412200  0.52410400  1
  C  C161  1  0.96412200  0.71774800  0.97589600  1
  C  C162  1  0.28225200  0.96412300  0.97589600  1
  C  C163  1  0.03587800  0.28225200  0.97589600  1
  C  C164  1  0.71774800  0.03587800  0.97589600  1
  C  C165  1  0.96412200  0.28225200  0.02410400  1
  C  C166  1  0.28225200  0.03587800  0.02410400  1
  C  C167  1  0.03587800  0.71774800  0.02410400  1
  C  C168  1  0.71774800  0.96412300  0.02410400  1
  C  C169  1  0.50000000  0.31438600  0.50000000  1
  C  C170  1  0.68561400  0.50000000  0.50000000  1
  C  C171  1  0.50000000  0.68561400  0.50000000  1
  C  C172  1  0.31438600  0.50000000  0.50000000  1
  C  C173  1  0.00000000  0.81438600  0.00000000  1
  C  C174  1  0.18561400  0.00000000  0.00000000  1
  C  C175  1  0.00000000  0.18561400  0.00000000  1
  C  C176  1  0.81438600  0.00000000  0.00000000  1
  C  C177  1  0.50000000  0.18554800  0.50000000  1
  C  C178  1  0.81445200  0.50000000  0.50000000  1
  C  C179  1  0.50000000  0.81445200  0.50000000  1
  C  C180  1  0.18554800  0.50000000  0.50000000  1
  C  C181  1  0.00000000  0.68554800  0.00000000  1
  C  C182  1  0.31445200  0.00000000  0.00000000  1
  C  C183  1  0.00000000  0.31445200  0.00000000  1
  C  C184  1  0.68554800  0.00000000  0.00000000  1
  C  C185  1  0.61745600  0.50000000  0.50000000  1
  C  C186  1  0.50000000  0.61745600  0.50000000  1
  C  C187  1  0.38254400  0.50000000  0.50000000  1
  C  C188  1  0.50000000  0.38254400  0.50000000  1
  C  C189  1  0.11745600  0.00000000  0.00000000  1
  C  C190  1  0.00000000  0.11745600  0.00000000  1
  C  C191  1  0.88254400  0.00000000  0.00000000  1
  C  C192  1  0.00000000  0.88254400  0.00000000  1
  C  C193  1  0.64309000  0.18294900  0.59833100  1
  C  C194  1  0.63505100  0.19244400  0.63382000  1
  C  C195  1  0.66959900  0.15871900  0.65745600  1
  C  C196  1  0.71185800  0.11537600  0.64589700  1
  C  C197  1  0.71941200  0.10536200  0.61061400  1
  C  C198  1  0.68496600  0.13891900  0.58689200  1
  C  C199  1  0.81705100  0.64309000  0.59833100  1
  C  C200  1  0.80755600  0.63505100  0.63382000  1
  C  C201  1  0.84128100  0.66959900  0.65745600  1
  C  C202  1  0.88462400  0.71185800  0.64589700  1
  C  C203  1  0.89463800  0.71941200  0.61061400  1
  C  C204  1  0.86108000  0.68496600  0.58689200  1
  C  C205  1  0.35691000  0.81705100  0.59833100  1
  C  C206  1  0.36494900  0.80755600  0.63382000  1
  C  C207  1  0.33040100  0.84128100  0.65745600  1
  C  C208  1  0.28814200  0.88462400  0.64589700  1
  C  C209  1  0.28058800  0.89463800  0.61061400  1
  C  C210  1  0.31503400  0.86108100  0.58689200  1
  C  C211  1  0.18294900  0.35691000  0.59833100  1
  C  C212  1  0.19244400  0.36494900  0.63382000  1
  C  C213  1  0.15871900  0.33040100  0.65745600  1
  C  C214  1  0.11537600  0.28814200  0.64589700  1
  C  C215  1  0.10536200  0.28058800  0.61061400  1
  C  C216  1  0.13891900  0.31503400  0.58689200  1
  C  C217  1  0.64309000  0.81705100  0.40166900  1
  C  C218  1  0.63505100  0.80755600  0.36618000  1
  C  C219  1  0.66959900  0.84128100  0.34254400  1
  C  C220  1  0.71185800  0.88462400  0.35410300  1
  C  C221  1  0.71941200  0.89463800  0.38938600  1
  C  C222  1  0.68496600  0.86108000  0.41310800  1
  C  C223  1  0.81705100  0.35691000  0.40166900  1
  C  C224  1  0.80755600  0.36494900  0.36618000  1
  C  C225  1  0.84128100  0.33040100  0.34254400  1
  C  C226  1  0.88462400  0.28814200  0.35410300  1
  C  C227  1  0.89463800  0.28058800  0.38938600  1
  C  C228  1  0.86108100  0.31503400  0.41310800  1
  C  C229  1  0.35691000  0.18294900  0.40166900  1
  C  C230  1  0.36494900  0.19244400  0.36618000  1
  C  C231  1  0.33040100  0.15871900  0.34254400  1
  C  C232  1  0.28814200  0.11537600  0.35410300  1
  C  C233  1  0.28058800  0.10536200  0.38938600  1
  C  C234  1  0.31503400  0.13891900  0.41310800  1
  C  C235  1  0.18294900  0.64309000  0.40166900  1
  C  C236  1  0.19244400  0.63505100  0.36618000  1
  C  C237  1  0.15871900  0.66959900  0.34254400  1
  C  C238  1  0.11537600  0.71185800  0.35410300  1
  C  C239  1  0.10536200  0.71941200  0.38938600  1
  C  C240  1  0.13891900  0.68496600  0.41310800  1
  C  C241  1  0.14309000  0.68294900  0.09833100  1
  C  C242  1  0.13505100  0.69244400  0.13382000  1
  C  C243  1  0.16959900  0.65871900  0.15745600  1
  C  C244  1  0.21185800  0.61537600  0.14589700  1
  C  C245  1  0.21941200  0.60536200  0.11061400  1
  C  C246  1  0.18496600  0.63891900  0.08689200  1
  C  C247  1  0.31705100  0.14309000  0.09833100  1
  C  C248  1  0.30755600  0.13505100  0.13382000  1
  C  C249  1  0.34128100  0.16959900  0.15745600  1
  C  C250  1  0.38462400  0.21185800  0.14589700  1
  C  C251  1  0.39463800  0.21941200  0.11061400  1
  C  C252  1  0.36108100  0.18496600  0.08689200  1
  C  C253  1  0.85691000  0.31705100  0.09833100  1
  C  C254  1  0.86494900  0.30755600  0.13382000  1
  C  C255  1  0.83040100  0.34128100  0.15745600  1
  C  C256  1  0.78814200  0.38462400  0.14589700  1
  C  C257  1  0.78058800  0.39463800  0.11061400  1
  C  C258  1  0.81503400  0.36108100  0.08689200  1
  C  C259  1  0.68294900  0.85691000  0.09833100  1
  C  C260  1  0.69244400  0.86494900  0.13382000  1
  C  C261  1  0.65871900  0.83040100  0.15745600  1
  C  C262  1  0.61537600  0.78814200  0.14589700  1
  C  C263  1  0.60536200  0.78058800  0.11061400  1
  C  C264  1  0.63892000  0.81503400  0.08689200  1
  C  C265  1  0.14309000  0.31705100  0.90166900  1
  C  C266  1  0.13505100  0.30755600  0.86618000  1
  C  C267  1  0.16959900  0.34128100  0.84254400  1
  C  C268  1  0.21185800  0.38462400  0.85410300  1
  C  C269  1  0.21941200  0.39463800  0.88938600  1
  C  C270  1  0.18496600  0.36108100  0.91310800  1
  C  C271  1  0.31705100  0.85691000  0.90166900  1
  C  C272  1  0.30755600  0.86494900  0.86618000  1
  C  C273  1  0.34128100  0.83040100  0.84254400  1
  C  C274  1  0.38462400  0.78814200  0.85410300  1
  C  C275  1  0.39463800  0.78058800  0.88938600  1
  C  C276  1  0.36108100  0.81503400  0.91310800  1
  C  C277  1  0.85691000  0.68294900  0.90166900  1
  C  C278  1  0.86494900  0.69244400  0.86618000  1
  C  C279  1  0.83040100  0.65871900  0.84254400  1
  C  C280  1  0.78814200  0.61537600  0.85410300  1
  C  C281  1  0.78058800  0.60536200  0.88938600  1
  C  C282  1  0.81503400  0.63892000  0.91310800  1
  C  C283  1  0.68294900  0.14309000  0.90166900  1
  C  C284  1  0.69244400  0.13505100  0.86618000  1
  C  C285  1  0.65871900  0.16959900  0.84254400  1
  C  C286  1  0.61537600  0.21185800  0.85410300  1
  C  C287  1  0.60536200  0.21941200  0.88938600  1
  C  C288  1  0.63892000  0.18496600  0.91310800  1
  N  N1  1  0.53821800  0.96192000  0.26726500  1
  N  N2  1  0.03808000  0.53821800  0.26726500  1
  N  N3  1  0.46178200  0.03808000  0.26726500  1
  N  N4  1  0.96192100  0.46178200  0.26726500  1
  N  N5  1  0.53821800  0.03808000  0.73273500  1
  N  N6  1  0.03808000  0.46178200  0.73273500  1
  N  N7  1  0.46178200  0.96192000  0.73273500  1
  N  N8  1  0.96192000  0.53821800  0.73273500  1
  N  N9  1  0.03821800  0.46192100  0.76726500  1
  N  N10  1  0.53808000  0.03821800  0.76726500  1
  N  N11  1  0.96178200  0.53808000  0.76726500  1
  N  N12  1  0.46192000  0.96178200  0.76726500  1
  N  N13  1  0.03821800  0.53808000  0.23273500  1
  N  N14  1  0.53808000  0.96178200  0.23273500  1
  N  N15  1  0.96178200  0.46192000  0.23273500  1
  N  N16  1  0.46192100  0.03821800  0.23273500  1
  Cl  Cl1  1  0.57840200  0.24368600  0.64955900  1
  Cl  Cl2  1  0.75631400  0.57840200  0.64955900  1
  Cl  Cl3  1  0.42159800  0.75631400  0.64955900  1
  Cl  Cl4  1  0.24368600  0.42159800  0.64955900  1
  Cl  Cl5  1  0.57840200  0.75631400  0.35044100  1
  Cl  Cl6  1  0.75631400  0.42159800  0.35044100  1
  Cl  Cl7  1  0.42159800  0.24368600  0.35044100  1
  Cl  Cl8  1  0.24368600  0.57840200  0.35044100  1
  Cl  Cl9  1  0.07840200  0.74368600  0.14955900  1
  Cl  Cl10  1  0.25631400  0.07840200  0.14955900  1
  Cl  Cl11  1  0.92159800  0.25631400  0.14955900  1
  Cl  Cl12  1  0.74368600  0.92159800  0.14955900  1
  Cl  Cl13  1  0.07840200  0.25631400  0.85044100  1
  Cl  Cl14  1  0.25631400  0.92159800  0.85044100  1
  Cl  Cl15  1  0.92159800  0.74368600  0.85044100  1
  Cl  Cl16  1  0.74368600  0.07840200  0.85044100  1
  O  O1  1  0.55117900  0.08842900  0.49038800  1
  O  O2  1  0.91157100  0.55117900  0.49038800  1
  O  O3  1  0.44882000  0.91157100  0.49038800  1
  O  O4  1  0.08842900  0.44882100  0.49038800  1
  O  O5  1  0.55117900  0.91157100  0.50961200  1
  O  O6  1  0.91157100  0.44882000  0.50961200  1
  O  O7  1  0.44882100  0.08842900  0.50961200  1
  O  O8  1  0.08842900  0.55117900  0.50961200  1
  O  O9  1  0.05117900  0.58842900  0.99038800  1
  O  O10  1  0.41157100  0.05117900  0.99038800  1
  O  O11  1  0.94882100  0.41157100  0.99038800  1
  O  O12  1  0.58842900  0.94882100  0.99038800  1
  O  O13  1  0.05117900  0.41157100  0.00961200  1
  O  O14  1  0.41157100  0.94882100  0.00961200  1
  O  O15  1  0.94882100  0.58842900  0.00961200  1
  O  O16  1  0.58842900  0.05117900  0.00961200  1
  O  O17  1  0.55107700  0.98272000  0.45029300  1
  O  O18  1  0.01727900  0.55107700  0.45029300  1
  O  O19  1  0.44892300  0.01727900  0.45029300  1
  O  O20  1  0.98272000  0.44892300  0.45029300  1
  O  O21  1  0.55107700  0.01727900  0.54970700  1
  O  O22  1  0.01727900  0.44892300  0.54970700  1
  O  O23  1  0.44892300  0.98272000  0.54970700  1
  O  O24  1  0.98272000  0.55107700  0.54970700  1
  O  O25  1  0.05107700  0.48272000  0.95029300  1
  O  O26  1  0.51728000  0.05107700  0.95029300  1
  O  O27  1  0.94892300  0.51728000  0.95029300  1
  O  O28  1  0.48272100  0.94892300  0.95029300  1
  O  O29  1  0.05107700  0.51728000  0.04970700  1
  O  O30  1  0.51728000  0.94892300  0.04970700  1
  O  O31  1  0.94892300  0.48272100  0.04970700  1
  O  O32  1  0.48272100  0.05107700  0.04970700  1
  O  O33  1  0.58832900  0.48273000  0.52882500  1
  O  O34  1  0.51727000  0.58832900  0.52882500  1
  O  O35  1  0.41167100  0.51727000  0.52882500  1
  O  O36  1  0.48273000  0.41167100  0.52882500  1
  O  O37  1  0.58832900  0.51727000  0.47117500  1
  O  O38  1  0.51727000  0.41167100  0.47117500  1
  O  O39  1  0.41167100  0.48273000  0.47117500  1
  O  O40  1  0.48273000  0.58832900  0.47117500  1
  O  O41  1  0.08832900  0.98273000  0.02882500  1
  O  O42  1  0.01727000  0.08832900  0.02882500  1
  O  O43  1  0.91167100  0.01727000  0.02882500  1
  O  O44  1  0.98273000  0.91167100  0.02882500  1
  O  O45  1  0.08832900  0.01727000  0.97117500  1
  O  O46  1  0.01727000  0.91167100  0.97117500  1
  O  O47  1  0.91167100  0.98273000  0.97117500  1
  O  O48  1  0.98273000  0.08832900  0.97117500  1
