# generated using pymatgen
data_Fe2H12C39(NO9)2
_symmetry_space_group_name_H-M   'P 1'
_cell_length_a   15.95447300
_cell_length_b   9.35255200
_cell_length_c   15.43496800
_cell_angle_alpha   87.60806500
_cell_angle_beta   85.49056700
_cell_angle_gamma   108.75200200
_symmetry_Int_Tables_number   1
_chemical_formula_structural   Fe2H12C39(NO9)2
_chemical_formula_sum   'Fe2 H12 C39 N2 O18'
_cell_volume   2168.64088875
_cell_formula_units_Z   1
loop_
 _symmetry_equiv_pos_site_id
 _symmetry_equiv_pos_as_xyz
  1  'x, y, z'
loop_
 _atom_site_type_symbol
 _atom_site_label
 _atom_site_symmetry_multiplicity
 _atom_site_fract_x
 _atom_site_fract_y
 _atom_site_fract_z
 _atom_site_occupancy
  Fe  Fe1  1  0.52254000  0.99532000  0.14234600  1
  Fe  Fe2  1  0.51438200  0.99761500  0.79405700  1
  H  H1  1  0.94533500  0.01151600  0.82465400  1
  H  H2  1  0.18670400  0.92293800  0.84859800  1
  H  H3  1  0.04505400  0.94075000  0.87178100  1
  H  H4  1  0.23615300  0.03011500  0.15221900  1
  H  H5  1  0.08965200  0.04156700  0.17672200  1
  H  H6  1  0.94789800  0.06368200  0.20199100  1
  H  H7  1  0.80847400  0.05828000  0.15501200  1
  H  H8  1  0.45334800  0.11891900  0.56726200  1
  H  H9  1  0.48535500  0.51530400  0.76168900  1
  H  H10  1  0.50533900  0.43815000  0.17400900  1
  H  H11  1  0.51353900  0.73165700  0.51271700  1
  H  H12  1  0.48963200  0.70515400  0.38459200  1
  C  C1  1  0.89294700  0.00511600  0.87431400  1
  C  C2  1  0.27961400  0.95384800  0.94509300  1
  C  C3  1  0.19795800  0.94353400  0.91571700  1
  C  C4  1  0.13161700  0.96828100  0.97004600  1
  C  C5  1  0.05287400  0.96814100  0.93825900  1
  C  C6  1  0.98654300  0.99780300  0.99178400  1
  C  C7  1  0.81202600  0.00199400  0.84682900  1
  C  C8  1  0.74152900  0.99253400  0.90782600  1
  C  C9  1  0.90619100  0.00262100  0.96228100  1
  C  C10  1  0.83803200  0.00906700  0.02222900  1
  C  C11  1  0.75428300  0.99460700  0.99569100  1
  C  C12  1  0.29232500  0.98352100  0.03157000  1
  C  C13  1  0.22482100  0.00369200  0.08573800  1
  C  C14  1  0.14510600  0.99695800  0.05509300  1
  C  C15  1  0.07928600  0.02098900  0.10937600  1
  C  C16  1  0.00037200  0.01957700  0.07838200  1
  C  C17  1  0.93598400  0.04250100  0.13500200  1
  C  C18  1  0.85518100  0.03535100  0.10788000  1
  C  C19  1  0.67799400  0.97545200  0.06036000  1
  C  C20  1  0.49867300  0.70867200  0.21326000  1
  C  C21  1  0.37843100  0.01452100  0.06583400  1
  C  C22  1  0.49595400  0.18957800  0.26384100  1
  C  C23  1  0.50966000  0.78017200  0.67623000  1
  C  C24  1  0.65281800  0.97329700  0.88042000  1
  C  C25  1  0.48248400  0.24439900  0.71835100  1
  C  C26  1  0.35200900  0.94794200  0.88109900  1
  C  C27  1  0.48469400  0.50547000  0.69225100  1
  C  C28  1  0.49581500  0.63337400  0.63914600  1
  C  C29  1  0.50098800  0.62647700  0.55026700  1
  C  C30  1  0.48179100  0.37028100  0.65703700  1
  C  C31  1  0.48089800  0.36096200  0.56665100  1
  C  C32  1  0.48993700  0.48972000  0.51270900  1
  C  C33  1  0.48983000  0.47868800  0.42217500  1
  C  C34  1  0.49296800  0.59899900  0.36363700  1
  C  C35  1  0.49675200  0.58362800  0.27476000  1
  C  C36  1  0.46890400  0.22448500  0.52913900  1
  C  C37  1  0.48564100  0.34182300  0.38880900  1
  C  C38  1  0.49366300  0.32968800  0.30001400  1
  C  C39  1  0.50037000  0.45053800  0.24330300  1
  N  N1  1  0.47408600  0.21899600  0.44233900  1
  N  N2  1  0.80153700  0.99983200  0.75554300  1
  O  O1  1  0.61864600  0.04139100  0.04593400  1
  O  O2  1  0.49315900  0.68733600  0.13010900  1
  O  O3  1  0.66739500  0.88758000  0.13157400  1
  O  O4  1  0.51138100  0.84449500  0.24016300  1
  O  O5  1  0.40741600  0.90410600  0.09041100  1
  O  O6  1  0.42301500  0.15428600  0.08047700  1
  O  O7  1  0.54851400  0.19745400  0.19278200  1
  O  O8  1  0.43950300  0.05889200  0.29588700  1
  O  O9  1  0.46842800  0.78886000  0.75193900  1
  O  O10  1  0.56641400  0.90287400  0.63507200  1
  O  O11  1  0.63934300  0.07573500  0.82740500  1
  O  O12  1  0.58674300  0.84960300  0.90659700  1
  O  O13  1  0.33672700  0.93069800  0.79923600  1
  O  O14  1  0.51974500  0.14297100  0.69501500  1
  O  O15  1  0.43391300  0.97637000  0.90164900  1
  O  O16  1  0.45509300  0.24481000  0.80066700  1
  O  O17  1  0.87065400  0.05988500  0.69949400  1
  O  O18  1  0.72800100  0.91570600  0.72787500  1
