# generated using pymatgen
data_ZnH10C23NO8
_symmetry_space_group_name_H-M   'P 1'
_cell_length_a   11.80557200
_cell_length_b   13.12221200
_cell_length_c   15.07109200
_cell_angle_alpha   89.99885000
_cell_angle_beta   85.93256800
_cell_angle_gamma   91.18005900
_symmetry_Int_Tables_number   1
_chemical_formula_structural   ZnH10C23NO8
_chemical_formula_sum   'Zn2 H20 C46 N2 O16'
_cell_volume   2328.36441847
_cell_formula_units_Z   2
loop_
 _symmetry_equiv_pos_site_id
 _symmetry_equiv_pos_as_xyz
  1  'x, y, z'
loop_
 _atom_site_type_symbol
 _atom_site_label
 _atom_site_symmetry_multiplicity
 _atom_site_fract_x
 _atom_site_fract_y
 _atom_site_fract_z
 _atom_site_occupancy
  Zn  Zn1  1  0.37195500  0.51261100  0.51128500  1
  Zn  Zn2  1  0.62804500  0.48738900  0.48871400  1
  H  H1  1  0.48872800  0.65725700  0.22203700  1
  H  H2  1  0.51127200  0.34274300  0.77796200  1
  H  H3  1  0.50527600  0.75058400  0.08682900  1
  H  H4  1  0.49472400  0.24941500  0.91317200  1
  H  H5  1  0.52036300  0.75774500  0.92791600  1
  H  H6  1  0.47963800  0.24225600  0.07208600  1
  H  H7  1  0.67937200  0.99303100  0.60644500  1
  H  H8  1  0.32062800  0.00696800  0.39355500  1
  H  H9  1  0.19549800  0.43972200  0.41123600  1
  H  H10  1  0.80450200  0.56027800  0.58876400  1
  H  H11  1  0.02278700  0.38533800  0.35014800  1
  H  H12  1  0.97721300  0.61466200  0.64985200  1
  H  H13  1  0.44935200  0.30176000  0.29903700  1
  H  H14  1  0.55064800  0.69824000  0.70096300  1
  H  H15  1  0.58762300  0.23098600  0.64861600  1
  H  H16  1  0.41237800  0.76901400  0.35138400  1
  H  H17  1  0.26610400  0.17757700  0.34620000  1
  H  H18  1  0.73389600  0.82242300  0.65380000  1
  H  H19  1  0.14595200  0.65721500  0.72212100  1
  H  H20  1  0.85404800  0.34278400  0.27787900  1
  C  C1  1  0.53030500  0.69909400  0.49512200  1
  C  C2  1  0.46969500  0.30090600  0.50487800  1
  C  C3  1  0.50942300  0.50247700  0.67293100  1
  C  C4  1  0.49057700  0.49752300  0.32706900  1
  C  C5  1  0.49146900  0.40449100  0.18383000  1
  C  C6  1  0.50853100  0.59550900  0.81617000  1
  C  C7  1  0.48627600  0.49563300  0.23028700  1
  C  C8  1  0.51372400  0.50436700  0.76971300  1
  C  C9  1  0.48874600  0.58667400  0.18512400  1
  C  C10  1  0.51125400  0.41332600  0.81487600  1
  C  C11  1  0.49590300  0.58816100  0.09362300  1
  C  C12  1  0.50409700  0.41183900  0.90637600  1
  C  C13  1  0.49747300  0.49839100  0.04613600  1
  C  C14  1  0.50252700  0.50160900  0.95386400  1
  C  C15  1  0.49389600  0.40573800  0.09088200  1
  C  C16  1  0.50610400  0.59426200  0.90911800  1
  C  C17  1  0.50343100  0.68014400  0.04972100  1
  C  C18  1  0.49656900  0.31985500  0.95027900  1
  C  C19  1  0.51007600  0.68356200  0.95835500  1
  C  C20  1  0.48992400  0.31643800  0.04164500  1
  C  C21  1  0.45636300  0.18807600  0.50357100  1
  C  C22  1  0.54363800  0.81192400  0.49642900  1
  C  C23  1  0.61813800  0.96250600  0.56340600  1
  C  C24  1  0.38186200  0.03749400  0.43659400  1
  C  C25  1  0.62425000  0.85981600  0.54610000  1
  C  C26  1  0.37575000  0.14018400  0.45390000  1
  C  C27  1  0.46261100  0.87161800  0.45937900  1
  C  C28  1  0.53738900  0.12838200  0.54062100  1
  C  C29  1  0.46106700  0.97707700  0.47374900  1
  C  C30  1  0.53893300  0.02292300  0.52625100  1
  C  C31  1  0.97491600  0.42447100  0.40312100  1
  C  C32  1  0.02508400  0.57552900  0.59687900  1
  C  C33  1  0.85759200  0.42017400  0.40782600  1
  C  C34  1  0.14240900  0.57982600  0.59217400  1
  C  C35  1  0.85204000  0.52020700  0.53640200  1
  C  C36  1  0.14796000  0.47979300  0.46359800  1
  C  C37  1  0.96906800  0.52364900  0.53352800  1
  C  C38  1  0.03093200  0.47635100  0.46647200  1
  C  C39  1  0.49670800  0.30938600  0.23516100  1
  C  C40  1  0.50329200  0.69061400  0.76483800  1
  C  C41  1  0.61842800  0.17805600  0.59766500  1
  C  C42  1  0.38157200  0.82194400  0.40233500  1
  C  C43  1  0.28393000  0.19396900  0.41439000  1
  C  C44  1  0.71607000  0.80603000  0.58561000  1
  C  C45  1  0.19516000  0.63999400  0.66067800  1
  C  C46  1  0.80484000  0.36000500  0.33932200  1
  N  N1  1  0.20344000  0.53051900  0.52592000  1
  N  N2  1  0.79656000  0.46948100  0.47408000  1
  O  O1  1  0.42675800  0.65992200  0.50467500  1
  O  O2  1  0.57324300  0.34007800  0.49532400  1
  O  O3  1  0.62045000  0.64161500  0.48825700  1
  O  O4  1  0.37955000  0.35838500  0.51174200  1
  O  O5  1  0.41007000  0.51036300  0.64022600  1
  O  O6  1  0.58993100  0.48963700  0.35977300  1
  O  O7  1  0.60440100  0.49277200  0.62317300  1
  O  O8  1  0.39559900  0.50722800  0.37682700  1
  O  O9  1  0.56296800  0.24292400  0.21155500  1
  O  O10  1  0.43703200  0.75707500  0.78844500  1
  O  O11  1  0.72060800  0.17084400  0.58101700  1
  O  O12  1  0.27939200  0.82915600  0.41898300  1
  O  O13  1  0.21490400  0.24108800  0.46130100  1
  O  O14  1  0.78509600  0.75891200  0.53869900  1
  O  O15  1  0.28813500  0.68040600  0.64612800  1
  O  O16  1  0.71186500  0.31959300  0.35387200  1
