# generated using pymatgen
data_CuH18C27(NO3)2
_symmetry_space_group_name_H-M   'P 1'
_cell_length_a   23.29528000
_cell_length_b   10.82207300
_cell_length_c   9.41107200
_cell_angle_alpha   89.98648000
_cell_angle_beta   89.98878500
_cell_angle_gamma   90.01236000
_symmetry_Int_Tables_number   1
_chemical_formula_structural   CuH18C27(NO3)2
_chemical_formula_sum   'Cu2 H36 C54 N4 O12'
_cell_volume   2372.56139485
_cell_formula_units_Z   2
loop_
 _symmetry_equiv_pos_site_id
 _symmetry_equiv_pos_as_xyz
  1  'x, y, z'
loop_
 _atom_site_type_symbol
 _atom_site_label
 _atom_site_symmetry_multiplicity
 _atom_site_fract_x
 _atom_site_fract_y
 _atom_site_fract_z
 _atom_site_occupancy
  Cu  Cu1  1  0.50387100  0.49400200  0.65155200  1
  Cu  Cu2  1  0.50163900  0.49817300  0.37219100  1
  H  H1  1  0.94877500  0.21423100  0.64903400  1
  H  H2  1  0.05229100  0.21423300  0.65982600  1
  H  H3  1  0.05688900  0.78610400  0.39722400  1
  H  H4  1  0.95323000  0.78659100  0.38782700  1
  H  H5  1  0.22257000  0.65499200  0.66134400  1
  H  H6  1  0.32710200  0.64776500  0.65268100  1
  H  H7  1  0.21401000  0.33157300  0.40494900  1
  H  H8  1  0.78647900  0.45900800  0.72902500  1
  H  H9  1  0.68251500  0.45501300  0.72786300  1
  H  H10  1  0.68278200  0.54352500  0.28434500  1
  H  H11  1  0.78739800  0.54380600  0.28608100  1
  H  H12  1  0.49643200  0.10593700  0.29055300  1
  H  H13  1  0.55695500  0.20770300  0.76237500  1
  H  H14  1  0.54745400  0.10742000  0.98954800  1
  H  H15  1  0.50237600  0.90288000  0.00658100  1
  H  H16  1  0.47299700  0.79529400  0.79593600  1
  H  H17  1  0.49091300  0.88300400  0.29571100  1
  H  H18  1  0.44301400  0.35739500  0.14155000  1
  H  H19  1  0.56263600  0.69983400  0.26101800  1
  H  H20  1  0.62902600  0.81758900  0.14372900  1
  H  H21  1  0.59563700  0.63083700  0.76361200  1
  H  H22  1  0.44299900  0.35716100  0.88191700  1
  H  H23  1  0.76834200  0.88651900  0.80261500  1
  H  H24  1  0.71570800  0.00351200  0.75785000  1
  H  H25  1  0.76247800  0.02491000  0.90907800  1
  H  H26  1  0.66519400  0.96424900  0.98481300  1
  H  H27  1  0.71796900  0.84613700  0.02921000  1
  H  H28  1  0.69121400  0.73096300  0.80984700  1
  H  H29  1  0.63848000  0.84688700  0.76819000  1
  H  H30  1  0.38745800  0.16523700  0.18511100  1
  H  H31  1  0.31617100  0.09893600  0.18357800  1
  H  H32  1  0.34033800  0.19164500  0.03542300  1
  H  H33  1  0.27290500  0.30565500  0.19311100  1
  H  H34  1  0.34255000  0.37770500  0.18616500  1
  H  H35  1  0.36942200  0.26925200  0.41388300  1
  H  H36  1  0.30014000  0.20111400  0.41918100  1
  C  C1  1  0.50759900  0.26116700  0.51032500  1
  C  C2  1  0.39371500  0.48833400  0.51872100  1
  C  C3  1  0.49771600  0.73157600  0.51959800  1
  C  C4  1  0.61201600  0.49694200  0.50649900  1
  C  C5  1  0.88480000  0.60128100  0.46635500  1
  C  C6  1  0.88341100  0.39941000  0.55689000  1
  C  C7  1  0.94268700  0.39827700  0.56399200  1
  C  C8  1  0.97319300  0.50039900  0.52052700  1
  C  C9  1  0.94420600  0.60243600  0.47084600  1
  C  C10  1  0.97163500  0.29562400  0.61405200  1
  C  C11  1  0.03071500  0.29570200  0.62044300  1
  C  C12  1  0.06129300  0.39816900  0.57606200  1
  C  C13  1  0.03239600  0.50031300  0.52645300  1
  C  C14  1  0.06300200  0.60214100  0.48236500  1
  C  C15  1  0.03399400  0.70487000  0.43255800  1
  C  C16  1  0.97483200  0.70513400  0.42716300  1
  C  C17  1  0.12061600  0.39895700  0.58028900  1
  C  C18  1  0.12240100  0.59970000  0.48655800  1
  C  C19  1  0.24355500  0.58241500  0.60193700  1
  C  C20  1  0.30268200  0.57724600  0.59827600  1
  C  C21  1  0.33066900  0.48542400  0.52305600  1
  C  C22  1  0.29830500  0.39501000  0.45416500  1
  C  C23  1  0.23911300  0.40126300  0.45886900  1
  C  C24  1  0.21151400  0.49455100  0.53156700  1
  C  C25  1  0.76391300  0.47629400  0.63064000  1
  C  C26  1  0.70481300  0.47474000  0.62977500  1
  C  C27  1  0.67498700  0.49883000  0.50580100  1
  C  C28  1  0.70509300  0.52479600  0.38267900  1
  C  C29  1  0.76437800  0.52572500  0.38365200  1
  C  C30  1  0.79405300  0.50114900  0.50765200  1
  C  C31  1  0.53645600  0.11837800  0.76499300  1
  C  C32  1  0.53293100  0.06060000  0.89468100  1
  C  C33  1  0.50859300  0.94571400  0.90397900  1
  C  C34  1  0.49386100  0.88326500  0.78218200  1
  C  C35  1  0.50264300  0.93602000  0.64890200  1
  C  C36  1  0.51639300  0.06075200  0.64242200  1
  C  C37  1  0.51076600  0.12479000  0.51414200  1
  C  C38  1  0.50074800  0.05881600  0.39122800  1
  C  C39  1  0.49606300  0.93183100  0.39496100  1
  C  C40  1  0.49680000  0.86852100  0.52283300  1
  C  C41  1  0.56732800  0.67648400  0.15247900  1
  C  C42  1  0.60662500  0.74840100  0.08269600  1
  C  C43  1  0.61673700  0.72872200  0.94132100  1
  C  C44  1  0.58445100  0.64167400  0.87184200  1
  C  C45  1  0.54191800  0.57180500  0.93882300  1
  C  C46  1  0.53616900  0.58322000  0.08517700  1
  C  C47  1  0.46987100  0.42220200  0.08541600  1
  C  C48  1  0.47084800  0.42037000  0.93799700  1
  C  C49  1  0.66069600  0.79845300  0.85630200  1
  C  C50  1  0.69457700  0.89284200  0.94171000  1
  C  C51  1  0.73808500  0.95590800  0.84628700  1
  C  C52  1  0.32410400  0.28411400  0.38360500  1
  C  C53  1  0.31863600  0.29532300  0.22330500  1
  C  C54  1  0.34228200  0.18025600  0.15243600  1
  N  N1  1  0.85537700  0.50041800  0.50922000  1
  N  N2  1  0.15023500  0.49854500  0.53452800  1
  N  N3  1  0.50094400  0.50548000  0.15900400  1
  N  N4  1  0.50736700  0.49308200  0.86462200  1
  O  O1  1  0.49077000  0.31721800  0.62763600  1
  O  O2  1  0.51667000  0.32086100  0.38874600  1
  O  O3  1  0.42124100  0.52150500  0.63568200  1
  O  O4  1  0.41975900  0.46521500  0.39655100  1
  O  O5  1  0.51627400  0.67153900  0.63140000  1
  O  O6  1  0.48609200  0.67416200  0.39967600  1
  O  O7  1  0.58590100  0.46534600  0.62429200  1
  O  O8  1  0.58393900  0.52906300  0.39144100  1
  O  O9  1  0.85616800  0.70222200  0.42288100  1
  O  O10  1  0.85353800  0.29841800  0.59490600  1
  O  O11  1  0.14899000  0.30068100  0.63212600  1
  O  O12  1  0.15260800  0.69683900  0.43831900  1
