# generated using pymatgen
data_ZnH12C16NO4
_symmetry_space_group_name_H-M   'P 1'
_cell_length_a   8.54116400
_cell_length_b   11.03246100
_cell_length_c   11.21502400
_cell_angle_alpha   95.10681300
_cell_angle_beta   90.06896600
_cell_angle_gamma   77.36443500
_symmetry_Int_Tables_number   1
_chemical_formula_structural   ZnH12C16NO4
_chemical_formula_sum   'Zn2 H24 C32 N2 O8'
_cell_volume   1026.92329424
_cell_formula_units_Z   2
loop_
 _symmetry_equiv_pos_site_id
 _symmetry_equiv_pos_as_xyz
  1  'x, y, z'
loop_
 _atom_site_type_symbol
 _atom_site_label
 _atom_site_symmetry_multiplicity
 _atom_site_fract_x
 _atom_site_fract_y
 _atom_site_fract_z
 _atom_site_occupancy
  Zn  Zn1  1  0.49094000  0.52739400  0.13302000  1
  Zn  Zn2  1  0.50692200  0.47243600  0.86701200  1
  H  H1  1  0.02202800  0.42007000  0.05181200  1
  H  H2  1  0.97583400  0.57976200  0.94821200  1
  H  H3  1  0.36712000  0.07929500  0.99669300  1
  H  H4  1  0.63074100  0.92053600  0.00334600  1
  H  H5  1  0.71618300  0.11289300  0.01143800  1
  H  H6  1  0.28167800  0.88693900  0.98860000  1
  H  H7  1  0.46575300  0.64008300  0.71307600  1
  H  H8  1  0.53211400  0.35974700  0.28695600  1
  H  H9  1  0.43702700  0.75235500  0.53951800  1
  H  H10  1  0.56083600  0.24747400  0.46051500  1
  H  H11  1  0.55818400  0.96197300  0.64656300  1
  H  H12  1  0.48901000  0.02126100  0.79724700  1
  H  H13  1  0.34902400  0.98071000  0.68763700  1
  H  H14  1  0.31604700  0.20883700  0.71556200  1
  H  H15  1  0.39477800  0.14930900  0.56751900  1
  H  H16  1  0.67392400  0.14833600  0.64434800  1
  H  H17  1  0.58650100  0.21542200  0.78570300  1
  H  H18  1  0.50882700  0.97857700  0.20278800  1
  H  H19  1  0.43964100  0.03786300  0.35347000  1
  H  H20  1  0.64880200  0.01913700  0.31240200  1
  H  H21  1  0.60306100  0.85053500  0.43251900  1
  H  H22  1  0.68180100  0.79100900  0.28447800  1
  H  H23  1  0.41135800  0.78440800  0.21432900  1
  H  H24  1  0.32392300  0.85148900  0.35568200  1
  C  C1  1  0.92734400  0.25786500  0.02425000  1
  C  C2  1  0.07051800  0.74196600  0.97578200  1
  C  C3  1  0.04994800  0.32004000  0.03728800  1
  C  C4  1  0.94791400  0.67979100  0.96274100  1
  C  C5  1  0.20711600  0.25750500  0.02252900  1
  C  C6  1  0.79074500  0.74232600  0.97750400  1
  C  C7  1  0.24336200  0.12903600  0.00633900  1
  C  C8  1  0.75449900  0.87079600  0.99369800  1
  C  C9  1  0.12085400  0.06464300  0.00478800  1
  C  C10  1  0.87700700  0.93518800  0.99525000  1
  C  C11  1  0.96211300  0.12890100  0.01066700  1
  C  C12  1  0.03574800  0.87093100  0.98937000  1
  C  C13  1  0.15733400  0.93590800  0.99442200  1
  C  C14  1  0.84052700  0.06392400  0.00561700  1
  C  C15  1  0.23264300  0.66643300  0.98404300  1
  C  C16  1  0.76521900  0.33339700  0.01598900  1
  C  C17  1  0.32858100  0.33171200  0.01495700  1
  C  C18  1  0.66928200  0.66811900  0.98507500  1
  C  C19  1  0.45870600  0.66515100  0.48360300  1
  C  C20  1  0.53916000  0.33467800  0.51642900  1
  C  C21  1  0.45873100  0.66564600  0.36020900  1
  C  C22  1  0.53913100  0.33418400  0.63982300  1
  C  C23  1  0.50995200  0.44748200  0.34170500  1
  C  C24  1  0.48791500  0.55234800  0.65832700  1
  C  C25  1  0.51193900  0.44545000  0.46434500  1
  C  C26  1  0.48593000  0.55437900  0.53568700  1
  C  C27  1  0.56590800  0.20989500  0.68903900  1
  C  C28  1  0.42187600  0.15223600  0.66420000  1
  C  C29  1  0.45694400  0.02042200  0.70146800  1
  C  C30  1  0.43194400  0.78993600  0.31099400  1
  C  C31  1  0.57596700  0.84760500  0.33583700  1
  C  C32  1  0.54088800  0.97941800  0.29856800  1
  N  N1  1  0.51530300  0.44375400  0.71031900  1
  N  N2  1  0.48256000  0.55607600  0.28971300  1
  O  O1  1  0.30052500  0.60281900  0.88632300  1
  O  O2  1  0.69733700  0.39701200  0.11370900  1
  O  O3  1  0.29157500  0.65047100  0.09117200  1
  O  O4  1  0.70628700  0.34935900  0.90886000  1
  O  O5  1  0.35961500  0.39600600  0.11282300  1
  O  O6  1  0.63824800  0.60382300  0.88720900  1
  O  O7  1  0.37891300  0.34792900  0.90805400  1
  O  O8  1  0.61894900  0.65190200  0.09197800  1
