# generated using pymatgen
data_ZnH9C26(NO2)3
_symmetry_space_group_name_H-M   'P 1'
_cell_length_a   14.28350700
_cell_length_b   8.54563600
_cell_length_c   23.27474600
_cell_angle_alpha   90.00000000
_cell_angle_beta   93.85276300
_cell_angle_gamma   90.00000000
_symmetry_Int_Tables_number   1
_chemical_formula_structural   ZnH9C26(NO2)3
_chemical_formula_sum   'Zn2 H18 C52 N6 O12'
_cell_volume   2834.53342285
_cell_formula_units_Z   2
loop_
 _symmetry_equiv_pos_site_id
 _symmetry_equiv_pos_as_xyz
  1  'x, y, z'
loop_
 _atom_site_type_symbol
 _atom_site_label
 _atom_site_symmetry_multiplicity
 _atom_site_fract_x
 _atom_site_fract_y
 _atom_site_fract_z
 _atom_site_occupancy
  Zn  Zn1  1  0.89652700  0.49998100  0.50529000  1
  Zn  Zn2  1  0.10339100  0.49999000  0.49473400  1
  H  H1  1  0.00166400  0.25064000  0.69244500  1
  H  H2  1  0.99904900  0.74937800  0.30772100  1
  H  H3  1  0.99272100  0.25048200  0.30596400  1
  H  H4  1  0.00660600  0.74962900  0.69406300  1
  H  H5  1  0.17602700  0.25980100  0.86531000  1
  H  H6  1  0.82830600  0.73253700  0.13482200  1
  H  H7  1  0.16848200  0.26162400  0.15200000  1
  H  H8  1  0.82742500  0.74615500  0.84780800  1
  H  H9  1  0.17193000  0.26928800  0.05187300  1
  H  H10  1  0.82285700  0.74058400  0.94789500  1
  H  H11  1  0.17802500  0.26166700  0.96564500  1
  H  H12  1  0.82737100  0.72876600  0.03453200  1
  H  H13  1  0.04757100  0.99782100  0.53996900  1
  H  H14  1  0.95222200  0.00212900  0.46004000  1
  H  H15  1  0.55799200  0.26892700  0.45216600  1
  H  H16  1  0.44193400  0.73101500  0.54785100  1
  H  H17  1  0.44220800  0.26807800  0.54746400  1
  H  H18  1  0.55771700  0.73186400  0.45255200  1
  C  C1  1  0.06459400  0.09361400  0.79399200  1
  C  C2  1  0.93642100  0.90472300  0.20601000  1
  C  C3  1  0.05739100  0.08907000  0.21229600  1
  C  C4  1  0.94186800  0.91252300  0.78764300  1
  C  C5  1  0.01131700  0.85975300  0.67163800  1
  C  C6  1  0.98837600  0.14026400  0.32836500  1
  C  C7  1  0.98913400  0.85972900  0.32919500  1
  C  C8  1  0.01118200  0.14029900  0.67087700  1
  C  C9  1  0.02526700  0.85952100  0.61354700  1
  C  C10  1  0.97458700  0.14044300  0.38647500  1
  C  C11  1  0.97472900  0.86127300  0.38713500  1
  C  C12  1  0.02526000  0.13871700  0.61289500  1
  C  C13  1  0.00848500  0.00073000  0.70098400  1
  C  C14  1  0.99154400  0.99927400  0.29902800  1
  C  C15  1  0.00131200  0.00264200  0.88048600  1
  C  C16  1  0.99881000  0.99743300  0.11948200  1
  C  C17  1  0.06363300  0.09495500  0.85333500  1
  C  C18  1  0.93756600  0.90315400  0.14667600  1
  C  C19  1  0.05905700  0.09090000  0.15289200  1
  C  C20  1  0.94001400  0.91105700  0.84703800  1
  C  C21  1  0.12596800  0.18681500  0.88553900  1
  C  C22  1  0.87681300  0.80839000  0.11453400  1
  C  C23  1  0.12071900  0.18642200  0.12685800  1
  C  C24  1  0.87674200  0.81852300  0.87301000  1
  C  C25  1  0.03689700  0.99866500  0.58534700  1
  C  C26  1  0.96296200  0.00129800  0.41467100  1
  C  C27  1  0.06213100  0.09503900  0.03321400  1
  C  C28  1  0.93736000  0.90621000  0.96673100  1
  C  C29  1  0.06327000  0.09541800  0.97305300  1
  C  C30  1  0.93741900  0.90364100  0.02693700  1
  C  C31  1  0.99950800  0.99861700  0.05966400  1
  C  C32  1  0.00059100  0.00151900  0.94030400  1
  C  C33  1  0.12222900  0.18927600  0.06798200  1
  C  C34  1  0.87516600  0.81581200  0.93188400  1
  C  C35  1  0.12607900  0.18736100  0.94446400  1
  C  C36  1  0.87672600  0.80782200  0.05561000  1
  C  C37  1  0.01780900  0.71703900  0.57895500  1
  C  C38  1  0.98209100  0.28292500  0.42106900  1
  C  C39  1  0.98241500  0.71959400  0.42209200  1
  C  C40  1  0.01752400  0.28039100  0.57793900  1
  C  C41  1  0.46911100  0.37232400  0.52546300  1
  C  C42  1  0.53081300  0.62761900  0.47455300  1
  C  C43  1  0.53093700  0.37275900  0.47434400  1
  C  C44  1  0.46898700  0.62718300  0.52567200  1
  C  C45  1  0.52989000  0.49967400  0.55366000  1
  C  C46  1  0.47003400  0.50026800  0.44635600  1
  C  C47  1  0.59052500  0.50009800  0.50356100  1
  C  C48  1  0.40939800  0.49984400  0.49645500  1
  C  C49  1  0.69319400  0.50008800  0.50814500  1
  C  C50  1  0.30672700  0.49986600  0.49187500  1
  C  C51  1  0.43363100  0.50057200  0.38608100  1
  C  C52  1  0.56629300  0.49936200  0.61393500  1
  N  N1  1  0.00413700  0.00286900  0.76204700  1
  N  N2  1  0.99598200  0.99709400  0.23794800  1
  N  N3  1  0.77436200  0.50004700  0.51040300  1
  N  N4  1  0.22555800  0.49991800  0.48962000  1
  N  N5  1  0.40485400  0.50081300  0.33841100  1
  N  N6  1  0.59506900  0.49911600  0.66160500  1
  O  O1  1  0.12848200  0.17906200  0.76803800  1
  O  O2  1  0.87317000  0.81781400  0.23193000  1
  O  O3  1  0.11878700  0.17643300  0.24465800  1
  O  O4  1  0.87984700  0.82650100  0.75521300  1
  O  O5  1  0.09273800  0.66830900  0.55459800  1
  O  O6  1  0.90717500  0.33167300  0.44542200  1
  O  O7  1  0.90740600  0.67016400  0.44616800  1
  O  O8  1  0.09252000  0.32982200  0.55386200  1
  O  O9  1  0.93337500  0.66196900  0.56553800  1
  O  O10  1  0.06653700  0.33797700  0.43449100  1
  O  O11  1  0.06678200  0.66396900  0.43519800  1
  O  O12  1  0.93314100  0.33598000  0.56482200  1
