# generated using pymatgen
data_ZnH10C11N5O4
_symmetry_space_group_name_H-M   'P 1'
_cell_length_a   8.57264000
_cell_length_b   9.38980500
_cell_length_c   13.05367400
_cell_angle_alpha   90.00000000
_cell_angle_beta   93.53390800
_cell_angle_gamma   90.00000000
_symmetry_Int_Tables_number   1
_chemical_formula_structural   ZnH10C11N5O4
_chemical_formula_sum   'Zn2 H20 C22 N10 O8'
_cell_volume   1048.76291674
_cell_formula_units_Z   2
loop_
 _symmetry_equiv_pos_site_id
 _symmetry_equiv_pos_as_xyz
  1  'x, y, z'
loop_
 _atom_site_type_symbol
 _atom_site_label
 _atom_site_symmetry_multiplicity
 _atom_site_fract_x
 _atom_site_fract_y
 _atom_site_fract_z
 _atom_site_occupancy
  Zn  Zn1  1  0.49995500  0.83812900  0.49801000  1
  Zn  Zn2  1  0.50006200  0.16187100  0.50199900  1
  H  H1  1  0.21932000  0.95433000  0.16065500  1
  H  H2  1  0.78069600  0.04567100  0.83935400  1
  H  H3  1  0.98617700  0.05484900  0.42819600  1
  H  H4  1  0.01384000  0.94515100  0.57181300  1
  H  H5  1  0.94894600  0.78351700  0.93521000  1
  H  H6  1  0.77534700  0.86859200  0.94960900  1
  H  H7  1  0.22466900  0.13140900  0.05040000  1
  H  H8  1  0.05107000  0.21648400  0.06479900  1
  H  H9  1  0.61901500  0.04892000  0.14931400  1
  H  H10  1  0.62983900  0.87144400  0.17005700  1
  H  H11  1  0.38100100  0.95108000  0.85069700  1
  H  H12  1  0.37017800  0.12855500  0.82995300  1
  H  H13  1  0.70313100  0.66045400  0.68613000  1
  H  H14  1  0.51373000  0.72693400  0.69877700  1
  H  H15  1  0.29688600  0.33954600  0.31387900  1
  H  H16  1  0.48628600  0.27306600  0.30123200  1
  H  H17  1  0.29751300  0.65684200  0.31229600  1
  H  H18  1  0.48666800  0.72115600  0.29865200  1
  H  H19  1  0.70250400  0.34315800  0.68771400  1
  H  H20  1  0.51334800  0.27884400  0.70135800  1
  C  C1  1  0.83904900  0.00375100  0.29722600  1
  C  C2  1  0.16096800  0.99625000  0.70278300  1
  C  C3  1  0.83243900  0.97626500  0.19299700  1
  C  C4  1  0.16757800  0.02373500  0.80701200  1
  C  C5  1  0.96962100  0.97215400  0.14185500  1
  C  C6  1  0.03039500  0.02784700  0.85815400  1
  C  C7  1  0.11226500  0.97554500  0.19735500  1
  C  C8  1  0.88775100  0.02445600  0.80265400  1
  C  C9  1  0.11753700  0.00354000  0.30091900  1
  C  C10  1  0.88248000  0.99646100  0.69909000  1
  C  C11  1  0.98142800  0.02723100  0.34825700  1
  C  C12  1  0.01858900  0.97277000  0.65175200  1
  C  C13  1  0.96305300  0.95423100  0.03006300  1
  C  C14  1  0.03696200  0.04577000  0.96994600  1
  C  C15  1  0.70179400  0.00148200  0.35861400  1
  C  C16  1  0.29822300  0.99851800  0.64139500  1
  C  C17  1  0.73626700  0.99896300  0.63604100  1
  C  C18  1  0.26375000  0.00103800  0.36396800  1
  C  C19  1  0.53638900  0.57483300  0.58582900  1
  C  C20  1  0.46362800  0.42516800  0.41418000  1
  C  C21  1  0.46385700  0.57201700  0.41262200  1
  C  C22  1  0.53616000  0.42798400  0.58738700  1
  N  N1  1  0.49971700  0.34978700  0.50166300  1
  N  N2  1  0.50030000  0.65021300  0.49834600  1
  N  N3  1  0.87952900  0.83447500  0.98701000  1
  N  N4  1  0.12048700  0.16552600  0.01299900  1
  N  N5  1  0.68553400  0.95785100  0.13770300  1
  N  N6  1  0.31448200  0.04214900  0.86230700  1
  N  N7  1  0.58309300  0.64085300  0.68122700  1
  N  N8  1  0.41692300  0.35914800  0.31878200  1
  N  N9  1  0.41711000  0.63523100  0.31627300  1
  N  N10  1  0.58290600  0.36476900  0.68373600  1
  O  O1  1  0.65444600  0.12407400  0.39495000  1
  O  O2  1  0.34557000  0.87592700  0.60506000  1
  O  O3  1  0.34707300  0.12363900  0.60991200  1
  O  O4  1  0.65294400  0.87636200  0.39009700  1
  O  O5  1  0.68025300  0.87826800  0.60089700  1
  O  O6  1  0.31976400  0.12173300  0.39911200  1
  O  O7  1  0.32079400  0.87783300  0.39401600  1
  O  O8  1  0.67922300  0.12216800  0.60599300  1
