# generated using pymatgen
data_CuH11C26Br2NO4
_symmetry_space_group_name_H-M   'P 1'
_cell_length_a   13.56635300
_cell_length_b   14.99719600
_cell_length_c   15.97308100
_cell_angle_alpha   89.98953200
_cell_angle_beta   72.43575900
_cell_angle_gamma   89.98782200
_symmetry_Int_Tables_number   1
_chemical_formula_structural   CuH11C26Br2NO4
_chemical_formula_sum   'Cu2 H22 C52 Br4 N2 O8'
_cell_volume   3098.32899879
_cell_formula_units_Z   2
loop_
 _symmetry_equiv_pos_site_id
 _symmetry_equiv_pos_as_xyz
  1  'x, y, z'
loop_
 _atom_site_type_symbol
 _atom_site_label
 _atom_site_symmetry_multiplicity
 _atom_site_fract_x
 _atom_site_fract_y
 _atom_site_fract_z
 _atom_site_occupancy
  Cu  Cu1  1  0.40088800  0.49611200  0.50173700  1
  Cu  Cu2  1  0.59911300  0.50388700  0.49826300  1
  H  H1  1  0.22736600  0.52674700  0.06868700  1
  H  H2  1  0.77263400  0.47325100  0.93131300  1
  H  H3  1  0.43959600  0.50445400  0.22688400  1
  H  H4  1  0.56040400  0.49554500  0.77311600  1
  H  H5  1  0.75028900  0.47313300  0.22455600  1
  H  H6  1  0.24971100  0.52686600  0.77544500  1
  H  H7  1  0.19346000  0.53146900  0.93405200  1
  H  H8  1  0.80654100  0.46853000  0.06594800  1
  H  H9  1  0.33889200  0.51439600  0.15493500  1
  H  H10  1  0.66110800  0.48560300  0.84506500  1
  H  H11  1  0.42654700  0.22623200  0.41159000  1
  H  H12  1  0.57345300  0.77376700  0.58841000  1
  H  H13  1  0.37575400  0.09419500  0.35535900  1
  H  H14  1  0.62424600  0.90580500  0.64464100  1
  H  H15  1  0.36763300  0.93504000  0.34879800  1
  H  H16  1  0.63236800  0.06495900  0.65120200  1
  H  H17  1  0.28470200  0.58260400  0.40143800  1
  H  H18  1  0.71529800  0.41739500  0.59856200  1
  H  H19  1  0.01276800  0.34943700  0.66764900  1
  H  H20  1  0.98723300  0.65056200  0.33235100  1
  H  H21  1  0.83933800  0.35861800  0.66111400  1
  H  H22  1  0.16066200  0.64138100  0.33888700  1
  C  C1  1  0.49346700  0.67121500  0.49278900  1
  C  C2  1  0.50653300  0.32878400  0.50721100  1
  C  C3  1  0.44390900  0.50705500  0.66878700  1
  C  C4  1  0.55609200  0.49294400  0.33121300  1
  C  C5  1  0.41026200  0.51077000  0.76521100  1
  C  C6  1  0.58973800  0.48922900  0.23479000  1
  C  C7  1  0.27485000  0.52354700  0.89975200  1
  C  C8  1  0.72515000  0.47645200  0.10024800  1
  C  C9  1  0.30682200  0.52075500  0.80982200  1
  C  C10  1  0.69317900  0.47924300  0.19017800  1
  C  C11  1  0.48125900  0.50368200  0.81159200  1
  C  C12  1  0.51874100  0.49631700  0.18840800  1
  C  C13  1  0.44975800  0.50610600  0.90351500  1
  C  C14  1  0.55024200  0.49389300  0.09648600  1
  C  C15  1  0.34524400  0.51617900  0.94610400  1
  C  C16  1  0.65475600  0.48382000  0.05389600  1
  C  C17  1  0.51878800  0.49861700  0.95399300  1
  C  C18  1  0.48121300  0.50138200  0.04600800  1
  C  C19  1  0.37529600  0.51162100  0.08533400  1
  C  C20  1  0.62470400  0.48837800  0.91466600  1
  C  C21  1  0.30913500  0.51890500  0.03585100  1
  C  C22  1  0.69086500  0.48109300  0.96414900  1
  C  C23  1  0.55224800  0.18125300  0.55939200  1
  C  C24  1  0.44775200  0.81874600  0.44060800  1
  C  C25  1  0.50875300  0.23088700  0.50615100  1
  C  C26  1  0.49124700  0.76911200  0.49384900  1
  C  C27  1  0.46106100  0.18780600  0.45271000  1
  C  C28  1  0.53893900  0.81219300  0.54729100  1
  C  C29  1  0.45810500  0.09622300  0.45009800  1
  C  C30  1  0.54189500  0.90377600  0.54990300  1
  C  C31  1  0.50219200  0.04612900  0.50152000  1
  C  C32  1  0.49780800  0.95387000  0.49848000  1
  C  C33  1  0.54973200  0.08830500  0.55635000  1
  C  C34  1  0.45026900  0.91169400  0.44365100  1
  C  C35  1  0.41056300  0.05492100  0.39569500  1
  C  C36  1  0.58943800  0.94507800  0.60430500  1
  C  C37  1  0.40660400  0.96342500  0.39210500  1
  C  C38  1  0.59339700  0.03657400  0.60789600  1
  C  C39  1  0.22621700  0.54308800  0.44696700  1
  C  C40  1  0.77378300  0.45691200  0.55303300  1
  C  C41  1  0.17868600  0.43990000  0.56240200  1
  C  C42  1  0.82131400  0.56009900  0.43759800  1
  C  C43  1  0.07621900  0.44326100  0.56129600  1
  C  C44  1  0.92378100  0.55673800  0.43870400  1
  C  C45  1  0.05037600  0.49765800  0.50144600  1
  C  C46  1  0.94962400  0.50234100  0.49855500  1
  C  C47  1  0.12590900  0.54748600  0.44428800  1
  C  C48  1  0.87409100  0.45251400  0.55571200  1
  C  C49  1  0.99881900  0.39314400  0.61894300  1
  C  C50  1  0.00118200  0.60685500  0.38105700  1
  C  C51  1  0.89864300  0.39800500  0.61581200  1
  C  C52  1  0.10135700  0.60199400  0.38418800  1
  Br  Br1  1  0.21503600  0.36181100  0.64362800  1
  Br  Br2  1  0.78496400  0.63818800  0.35637200  1
  Br  Br3  1  0.60405200  0.24129300  0.64339100  1
  Br  Br4  1  0.39594800  0.75870600  0.35660900  1
  N  N1  1  0.25237400  0.48957200  0.50460400  1
  N  N2  1  0.74762700  0.51042700  0.49539600  1
  O  O1  1  0.41040500  0.62601700  0.49344300  1
  O  O2  1  0.58959500  0.37398200  0.50655700  1
  O  O3  1  0.57834900  0.63263100  0.49694000  1
  O  O4  1  0.42165100  0.36736800  0.50306000  1
  O  O5  1  0.37280100  0.50519100  0.62873900  1
  O  O6  1  0.62719900  0.49480800  0.37126200  1
  O  O7  1  0.54299600  0.50539500  0.62618800  1
  O  O8  1  0.45700400  0.49460400  0.37381200  1
