# generated using pymatgen
data_Fe2H46C91(NO4)4
_symmetry_space_group_name_H-M   'P 1'
_cell_length_a   13.21094600
_cell_length_b   16.94893300
_cell_length_c   16.47241600
_cell_angle_alpha   90.62187900
_cell_angle_beta   99.70018100
_cell_angle_gamma   111.81145300
_symmetry_Int_Tables_number   1
_chemical_formula_structural   Fe2H46C91(NO4)4
_chemical_formula_sum   'Fe2 H46 C91 N4 O16'
_cell_volume   3364.46901849
_cell_formula_units_Z   1
loop_
 _symmetry_equiv_pos_site_id
 _symmetry_equiv_pos_as_xyz
  1  'x, y, z'
loop_
 _atom_site_type_symbol
 _atom_site_label
 _atom_site_symmetry_multiplicity
 _atom_site_fract_x
 _atom_site_fract_y
 _atom_site_fract_z
 _atom_site_occupancy
  Fe  Fe1  1  0.48127900  0.97402300  0.16728500  1
  Fe  Fe2  1  0.54286400  0.06523100  0.84781100  1
  H  H1  1  0.16843400  0.09957600  0.82641500  1
  H  H2  1  0.00558700  0.12390700  0.82556000  1
  H  H3  1  0.84739900  0.11103600  0.88398300  1
  H  H4  1  0.16942700  0.91395000  0.12551300  1
  H  H5  1  0.84122300  0.92564900  0.18348900  1
  H  H6  1  0.36229400  0.50813100  0.49412400  1
  H  H7  1  0.65046600  0.52974200  0.52073800  1
  H  H8  1  0.65317100  0.52315700  0.82532700  1
  H  H9  1  0.57831300  0.25680100  0.66171700  1
  H  H10  1  0.57150200  0.20775500  0.36858100  1
  H  H11  1  0.24889000  0.10969600  0.21906700  1
  H  H12  1  0.21135900  0.22915900  0.26411000  1
  H  H13  1  0.37532400  0.51933600  0.19226500  1
  H  H14  1  0.43719200  0.78279900  0.35532400  1
  H  H15  1  0.44787700  0.83205600  0.64822900  1
  H  H16  1  0.78334100  0.94035500  0.77595100  1
  H  H17  1  0.81410500  0.81497100  0.73689000  1
  H  H18  1  0.62938200  0.39329100  0.89335600  1
  H  H19  1  0.39919200  0.64917400  0.12466700  1
  H  H20  1  0.51246300  0.17961300  0.52188600  1
  H  H21  1  0.61511500  0.08492400  0.54432700  1
  H  H22  1  0.81756300  0.14225000  0.55366700  1
  H  H23  1  0.91739000  0.29499500  0.54138500  1
  H  H24  1  0.81513100  0.39011900  0.51861300  1
  H  H25  1  0.89991300  0.63154700  0.67832800  1
  H  H26  1  0.05800700  0.68128700  0.79410700  1
  H  H27  1  0.03605700  0.73187900  0.92806000  1
  H  H28  1  0.85462700  0.73084500  0.94646300  1
  H  H29  1  0.69618300  0.68046100  0.83160000  1
  H  H30  1  0.49946300  0.85829900  0.49234700  1
  H  H31  1  0.39616700  0.95264000  0.47342100  1
  H  H32  1  0.19494200  0.89532800  0.46962800  1
  H  H33  1  0.09653300  0.74255600  0.48323500  1
  H  H34  1  0.19949800  0.64768400  0.50244400  1
  H  H35  1  0.31861100  0.36759100  0.17829300  1
  H  H36  1  0.15782100  0.32140600  0.06500700  1
  H  H37  1  0.97667400  0.31550700  0.08945800  1
  H  H38  1  0.95724000  0.35736900  0.22760800  1
  H  H39  1  0.11782700  0.40373100  0.34144000  1
  H  H40  1  0.15105300  0.00746500  0.30022900  1
  H  H41  1  0.06401800  0.98669000  0.37637600  1
  H  H42  1  0.01895600  0.02018700  0.27827900  1
  H  H43  1  0.98952000  0.84410300  0.39413400  1
  H  H44  1  0.90760100  0.69428600  0.34156800  1
  H  H45  1  0.88262000  0.65495300  0.19340100  1
  H  H46  1  0.93737000  0.76629500  0.09757300  1
  C  C1  1  0.24412100  0.04367500  0.92199600  1
  C  C2  1  0.16139400  0.06925600  0.88364400  1
  C  C3  1  0.07077000  0.06010800  0.91886900  1
  C  C4  1  0.99412700  0.09160400  0.88151400  1
  C  C5  1  0.90253600  0.08304800  0.91498800  1
  C  C6  1  0.23304600  0.00547800  0.99651900  1
  C  C7  1  0.13568100  0.98987200  0.02827400  1
  C  C8  1  0.05663600  0.02014400  0.99068500  1
  C  C9  1  0.96378300  0.01112100  0.02488100  1
  C  C10  1  0.88499000  0.04182900  0.98656000  1
  C  C11  1  0.78775300  0.02766500  0.01765100  1
  C  C12  1  0.11617900  0.94507900  0.09772100  1
  C  C13  1  0.02230500  0.93263300  0.13024200  1
  C  C14  1  0.94709300  0.96781400  0.09499500  1
  C  C15  1  0.85386600  0.95785200  0.12796200  1
  C  C16  1  0.77479400  0.98784500  0.09096700  1
  C  C17  1  0.67756400  0.97356000  0.13075100  1
  C  C18  1  0.43276500  0.80367100  0.19364000  1
  C  C19  1  0.33347000  0.00532400  0.05098000  1
  C  C20  1  0.42752300  0.07424500  0.26455900  1
  C  C21  1  0.59659800  0.96905400  0.74525100  1
  C  C22  1  0.68846300  0.03025100  0.96300900  1
  C  C23  1  0.58927700  0.23704400  0.82402800  1
  C  C24  1  0.34236300  0.06060100  0.88249100  1
  C  C25  1  0.46777700  0.28026400  0.37668200  1
  C  C26  1  0.37498900  0.29225800  0.33853100  1
  C  C27  1  0.38274200  0.37166600  0.36867900  1
  C  C28  1  0.52052300  0.34580100  0.43960000  1
  C  C29  1  0.32376000  0.41828800  0.33742000  1
  C  C30  1  0.36205600  0.50987500  0.36413900  1
  C  C31  1  0.37758300  0.57459100  0.31113000  1
  C  C32  1  0.39691100  0.64761400  0.35683300  1
  C  C33  1  0.39454000  0.62688600  0.43833000  1
  C  C34  1  0.41494300  0.68734300  0.51045800  1
  C  C35  1  0.49521200  0.69303400  0.57559500  1
  C  C36  1  0.55126500  0.76036400  0.63623000  1
  C  C37  1  0.64556000  0.74933800  0.67193200  1
  C  C38  1  0.63535100  0.66848600  0.64403000  1
  C  C39  1  0.69423600  0.62214400  0.67636100  1
  C  C40  1  0.65597300  0.52999500  0.65134700  1
  C  C41  1  0.64262100  0.46596000  0.70526700  1
  C  C42  1  0.62059400  0.39216500  0.65974500  1
  C  C43  1  0.61960500  0.41172700  0.57770700  1
  C  C44  1  0.59893400  0.35070600  0.50590000  1
  C  C45  1  0.64343400  0.46686600  0.78913900  1
  C  C46  1  0.62736700  0.39206000  0.82749000  1
  C  C47  1  0.60707400  0.31646100  0.78210100  1
  C  C48  1  0.60064800  0.31609800  0.69695300  1
  C  C49  1  0.49244500  0.21289200  0.34897500  1
  C  C50  1  0.41235900  0.15066700  0.29251500  1
  C  C51  1  0.31215300  0.15808100  0.26285100  1
  C  C52  1  0.29263800  0.22861900  0.28540700  1
  C  C53  1  0.38132400  0.57472000  0.22801100  1
  C  C54  1  0.39782100  0.64962200  0.19006700  1
  C  C55  1  0.41475300  0.72437800  0.23541700  1
  C  C56  1  0.41770800  0.72398400  0.32016700  1
  C  C57  1  0.52848000  0.82856500  0.66396200  1
  C  C58  1  0.61254600  0.89366700  0.71507900  1
  C  C59  1  0.71572800  0.88871900  0.73845700  1
  C  C60  1  0.73228500  0.81582000  0.71880400  1
  C  C61  1  0.60125300  0.20511700  0.52473700  1
  C  C62  1  0.65891300  0.15185500  0.53785900  1
  C  C63  1  0.77235900  0.18398700  0.54326600  1
  C  C64  1  0.82825200  0.26957200  0.53632900  1
  C  C65  1  0.77070100  0.32292300  0.52339100  1
  C  C66  1  0.65671900  0.29088400  0.51585200  1
  C  C67  1  0.88979600  0.65395900  0.73696600  1
  C  C68  1  0.97867200  0.68182900  0.80198500  1
  C  C69  1  0.96639400  0.71009600  0.87708300  1
  C  C70  1  0.86484300  0.70965400  0.88738100  1
  C  C71  1  0.77592600  0.68178600  0.82246900  1
  C  C72  1  0.78855300  0.65548100  0.74617000  1
  C  C73  1  0.41110000  0.83261100  0.49151900  1
  C  C74  1  0.35309300  0.88573600  0.48044900  1
  C  C75  1  0.24026900  0.85356900  0.47812400  1
  C  C76  1  0.18525100  0.76801900  0.48585500  1
  C  C77  1  0.24318100  0.71479700  0.49674000  1
  C  C78  1  0.35670600  0.74692800  0.50138700  1
  C  C79  1  0.23918900  0.36472800  0.18983000  1
  C  C80  1  0.14888800  0.33889700  0.12593300  1
  C  C81  1  0.04742100  0.33567000  0.13959000  1
  C  C82  1  0.03654700  0.35903300  0.21704100  1
  C  C83  1  0.12681100  0.38494500  0.28097800  1
  C  C84  1  0.22812300  0.38627100  0.26836900  1
  C  C85  1  0.99484200  0.86899600  0.19129400  1
  C  C86  1  0.01082400  0.89116000  0.27527200  1
  C  C87  1  0.06406300  0.98193500  0.30922400  1
  C  C88  1  0.97843900  0.82795400  0.32872700  1
  C  C89  1  0.93236400  0.74335800  0.29938400  1
  C  C90  1  0.91850100  0.72132500  0.21646000  1
  C  C91  1  0.94956800  0.78394300  0.16275200  1
  N  N1  1  0.46986700  0.40245500  0.43218000  1
  N  N2  1  0.37323100  0.54244600  0.44195100  1
  N  N3  1  0.54554300  0.63614500  0.58279200  1
  N  N4  1  0.64117300  0.49614000  0.57344800  1
  O  O1  1  0.60650700  0.00990400  0.10685900  1
  O  O2  1  0.43380800  0.80341300  0.11411700  1
  O  O3  1  0.66473900  0.92693600  0.19405500  1
  O  O4  1  0.45095400  0.87547300  0.23590700  1
  O  O5  1  0.34126400  0.93607600  0.08203100  1
  O  O6  1  0.41653400  0.07864300  0.07292900  1
  O  O7  1  0.52096500  0.07827100  0.24384000  1
  O  O8  1  0.33939200  0.00409500  0.24317100  1
  O  O9  1  0.50375500  0.96298000  0.76858800  1
  O  O10  1  0.68375200  0.03997200  0.76579000  1
  O  O11  1  0.68210700  0.10080400  0.93382900  1
  O  O12  1  0.60473400  0.95772300  0.93907600  1
  O  O13  1  0.35357300  0.10744500  0.81926700  1
  O  O14  1  0.57446100  0.16590400  0.78195400  1
  O  O15  1  0.41656500  0.02720600  0.90726400  1
  O  O16  1  0.58605500  0.23672100  0.90322000  1
