# generated using pymatgen
data_Fe2H25C52N5O17
_symmetry_space_group_name_H-M   'P 1'
_cell_length_a   14.12572900
_cell_length_b   11.58625400
_cell_length_c   17.92066100
_cell_angle_alpha   89.94164800
_cell_angle_beta   90.97160500
_cell_angle_gamma   78.94857700
_symmetry_Int_Tables_number   1
_chemical_formula_structural   Fe2H25C52N5O17
_chemical_formula_sum   'Fe2 H25 C52 N5 O17'
_cell_volume   2878.14064830
_cell_formula_units_Z   1
loop_
 _symmetry_equiv_pos_site_id
 _symmetry_equiv_pos_as_xyz
  1  'x, y, z'
loop_
 _atom_site_type_symbol
 _atom_site_label
 _atom_site_symmetry_multiplicity
 _atom_site_fract_x
 _atom_site_fract_y
 _atom_site_fract_z
 _atom_site_occupancy
  Fe  Fe1  1  0.49450000  0.98870000  0.78644700  1
  Fe  Fe2  1  0.52905600  0.00153500  0.21347900  1
  H  H1  1  0.25688000  0.84165200  0.21425600  1
  H  H2  1  0.08187100  0.82226500  0.21856600  1
  H  H3  1  0.89796800  0.90765400  0.24611600  1
  H  H4  1  0.69772900  0.95344700  0.00860000  1
  H  H5  1  0.76181600  0.16904600  0.78898000  1
  H  H6  1  0.93518900  0.19018300  0.78561900  1
  H  H7  1  0.32457200  0.03844500  0.98759500  1
  H  H8  1  0.97667900  0.88914400  0.01892200  1
  H  H9  1  0.04759100  0.10918300  0.97738500  1
  H  H10  1  0.51223400  0.77113900  0.58085000  1
  H  H11  1  0.48560200  0.79832200  0.46853800  1
  H  H12  1  0.54030400  0.19048800  0.53222200  1
  H  H13  1  0.51527200  0.21731600  0.41988900  1
  H  H14  1  0.48204800  0.54586900  0.75969400  1
  H  H15  1  0.48634700  0.34809200  0.74171000  1
  H  H16  1  0.53715100  0.64093800  0.25855700  1
  H  H17  1  0.54290400  0.44304600  0.24080800  1
  H  H18  1  0.16851100  0.23211800  0.71722100  1
  H  H19  1  0.04093600  0.23569900  0.70403900  1
  H  H20  1  0.20308900  0.12011600  0.60061800  1
  H  H21  1  0.11613700  0.25246800  0.58386500  1
  H  H22  1  0.15905400  0.94615700  0.60466600  1
  H  H23  1  0.03561000  0.93331800  0.58961100  1
  H  H24  1  0.08292100  0.90818800  0.72345100  1
  H  H25  1  0.98795100  0.03476000  0.70603600  1
  C  C1  1  0.28506000  0.93862900  0.11422300  1
  C  C2  1  0.23250000  0.88313700  0.16147000  1
  C  C3  1  0.14178100  0.89531800  0.12989000  1
  C  C4  1  0.22470500  0.97901800  0.05420100  1
  C  C5  1  0.06853700  0.86090400  0.16335900  1
  C  C6  1  0.96775000  0.89189200  0.13747700  1
  C  C7  1  0.89229500  0.91208000  0.18589900  1
  C  C8  1  0.80942600  0.94173300  0.14311300  1
  C  C9  1  0.83745700  0.93679900  0.06920700  1
  C  C10  1  0.77200900  0.96336300  0.00379700  1
  C  C11  1  0.79720500  0.01569900  0.94301600  1
  C  C12  1  0.73550900  0.06256900  0.88520900  1
  C  C13  1  0.78706100  0.12300700  0.84019800  1
  C  C14  1  0.87887700  0.10596500  0.87025800  1
  C  C15  1  0.95176900  0.14182400  0.83726100  1
  C  C16  1  0.05369800  0.10053200  0.85881900  1
  C  C17  1  0.12940500  0.07358900  0.80990600  1
  C  C18  1  0.21293300  0.04244400  0.85238600  1
  C  C19  1  0.18517200  0.05207400  0.92641800  1
  C  C20  1  0.25054700  0.02746000  0.99212000  1
  C  C21  1  0.49423800  0.76705200  0.72706500  1
  C  C22  1  0.30933600  0.00851000  0.82016300  1
  C  C23  1  0.63460700  0.05650900  0.86961400  1
  C  C24  1  0.51735600  0.14516800  0.67230400  1
  C  C25  1  0.50658900  0.84404100  0.32786300  1
  C  C26  1  0.38673500  0.94209300  0.12853000  1
  C  C27  1  0.71444500  0.97218700  0.17703300  1
  C  C28  1  0.53198200  0.22146900  0.27374000  1
  C  C29  1  0.49630900  0.66906400  0.67424900  1
  C  C30  1  0.48903200  0.56001600  0.70060900  1
  C  C31  1  0.49591100  0.46637300  0.65257600  1
  C  C32  1  0.49443200  0.35772600  0.68229600  1
  C  C33  1  0.51142600  0.26020100  0.63789800  1
  C  C34  1  0.50468400  0.68483900  0.59834300  1
  C  C35  1  0.50577800  0.59177800  0.54806200  1
  C  C36  1  0.50571000  0.48027600  0.57645100  1
  C  C37  1  0.51596000  0.38235300  0.52993200  1
  C  C38  1  0.50143400  0.71755900  0.43785400  1
  C  C39  1  0.51022300  0.60652600  0.47065400  1
  C  C40  1  0.52036000  0.50859500  0.42412600  1
  C  C41  1  0.51302400  0.72895700  0.36246800  1
  C  C42  1  0.52985500  0.63138400  0.31806400  1
  C  C43  1  0.52422000  0.27141300  0.56271000  1
  C  C44  1  0.52077200  0.39700500  0.45256700  1
  C  C45  1  0.52231900  0.30376100  0.40237300  1
  C  C46  1  0.52943900  0.52257000  0.34793300  1
  C  C47  1  0.53650400  0.42882500  0.29994700  1
  C  C48  1  0.53024600  0.31952100  0.32645600  1
  C  C49  1  0.11390400  0.18356300  0.69475600  1
  C  C50  1  0.12807000  0.16519400  0.61166200  1
  C  C51  1  0.08323300  0.98881400  0.61505300  1
  C  C52  1  0.06510300  0.99721400  0.69805900  1
  N  N1  1  0.13665100  0.95293800  0.06422300  1
  N  N2  1  0.93473600  0.90567600  0.06638600  1
  N  N3  1  0.88540600  0.04147800  0.93327900  1
  N  N4  1  0.08822400  0.08792200  0.92961400  1
  N  N5  1  0.12557500  0.07082200  0.73078800  1
  O  O1  1  0.51284400  0.86836100  0.70471100  1
  O  O2  1  0.47269400  0.75381500  0.79709700  1
  O  O3  1  0.38926000  0.99076500  0.86058100  1
  O  O4  1  0.31674000  0.00565000  0.74733200  1
  O  O5  1  0.58624500  0.05713800  0.65441700  1
  O  O6  1  0.61093400  0.95526200  0.85192500  1
  O  O7  1  0.46019800  0.13626400  0.72798200  1
  O  O8  1  0.57660800  0.15398400  0.84901200  1
  O  O9  1  0.56056000  0.85195100  0.27001500  1
  O  O10  1  0.44432600  0.84266900  0.14599200  1
  O  O11  1  0.44129100  0.93383000  0.34895100  1
  O  O12  1  0.41162400  0.04121100  0.14946100  1
  O  O13  1  0.63326200  0.99752100  0.13830400  1
  O  O14  1  0.71056000  0.96843900  0.25003800  1
  O  O15  1  0.51538700  0.11941700  0.29653200  1
  O  O16  1  0.55027900  0.23573200  0.20314300  1
  O  O17  1  0.06155100  0.10093800  0.58243100  1
