# generated using pymatgen
data_Fe2H19C46NO16
_symmetry_space_group_name_H-M   'P 1'
_cell_length_a   14.22143700
_cell_length_b   12.25273500
_cell_length_c   13.44213900
_cell_angle_alpha   81.12821900
_cell_angle_beta   92.93523200
_cell_angle_gamma   114.46840800
_symmetry_Int_Tables_number   1
_chemical_formula_structural   Fe2H19C46NO16
_chemical_formula_sum   'Fe2 H19 C46 N1 O16'
_cell_volume   2106.23338761
_cell_formula_units_Z   1
loop_
 _symmetry_equiv_pos_site_id
 _symmetry_equiv_pos_as_xyz
  1  'x, y, z'
loop_
 _atom_site_type_symbol
 _atom_site_label
 _atom_site_symmetry_multiplicity
 _atom_site_fract_x
 _atom_site_fract_y
 _atom_site_fract_z
 _atom_site_occupancy
  Fe  Fe1  1  0.51695000  0.03452300  0.14037600  1
  Fe  Fe2  1  0.52190100  0.05721500  0.69711300  1
  H  H1  1  0.12865100  0.91111300  0.74317200  1
  H  H2  1  0.98894700  0.89096200  0.84401800  1
  H  H3  1  0.98899600  0.07864000  0.83549700  1
  H  H4  1  0.83540200  0.08299600  0.75995600  1
  H  H5  1  0.25084000  0.97349400  0.15839200  1
  H  H6  1  0.10898300  0.95511200  0.25552500  1
  H  H7  1  0.94292400  0.94620000  0.26983500  1
  H  H8  1  0.78879800  0.95357200  0.19844500  1
  H  H9  1  0.43080300  0.88157300  0.44439300  1
  H  H10  1  0.49823600  0.62373100  0.64476700  1
  H  H11  1  0.51354300  0.16349100  0.41564600  1
  H  H12  1  0.45902100  0.40924600  0.19181900  1
  H  H13  1  0.49957400  0.45742400  0.59381400  1
  H  H14  1  0.48419800  0.60886000  0.16828000  1
  H  H15  1  0.37790700  0.54528600  0.03234100  1
  H  H16  1  0.20741200  0.42221500  0.97110700  1
  H  H17  1  0.05804300  0.32539400  0.08732300  1
  H  H18  1  0.07964400  0.35311300  0.26549500  1
  H  H19  1  0.24748200  0.47597900  0.32830300  1
  C  C1  1  0.24494300  0.97205300  0.85506300  1
  C  C2  1  0.14550300  0.93322600  0.81865500  1
  C  C3  1  0.06513000  0.92551200  0.87577700  1
  C  C4  1  0.92071300  0.04284900  0.88262300  1
  C  C5  1  0.25945000  0.98527300  0.95700000  1
  C  C6  1  0.17555200  0.97327100  0.01510300  1
  C  C7  1  0.08184900  0.96035100  0.97056600  1
  C  C8  1  0.00446500  0.97055900  0.02563300  1
  C  C9  1  0.83403500  0.05151300  0.83974800  1
  C  C10  1  0.74639600  0.01757300  0.89692400  1
  C  C11  1  0.91981100  0.99205300  0.98260200  1
  C  C12  1  0.83765800  0.97769300  0.04351700  1
  C  C13  1  0.75021600  0.98992200  0.00019300  1
  C  C14  1  0.18392600  0.97303700  0.11806100  1
  C  C15  1  0.10188600  0.96080500  0.17462700  1
  C  C16  1  0.01360100  0.96169200  0.12914500  1
  C  C17  1  0.93537600  0.95507200  0.18888500  1
  C  C18  1  0.84673700  0.95876200  0.14715100  1
  C  C19  1  0.66477300  0.98290300  0.06169700  1
  C  C20  1  0.43596200  0.80918100  0.27891700  1
  C  C21  1  0.36275400  0.02269900  0.00232500  1
  C  C22  1  0.47490300  0.19455000  0.22992200  1
  C  C23  1  0.48955800  0.83798800  0.62979200  1
  C  C24  1  0.65159800  0.01364700  0.84640800  1
  C  C25  1  0.50259600  0.25403800  0.57270300  1
  C  C26  1  0.32821800  0.99253900  0.78310800  1
  C  C27  1  0.43359900  0.73597900  0.37754200  1
  C  C28  1  0.43790500  0.79609200  0.45808400  1
  C  C29  1  0.46254900  0.75753900  0.55310100  1
  C  C30  1  0.47721200  0.65296300  0.57024500  1
  C  C31  1  0.46735400  0.58671300  0.49312100  1
  C  C32  1  0.44756500  0.62642500  0.39479600  1
  C  C33  1  0.48303300  0.48259200  0.51665200  1
  C  C34  1  0.48289300  0.41541100  0.44364100  1
  C  C35  1  0.46871700  0.45433500  0.34377100  1
  C  C36  1  0.44741800  0.55762500  0.31934900  1
  C  C37  1  0.49951600  0.31077700  0.46944100  1
  C  C38  1  0.50576400  0.24821000  0.39577700  1
  C  C39  1  0.49205800  0.28405700  0.29707400  1
  C  C40  1  0.47306500  0.38662900  0.27019900  1
  C  C41  1  0.32633700  0.51773800  0.18496100  1
  C  C42  1  0.31308000  0.50283600  0.08451000  1
  C  C43  1  0.21705900  0.43366400  0.04966800  1
  C  C44  1  0.13334700  0.37943200  0.11472800  1
  C  C45  1  0.14556500  0.39486400  0.21464300  1
  C  C46  1  0.24143800  0.46403300  0.24994000  1
  N  N1  1  0.42569800  0.59143000  0.21847100  1
  O  O1  1  0.63075000  0.06915400  0.04513800  1
  O  O2  1  0.36528200  0.76787000  0.21148300  1
  O  O3  1  0.61684600  0.88625400  0.12754700  1
  O  O4  1  0.49841200  0.92535500  0.26989100  1
  O  O5  1  0.38411800  0.94740500  0.07111500  1
  O  O6  1  0.42787300  0.13712900  0.98561800  1
  O  O7  1  0.55095500  0.20054900  0.17448900  1
  O  O8  1  0.39767600  0.08889000  0.25313900  1
  O  O9  1  0.44206800  0.90961500  0.63123500  1
  O  O10  1  0.57316400  0.85447900  0.68258300  1
  O  O11  1  0.65917500  0.08094200  0.75907900  1
  O  O12  1  0.56067600  0.93325000  0.88098600  1
  O  O13  1  0.30359100  0.97542200  0.68969500  1
  O  O14  1  0.56404100  0.19795000  0.58867000  1
  O  O15  1  0.42625000  0.03524500  0.80805200  1
  O  O16  1  0.42629700  0.22798600  0.63566000  1
