# generated using pymatgen
data_Zn3H28C46O35
_symmetry_space_group_name_H-M   'P 1'
_cell_length_a   37.74680800
_cell_length_b   21.97523000
_cell_length_c   21.94838400
_cell_angle_alpha   90.00000000
_cell_angle_beta   122.23646100
_cell_angle_gamma   90.00000000
_symmetry_Int_Tables_number   1
_chemical_formula_structural   Zn3H28C46O35
_chemical_formula_sum   'Zn12 H112 C184 O140'
_cell_volume   15399.67525868
_cell_formula_units_Z   4
loop_
 _symmetry_equiv_pos_site_id
 _symmetry_equiv_pos_as_xyz
  1  'x, y, z'
loop_
 _atom_site_type_symbol
 _atom_site_label
 _atom_site_symmetry_multiplicity
 _atom_site_fract_x
 _atom_site_fract_y
 _atom_site_fract_z
 _atom_site_occupancy
  Zn  Zn1  1  0.00015600  0.93055800  0.00011700  1
  Zn  Zn2  1  0.04724600  0.00250500  0.54186300  1
  Zn  Zn3  1  0.45263600  0.50254700  0.45805700  1
  Zn  Zn4  1  0.54724600  0.50250500  0.54186300  1
  Zn  Zn5  1  0.50015600  0.43055800  0.00011700  1
  Zn  Zn6  1  0.99987700  0.06844600  0.99965600  1
  Zn  Zn7  1  0.49987700  0.56844600  0.99965600  1
  Zn  Zn8  1  0.49747700  0.00255200  0.56667300  1
  Zn  Zn9  1  0.50258100  0.00239000  0.43353000  1
  Zn  Zn10  1  0.99747700  0.50255200  0.56667300  1
  Zn  Zn11  1  0.00258100  0.50239000  0.43353000  1
  Zn  Zn12  1  0.95263600  0.00254700  0.45805700  1
  H  H1  1  0.28679400  0.09904400  0.30255100  1
  H  H2  1  0.11805700  0.87516600  0.91022900  1
  H  H3  1  0.32183300  0.58815800  0.74058100  1
  H  H4  1  0.29823000  0.09173800  0.40063400  1
  H  H5  1  0.70222400  0.09086200  0.59972400  1
  H  H6  1  0.79823000  0.59173800  0.40063400  1
  H  H7  1  0.20222400  0.59086200  0.59972400  1
  H  H8  1  0.20218500  0.01413600  0.06304800  1
  H  H9  1  0.79834800  0.01211200  0.93701800  1
  H  H10  1  0.70218500  0.51413600  0.06304800  1
  H  H11  1  0.29834800  0.51211200  0.93701800  1
  H  H12  1  0.30003300  0.97893200  0.15677100  1
  H  H13  1  0.38038800  0.38038000  0.08743700  1
  H  H14  1  0.70000600  0.97816300  0.84325900  1
  H  H15  1  0.80003300  0.47893200  0.15677100  1
  H  H16  1  0.20000600  0.47816300  0.84325900  1
  H  H17  1  0.61805700  0.37516600  0.91022900  1
  H  H18  1  0.95630900  0.14332300  0.36544500  1
  H  H19  1  0.04426000  0.14279700  0.63627000  1
  H  H20  1  0.45630900  0.64332300  0.36544500  1
  H  H21  1  0.54426000  0.64279700  0.63627000  1
  H  H22  1  0.57040700  0.14301000  0.51397900  1
  H  H23  1  0.42934200  0.14210300  0.48334100  1
  H  H24  1  0.07040700  0.64301000  0.51397900  1
  H  H25  1  0.71376900  0.09805200  0.69788900  1
  H  H26  1  0.92934200  0.64210300  0.48334100  1
  H  H27  1  0.29783200  0.89547700  0.38949900  1
  H  H28  1  0.70154800  0.89458000  0.60994700  1
  H  H29  1  0.79783200  0.39547700  0.38949900  1
  H  H30  1  0.20154800  0.39458000  0.60994700  1
  H  H31  1  0.19713600  0.86741400  0.23834300  1
  H  H32  1  0.80209400  0.86534600  0.76077900  1
  H  H33  1  0.69713600  0.36741400  0.23834300  1
  H  H34  1  0.30209400  0.36534600  0.76077900  1
  H  H35  1  0.27245200  0.88343100  0.23481200  1
  H  H36  1  0.78679400  0.59904400  0.30255100  1
  H  H37  1  0.72696400  0.88229800  0.76463200  1
  H  H38  1  0.77245200  0.38343100  0.23481200  1
  H  H39  1  0.22696400  0.38229800  0.76463200  1
  H  H40  1  0.26960000  0.09395700  0.18659400  1
  H  H41  1  0.73103700  0.09279800  0.81388200  1
  H  H42  1  0.76960000  0.59395700  0.18659400  1
  H  H43  1  0.23103700  0.59279800  0.81388200  1
  H  H44  1  0.09608500  0.00488600  0.23402400  1
  H  H45  1  0.90431700  0.00608700  0.76775100  1
  H  H46  1  0.59608500  0.50488600  0.23402400  1
  H  H47  1  0.21376900  0.59805200  0.69788900  1
  H  H48  1  0.40431700  0.50608700  0.76775100  1
  H  H49  1  0.10651100  0.16252300  0.26444800  1
  H  H50  1  0.89561000  0.16364200  0.73820200  1
  H  H51  1  0.60651100  0.66252300  0.26444800  1
  H  H52  1  0.39561000  0.66364200  0.73820200  1
  H  H53  1  0.12061900  0.14954900  0.43183600  1
  H  H54  1  0.88008600  0.14979700  0.56985000  1
  H  H55  1  0.62061900  0.64954900  0.43183600  1
  H  H56  1  0.38008600  0.64979700  0.56985000  1
  H  H57  1  0.05858600  0.11202800  0.44147800  1
  H  H58  1  0.22393200  0.95190400  0.13907100  1
  H  H59  1  0.94104100  0.10983000  0.55834800  1
  H  H60  1  0.55858600  0.61202800  0.44147800  1
  H  H61  1  0.44104100  0.60983000  0.55834800  1
  H  H62  1  0.93089500  0.89783400  0.32624600  1
  H  H63  1  0.06918400  0.89844700  0.67253300  1
  H  H64  1  0.43089500  0.39783400  0.32624600  1
  H  H65  1  0.56918400  0.39844700  0.67253300  1
  H  H66  1  0.86879300  0.85945000  0.20093800  1
  H  H67  1  0.13031800  0.85664100  0.79702900  1
  H  H68  1  0.36879300  0.35945000  0.20093800  1
  H  H69  1  0.77590600  0.95021100  0.86063100  1
  H  H70  1  0.63031800  0.35664100  0.79702900  1
  H  H71  1  0.22350400  0.97143700  0.34361000  1
  H  H72  1  0.77625100  0.96965900  0.65600600  1
  H  H73  1  0.72350400  0.47143700  0.34361000  1
  H  H74  1  0.27625100  0.46965900  0.65600600  1
  H  H75  1  0.91585100  0.92070400  0.03290400  1
  H  H76  1  0.08203700  0.91459300  0.96465000  1
  H  H77  1  0.41585100  0.42070400  0.03290400  1
  H  H78  1  0.58203700  0.41459300  0.96465000  1
  H  H79  1  0.60355500  0.82623200  0.77189800  1
  H  H80  1  0.72393200  0.45190400  0.13907100  1
  H  H81  1  0.39665700  0.82716100  0.23096800  1
  H  H82  1  0.10355500  0.32623200  0.77189800  1
  H  H83  1  0.89665700  0.32716100  0.23096800  1
  H  H84  1  0.40387600  0.86485000  0.39217900  1
  H  H85  1  0.59645700  0.86502700  0.61106300  1
  H  H86  1  0.90387600  0.36485000  0.39217900  1
  H  H87  1  0.09645700  0.36502700  0.61106300  1
  H  H88  1  0.87619400  0.17277900  0.24763900  1
  H  H89  1  0.12430100  0.17220900  0.75445400  1
  H  H90  1  0.37619400  0.67277900  0.24763900  1
  H  H91  1  0.27590600  0.45021100  0.86063100  1
  H  H92  1  0.62430100  0.67220900  0.75445400  1
  H  H93  1  0.39110400  0.16716400  0.56064300  1
  H  H94  1  0.60859400  0.16925700  0.43681000  1
  H  H95  1  0.89110400  0.66716400  0.56064300  1
  H  H96  1  0.10859400  0.66925700  0.43681000  1
  H  H97  1  0.13094300  0.82144300  0.48317000  1
  H  H98  1  0.86828200  0.81947700  0.51517600  1
  H  H99  1  0.63094300  0.32144300  0.48317000  1
  H  H100  1  0.36828200  0.31947700  0.51517600  1
  H  H101  1  0.06921900  0.89129000  0.46284100  1
  H  H102  1  0.88038800  0.88038000  0.08743700  1
  H  H103  1  0.92984000  0.89000200  0.53592300  1
  H  H104  1  0.56921900  0.39129000  0.46284100  1
  H  H105  1  0.42984000  0.39000200  0.53592300  1
  H  H106  1  0.22299300  0.14655400  0.24026000  1
  H  H107  1  0.77784300  0.14480800  0.76027100  1
  H  H108  1  0.72299300  0.64655400  0.24026000  1
  H  H109  1  0.27784300  0.64480800  0.76027100  1
  H  H110  1  0.17862400  0.09045100  0.25952300  1
  H  H111  1  0.82183300  0.08815800  0.74058100  1
  H  H112  1  0.67862400  0.59045100  0.25952300  1
  C  C1  1  0.99733300  0.00078000  0.11681000  1
  C  C2  1  0.77557900  0.94271200  0.74123400  1
  C  C3  1  0.55220400  0.41356900  0.73740200  1
  C  C4  1  0.91642800  0.88489800  0.20140800  1
  C  C5  1  0.08263500  0.88204000  0.79643200  1
  C  C6  1  0.41642800  0.38489800  0.20140800  1
  C  C7  1  0.58263500  0.38204000  0.79643200  1
  C  C8  1  0.90668600  0.90148400  0.13428900  1
  C  C9  1  0.09213500  0.89727400  0.86376700  1
  C  C10  1  0.40668600  0.40148400  0.13428900  1
  C  C11  1  0.59213500  0.39727400  0.86376700  1
  C  C12  1  0.93134800  0.94255700  0.12650800  1
  C  C13  1  0.72411100  0.44444600  0.25833500  1
  C  C14  1  0.06777500  0.93840700  0.87224300  1
  C  C15  1  0.43134800  0.44255700  0.12650800  1
  C  C16  1  0.56777500  0.43840700  0.87224300  1
  C  C17  1  0.50013800  0.88313400  0.50153000  1
  C  C18  1  0.00013800  0.38313400  0.50153000  1
  C  C19  1  0.41813700  0.00272500  0.41982200  1
  C  C20  1  0.58190300  0.00287100  0.58034400  1
  C  C21  1  0.91813700  0.50272500  0.41982200  1
  C  C22  1  0.08190300  0.50287100  0.58034400  1
  C  C23  1  0.49993500  0.12174100  0.49869100  1
  C  C24  1  0.27557900  0.44271200  0.74123400  1
  C  C25  1  0.99993500  0.62174100  0.49869100  1
  C  C26  1  0.99939900  0.88307900  0.49910800  1
  C  C27  1  0.49939900  0.38307900  0.49910800  1
  C  C28  1  0.99674700  0.00279300  0.37754100  1
  C  C29  1  0.00318300  0.00197600  0.62233400  1
  C  C30  1  0.49674700  0.50279300  0.37754100  1
  C  C31  1  0.50318300  0.50197600  0.62233400  1
  C  C32  1  0.00048500  0.12191700  0.50081700  1
  C  C33  1  0.50048500  0.62191700  0.50081700  1
  C  C34  1  0.43804500  0.81249500  0.37796600  1
  C  C35  1  0.22459700  0.06031100  0.25426100  1
  C  C36  1  0.56231100  0.81223600  0.62482000  1
  C  C37  1  0.93804500  0.31249500  0.37796600  1
  C  C38  1  0.06231100  0.31223600  0.62482000  1
  C  C39  1  0.41454200  0.78099600  0.31446700  1
  C  C40  1  0.58582300  0.78051200  0.68815000  1
  C  C41  1  0.91454200  0.28099600  0.31446700  1
  C  C42  1  0.08582300  0.28051200  0.68815000  1
  C  C43  1  0.92266300  0.22098000  0.31057600  1
  C  C44  1  0.07778100  0.22038900  0.69166800  1
  C  C45  1  0.42266300  0.72098000  0.31057600  1
  C  C46  1  0.77573800  0.05858200  0.74585200  1
  C  C47  1  0.57778100  0.72038900  0.69166800  1
  C  C48  1  0.95183500  0.19078100  0.37171400  1
  C  C49  1  0.04870700  0.19033800  0.63031400  1
  C  C50  1  0.45183500  0.69078100  0.37171400  1
  C  C51  1  0.54870700  0.69033800  0.63031400  1
  C  C52  1  0.97457400  0.22103900  0.43742700  1
  C  C53  1  0.02599800  0.22084500  0.56477100  1
  C  C54  1  0.47457400  0.72103900  0.43742700  1
  C  C55  1  0.52599800  0.72084500  0.56477100  1
  C  C56  1  0.47104400  0.78385100  0.43915500  1
  C  C57  1  0.72459700  0.56031100  0.25426100  1
  C  C58  1  0.52939600  0.78370500  0.56342900  1
  C  C59  1  0.97104400  0.28385100  0.43915500  1
  C  C60  1  0.02939600  0.28370500  0.56342900  1
  C  C61  1  0.00035900  0.18905900  0.50099700  1
  C  C62  1  0.50035900  0.68905900  0.50099700  1
  C  C63  1  0.50019800  0.81598000  0.50137700  1
  C  C64  1  0.00019800  0.31598000  0.50137700  1
  C  C65  1  0.56358600  0.19018500  0.49856200  1
  C  C66  1  0.43600000  0.18925900  0.49896600  1
  C  C67  1  0.06358600  0.69018500  0.49856200  1
  C  C68  1  0.27573800  0.55858200  0.74585200  1
  C  C69  1  0.93600000  0.68925900  0.49896600  1
  C  C70  1  0.58986500  0.21954600  0.48315900  1
  C  C71  1  0.40963800  0.21813400  0.51453800  1
  C  C72  1  0.08986500  0.71954600  0.48315900  1
  C  C73  1  0.90963800  0.71813400  0.51453800  1
  C  C74  1  0.08236000  0.77893500  0.46133200  1
  C  C75  1  0.91697000  0.77745200  0.53668700  1
  C  C76  1  0.58236000  0.27893500  0.46133200  1
  C  C77  1  0.41697000  0.27745200  0.53668700  1
  C  C78  1  0.05135600  0.81127200  0.46231000  1
  C  C79  1  0.27192200  0.05723100  0.30691500  1
  C  C80  1  0.94785900  0.81022400  0.53582700  1
  C  C81  1  0.55135600  0.31127200  0.46231000  1
  C  C82  1  0.44785900  0.31022400  0.53582700  1
  C  C83  1  0.02699200  0.78349400  0.48551300  1
  C  C84  1  0.97225100  0.78298200  0.51238100  1
  C  C85  1  0.52699200  0.28349400  0.48551300  1
  C  C86  1  0.47225100  0.28298200  0.51238100  1
  C  C87  1  0.53018900  0.22075200  0.49469900  1
  C  C88  1  0.46928000  0.22027300  0.50293200  1
  C  C89  1  0.03018900  0.72075200  0.49469900  1
  C  C90  1  0.72838800  0.05605800  0.69327800  1
  C  C91  1  0.96928000  0.72027300  0.50293200  1
  C  C92  1  0.99954200  0.81572300  0.49898200  1
  C  C93  1  0.49954200  0.31572300  0.49898200  1
  C  C94  1  0.49979400  0.18877800  0.49875300  1
  C  C95  1  0.99979400  0.68877800  0.49875300  1
  C  C96  1  0.77192200  0.55723100  0.30691500  1
  C  C97  1  0.00270700  0.99820900  0.88300500  1
  C  C98  1  0.22838800  0.55605800  0.69327800  1
  C  C99  1  0.37320900  0.00254500  0.37468500  1
  C  C100  1  0.62683000  0.00244000  0.62545300  1
  C  C101  1  0.87320900  0.50254500  0.37468500  1
  C  C102  1  0.12683000  0.50244000  0.62545300  1
  C  C103  1  0.21028100  0.00126100  0.20971800  1
  C  C104  1  0.78975400  0.99937600  0.79011600  1
  C  C105  1  0.71028100  0.50126100  0.20971800  1
  C  C106  1  0.28975400  0.49937600  0.79011600  1
  C  C107  1  0.27279700  0.94221400  0.30335500  1
  C  C108  1  0.49733300  0.50078000  0.11681000  1
  C  C109  1  0.72688200  0.94105600  0.69630600  1
  C  C110  1  0.77279700  0.44221400  0.30335500  1
  C  C111  1  0.22688200  0.44105600  0.69630600  1
  C  C112  1  0.28974400  0.00154300  0.28976800  1
  C  C113  1  0.71029200  0.00059500  0.71023200  1
  C  C114  1  0.78974400  0.50154300  0.28976800  1
  C  C115  1  0.21029200  0.50059500  0.71023200  1
  C  C116  1  0.27721400  0.00666200  0.21081900  1
  C  C117  1  0.72291400  0.00559100  0.78923800  1
  C  C118  1  0.77721400  0.50666200  0.21081900  1
  C  C119  1  0.50270700  0.49820900  0.88300500  1
  C  C120  1  0.22291400  0.50559100  0.78923800  1
  C  C121  1  0.22963300  0.99776900  0.16339700  1
  C  C122  1  0.77044700  0.99613600  0.83652000  1
  C  C123  1  0.72963300  0.49776900  0.16339700  1
  C  C124  1  0.27044700  0.49613600  0.83652000  1
  C  C125  1  0.33551500  0.00216600  0.33645100  1
  C  C126  1  0.66452300  0.00172800  0.66363700  1
  C  C127  1  0.83551500  0.50216600  0.33645100  1
  C  C128  1  0.16452300  0.50172800  0.66363700  1
  C  C129  1  0.16453000  0.00098300  0.16217900  1
  C  C130  1  0.08191400  0.00099800  0.07865200  1
  C  C131  1  0.83550400  0.99858400  0.83756900  1
  C  C132  1  0.66453000  0.50098300  0.16217900  1
  C  C133  1  0.33550400  0.49858400  0.83756900  1
  C  C134  1  0.12685000  0.00090700  0.12362500  1
  C  C135  1  0.87318300  0.99817300  0.87607700  1
  C  C136  1  0.62685000  0.50090700  0.12362500  1
  C  C137  1  0.37318300  0.49817300  0.87607700  1
  C  C138  1  0.06211800  0.05880900  0.24692400  1
  C  C139  1  0.93871200  0.05871100  0.75441500  1
  C  C140  1  0.56211800  0.55880900  0.24692400  1
  C  C141  1  0.91811600  0.99801100  0.92103900  1
  C  C142  1  0.43871200  0.55871100  0.75441500  1
  C  C143  1  0.08555100  0.10219100  0.29754200  1
  C  C144  1  0.91556300  0.10253400  0.70425400  1
  C  C145  1  0.58555100  0.60219100  0.29754200  1
  C  C146  1  0.41556300  0.60253400  0.70425400  1
  C  C147  1  0.07460200  0.12097900  0.34461800  1
  C  C148  1  0.92621200  0.12074900  0.65661900  1
  C  C149  1  0.57460200  0.62097900  0.34461800  1
  C  C150  1  0.42621200  0.62074900  0.65661900  1
  C  C151  1  0.04376600  0.09067300  0.34795600  1
  C  C152  1  0.58191400  0.50099800  0.07865200  1
  C  C153  1  0.95654900  0.08975100  0.65251500  1
  C  C154  1  0.54376600  0.59067300  0.34795600  1
  C  C155  1  0.45654900  0.58975100  0.65251500  1
  C  C156  1  0.02213100  0.04225500  0.30089200  1
  C  C157  1  0.97806200  0.04114300  0.69938500  1
  C  C158  1  0.52213100  0.54225500  0.30089200  1
  C  C159  1  0.47806200  0.54114300  0.69938500  1
  C  C160  1  0.02711200  0.03343200  0.24336000  1
  C  C161  1  0.97323100  0.03233200  0.75710700  1
  C  C162  1  0.52711200  0.53343200  0.24336000  1
  C  C163  1  0.41811600  0.49801100  0.92103900  1
  C  C164  1  0.47323100  0.53233200  0.75710700  1
  C  C165  1  0.99608600  0.00253100  0.30966200  1
  C  C166  1  0.00384300  0.00124000  0.69015500  1
  C  C167  1  0.49608600  0.50253100  0.30966200  1
  C  C168  1  0.50384300  0.50124000  0.69015500  1
  C  C169  1  0.96996900  0.96220700  0.25359700  1
  C  C170  1  0.02971300  0.96029800  0.74561200  1
  C  C171  1  0.46996900  0.46220700  0.25359700  1
  C  C172  1  0.52971300  0.46029800  0.74561200  1
  C  C173  1  0.96595500  0.96891900  0.18719300  1
  C  C174  1  0.22411100  0.94444600  0.25833500  1
  C  C175  1  0.03363000  0.96615500  0.81204500  1
  C  C176  1  0.46595500  0.46891900  0.18719300  1
  C  C177  1  0.53363000  0.46615500  0.81204500  1
  C  C178  1  0.99681300  0.00073900  0.18342900  1
  C  C179  1  0.00316500  0.99858500  0.81637200  1
  C  C180  1  0.49681300  0.50073900  0.18342900  1
  C  C181  1  0.50316500  0.49858500  0.81637200  1
  C  C182  1  0.94731900  0.91529600  0.26106700  1
  C  C183  1  0.05220400  0.91356900  0.73740200  1
  C  C184  1  0.44731900  0.41529600  0.26106700  1
  O  O1  1  0.99734600  0.94831200  0.08810200  1
  O  O2  1  0.93760100  0.94545800  0.93855600  1
  O  O3  1  0.88297500  0.30982900  0.25498400  1
  O  O4  1  0.42541000  0.87023300  0.37992000  1
  O  O5  1  0.57486100  0.87010800  0.62322800  1
  O  O6  1  0.92541000  0.37023300  0.37992000  1
  O  O7  1  0.07486100  0.37010800  0.62322800  1
  O  O8  1  0.90010500  0.19030200  0.24684500  1
  O  O9  1  0.10032500  0.18948300  0.75523800  1
  O  O10  1  0.40010500  0.69030200  0.24684500  1
  O  O11  1  0.60032500  0.68948300  0.75523800  1
  O  O12  1  0.37788500  0.18658400  0.51264700  1
  O  O13  1  0.56240800  0.44847900  0.05855400  1
  O  O14  1  0.62172800  0.18842600  0.48493000  1
  O  O15  1  0.87788500  0.68658400  0.51264700  1
  O  O16  1  0.12172800  0.68842600  0.48493000  1
  O  O17  1  0.10586600  0.80610000  0.43852800  1
  O  O18  1  0.89341500  0.80409800  0.55970600  1
  O  O19  1  0.60586600  0.30610000  0.43852800  1
  O  O20  1  0.39341500  0.30409800  0.55970600  1
  O  O21  1  0.04284900  0.86825200  0.43298900  1
  O  O22  1  0.95627000  0.86704600  0.56555500  1
  O  O23  1  0.54284900  0.36825200  0.43298900  1
  O  O24  1  0.43760100  0.44545800  0.93855600  1
  O  O25  1  0.45627000  0.36704600  0.56555500  1
  O  O26  1  0.21441600  0.11032900  0.20859300  1
  O  O27  1  0.78623600  0.10849200  0.79176900  1
  O  O28  1  0.71441600  0.61032900  0.20859300  1
  O  O29  1  0.28623600  0.60849200  0.79176900  1
  O  O30  1  0.20478100  0.06788300  0.29231100  1
  O  O31  1  0.79553900  0.06589700  0.70774200  1
  O  O32  1  0.70478100  0.56788300  0.29231100  1
  O  O33  1  0.29553900  0.56589700  0.70774200  1
  O  O34  1  0.28102200  0.05502400  0.37733500  1
  O  O35  1  0.06242000  0.05354400  0.06153900  1
  O  O36  1  0.71921500  0.05393300  0.62281100  1
  O  O37  1  0.78102200  0.55502400  0.37733500  1
  O  O38  1  0.21921500  0.55393300  0.62281100  1
  O  O39  1  0.21052600  0.03902400  0.10627900  1
  O  O40  1  0.78982400  0.03717500  0.89383400  1
  O  O41  1  0.71052600  0.53902400  0.10627900  1
  O  O42  1  0.28982400  0.53717500  0.89383400  1
  O  O43  1  0.29675200  0.96113400  0.19491000  1
  O  O44  1  0.70315400  0.96030800  0.80499900  1
  O  O45  1  0.79675200  0.46113400  0.19491000  1
  O  O46  1  0.93762600  0.05053900  0.94090800  1
  O  O47  1  0.20315400  0.46030800  0.80499900  1
  O  O48  1  0.56242000  0.55354400  0.06153900  1
  O  O49  1  0.43762600  0.55053900  0.94090800  1
  O  O50  1  0.49675700  0.91159600  0.55084700  1
  O  O51  1  0.50336900  0.91192000  0.45220100  1
  O  O52  1  0.99675700  0.41159600  0.55084700  1
  O  O53  1  0.00097800  0.94563200  0.90976300  1
  O  O54  1  0.00336900  0.41192000  0.45220100  1
  O  O55  1  0.43551700  0.00163700  0.48990300  1
  O  O56  1  0.56452600  0.00456900  0.51027900  1
  O  O57  1  0.93551700  0.50163700  0.48990300  1
  O  O58  1  0.06452600  0.50456900  0.51027900  1
  O  O59  1  0.43970500  0.00331800  0.38871500  1
  O  O60  1  0.56034000  0.00079500  0.61142600  1
  O  O61  1  0.93970500  0.50331800  0.38871500  1
  O  O62  1  0.06034000  0.50079500  0.61142600  1
  O  O63  1  0.49752600  0.09300900  0.54887100  1
  O  O64  1  0.49734600  0.44831200  0.08810200  1
  O  O65  1  0.50245100  0.09332600  0.44847900  1
  O  O66  1  0.99752600  0.59300900  0.54887100  1
  O  O67  1  0.00245100  0.59332600  0.44847900  1
  O  O68  1  0.96334900  0.91175800  0.46363600  1
  O  O69  1  0.03535800  0.91199200  0.53462600  1
  O  O70  1  0.46334900  0.41175800  0.46363600  1
  O  O71  1  0.53535800  0.41199200  0.53462600  1
  O  O72  1  0.96105300  0.00414700  0.37431800  1
  O  O73  1  0.03884400  0.00528400  0.62559300  1
  O  O74  1  0.46105300  0.50414700  0.37431800  1
  O  O75  1  0.50097800  0.44563200  0.90976300  1
  O  O76  1  0.53884400  0.50528400  0.62559300  1
  O  O77  1  0.03311800  0.00210800  0.43887500  1
  O  O78  1  0.96683600  0.99971300  0.56104400  1
  O  O79  1  0.53311800  0.50210800  0.43887500  1
  O  O80  1  0.46683600  0.49971300  0.56104400  1
  O  O81  1  0.96444600  0.09312200  0.46892100  1
  O  O82  1  0.03661200  0.09337500  0.53261100  1
  O  O83  1  0.46444600  0.59312200  0.46892100  1
  O  O84  1  0.53661200  0.59337500  0.53261100  1
  O  O85  1  0.28790800  0.93799200  0.37672300  1
  O  O86  1  0.99868000  0.05335500  0.08964200  1
  O  O87  1  0.71169000  0.93698800  0.62289700  1
  O  O88  1  0.78790800  0.43799200  0.37672300  1
  O  O89  1  0.21169000  0.43698800  0.62289700  1
  O  O90  1  0.20760900  0.89321200  0.21426700  1
  O  O91  1  0.79182200  0.89129700  0.78505300  1
  O  O92  1  0.70760900  0.39321200  0.21426700  1
  O  O93  1  0.29182200  0.39129700  0.78505300  1
  O  O94  1  0.28849700  0.89079200  0.28715800  1
  O  O95  1  0.71092500  0.88983200  0.71232100  1
  O  O96  1  0.78849700  0.39079200  0.28715800  1
  O  O97  1  0.00304300  0.05066500  0.91204100  1
  O  O98  1  0.21092500  0.38983200  0.71232100  1
  O  O99  1  0.29088200  0.06236400  0.19894700  1
  O  O100  1  0.70958300  0.06146300  0.80142400  1
  O  O101  1  0.79088200  0.56236400  0.19894700  1
  O  O102  1  0.20958300  0.56146300  0.80142400  1
  O  O103  1  0.07646200  0.03810300  0.20534000  1
  O  O104  1  0.92451800  0.03872000  0.79648200  1
  O  O105  1  0.57646200  0.53810300  0.20534000  1
  O  O106  1  0.42451800  0.53872000  0.79648200  1
  O  O107  1  0.11883200  0.12832500  0.29900700  1
  O  O108  1  0.49868000  0.55335500  0.08964200  1
  O  O109  1  0.88277600  0.12952400  0.70364600  1
  O  O110  1  0.61883200  0.62832500  0.29900700  1
  O  O111  1  0.38277600  0.62952400  0.70364600  1
  O  O112  1  0.09554200  0.16841100  0.39018600  1
  O  O113  1  0.90545200  0.16835600  0.61123500  1
  O  O114  1  0.59554200  0.66841100  0.39018600  1
  O  O115  1  0.40545200  0.66835600  0.61123500  1
  O  O116  1  0.03256900  0.11353600  0.39315200  1
  O  O117  1  0.96724000  0.11195700  0.60638700  1
  O  O118  1  0.53256900  0.61353600  0.39315200  1
  O  O119  1  0.50304300  0.55066500  0.91204100  1
  O  O120  1  0.46724000  0.61195700  0.60638700  1
  O  O121  1  0.95719000  0.89409800  0.32676100  1
  O  O122  1  0.04275600  0.89382600  0.67142900  1
  O  O123  1  0.45719000  0.39409800  0.32676100  1
  O  O124  1  0.54275600  0.39382600  0.67142900  1
  O  O125  1  0.89434000  0.83928400  0.20869500  1
  O  O126  1  0.10451800  0.83660700  0.78832200  1
  O  O127  1  0.39434000  0.33928400  0.20869500  1
  O  O128  1  0.60451800  0.33660700  0.78832200  1
  O  O129  1  0.20700300  0.94464100  0.30168400  1
  O  O130  1  0.06240800  0.94847900  0.05855400  1
  O  O131  1  0.79263100  0.94268500  0.69779900  1
  O  O132  1  0.70700300  0.44464100  0.30168400  1
  O  O133  1  0.29263100  0.44268500  0.69779900  1
  O  O134  1  0.91878300  0.95954500  0.05803700  1
  O  O135  1  0.08019200  0.95389600  0.94107600  1
  O  O136  1  0.41878300  0.45954500  0.05803700  1
  O  O137  1  0.58019200  0.45389600  0.94107600  1
  O  O138  1  0.61730600  0.80923200  0.74784400  1
  O  O139  1  0.38297500  0.80982900  0.25498400  1
  O  O140  1  0.11730600  0.30923200  0.74784400  1
