# generated using pymatgen
data_ZnH7C15NO4
_symmetry_space_group_name_H-M   'P 1'
_cell_length_a   8.62073000
_cell_length_b   9.31961600
_cell_length_c   13.03506600
_cell_angle_alpha   90.59212500
_cell_angle_beta   86.41825800
_cell_angle_gamma   93.28051100
_symmetry_Int_Tables_number   1
_chemical_formula_structural   ZnH7C15NO4
_chemical_formula_sum   'Zn2 H14 C30 N2 O8'
_cell_volume   1043.47948458
_cell_formula_units_Z   2
loop_
 _symmetry_equiv_pos_site_id
 _symmetry_equiv_pos_as_xyz
  1  'x, y, z'
loop_
 _atom_site_type_symbol
 _atom_site_label
 _atom_site_symmetry_multiplicity
 _atom_site_fract_x
 _atom_site_fract_y
 _atom_site_fract_z
 _atom_site_occupancy
  Zn  Zn1  1  0.00711700  0.15655600  0.99654000  1
  Zn  Zn2  1  0.99114300  0.83649500  0.00741000  1
  H  H1  1  0.99833200  0.36160200  0.15207600  1
  H  H2  1  0.02513200  0.24092100  0.79831600  1
  H  H3  1  0.02551600  0.37154000  0.64385600  1
  H  H4  1  0.01129500  0.63292900  0.64798000  1
  H  H5  1  0.99592100  0.75866600  0.80456800  1
  H  H6  1  0.98593800  0.62331500  0.15744100  1
  H  H7  1  0.91970700  0.99427600  0.69093200  1
  H  H8  1  0.95090900  0.00441700  0.50556700  1
  H  H9  1  0.50977500  0.03760400  0.07484700  1
  H  H10  1  0.21034300  0.99408600  0.34363600  1
  H  H11  1  0.31434300  0.99156200  0.50153700  1
  H  H12  1  0.84626200  0.00274700  0.34306700  1
  H  H13  1  0.28820600  0.02657600  0.65701300  1
  H  H14  1  0.49377400  0.93812800  0.93037800  1
  C  C1  1  0.21284600  0.00845400  0.13884900  1
  C  C2  1  0.23190800  0.99295300  0.85954700  1
  C  C3  1  0.78286200  0.98300300  0.86778600  1
  C  C4  1  0.77323100  0.00127500  0.15155500  1
  C  C5  1  0.01752600  0.35399200  0.80684500  1
  C  C6  1  0.01831500  0.42822400  0.71662000  1
  C  C7  1  0.01049600  0.57387800  0.71897300  1
  C  C8  1  0.00166800  0.64556700  0.81141900  1
  C  C9  1  0.00010700  0.57267100  0.90464900  1
  C  C10  1  0.00868800  0.42397000  0.90177000  1
  C  C11  1  0.99958700  0.42041900  0.08097200  1
  C  C12  1  0.99135300  0.56800800  0.08411000  1
  C  C13  1  0.53902900  0.00023300  0.64009200  1
  C  C14  1  0.66982000  0.99336200  0.69675600  1
  C  C15  1  0.81692500  0.99815500  0.64794200  1
  C  C16  1  0.83512000  0.00320500  0.54263400  1
  C  C17  1  0.70700200  0.00238700  0.48466600  1
  C  C18  1  0.55837300  0.00185700  0.53240500  1
  C  C19  1  0.72946200  0.00147300  0.37845900  1
  C  C20  1  0.60387400  0.00198700  0.31803100  1
  C  C21  1  0.45538900  0.00040600  0.36518800  1
  C  C22  1  0.43284700  0.99793900  0.47070400  1
  C  C23  1  0.62300000  0.00740500  0.21138600  1
  C  C24  1  0.49412100  0.02219900  0.15615100  1
  C  C25  1  0.34637400  0.01352100  0.20255100  1
  C  C26  1  0.32668000  0.00040100  0.30725200  1
  C  C27  1  0.39327800  0.00690200  0.69343300  1
  C  C28  1  0.37905500  0.98659200  0.79838500  1
  C  C29  1  0.50706300  0.96116300  0.84991300  1
  C  C30  1  0.65219900  0.97710800  0.80229600  1
  N  N1  1  0.00840900  0.34924800  0.99053000  1
  N  N2  1  0.99095000  0.64347400  0.99672500  1
  O  O1  1  0.15342900  0.88259100  0.10938900  1
  O  O2  1  0.16653000  0.12812600  0.10100500  1
  O  O3  1  0.18373000  0.11717200  0.89193200  1
  O  O4  1  0.16995000  0.87500600  0.90188000  1
  O  O5  1  0.84338200  0.10787500  0.89608600  1
  O  O6  1  0.82394100  0.86577100  0.90995600  1
  O  O7  1  0.82165600  0.87561000  0.11916500  1
  O  O8  1  0.83380200  0.12014700  0.10783000  1
