# generated using pymatgen
data_Zn3H22C22(NO6)2
_symmetry_space_group_name_H-M   'P 1'
_cell_length_a   28.56526200
_cell_length_b   18.60767700
_cell_length_c   18.61317300
_cell_angle_alpha   90.00000000
_cell_angle_beta   49.08481700
_cell_angle_gamma   90.00000000
_symmetry_Int_Tables_number   1
_chemical_formula_structural   Zn3H22C22(NO6)2
_chemical_formula_sum   'Zn12 H88 C88 N8 O48'
_cell_volume   7476.33371842
_cell_formula_units_Z   4
loop_
 _symmetry_equiv_pos_site_id
 _symmetry_equiv_pos_as_xyz
  1  'x, y, z'
loop_
 _atom_site_type_symbol
 _atom_site_label
 _atom_site_symmetry_multiplicity
 _atom_site_fract_x
 _atom_site_fract_y
 _atom_site_fract_z
 _atom_site_occupancy
  Zn  Zn1  1  0.99989400  0.91261400  0.00122600  1
  Zn  Zn2  1  0.99977200  0.07527000  0.99962700  1
  Zn  Zn3  1  0.49989400  0.41261400  0.00122600  1
  Zn  Zn4  1  0.49977200  0.57527000  0.99962700  1
  Zn  Zn5  1  0.50023000  0.99317800  0.41973100  1
  Zn  Zn6  1  0.49939500  0.99126600  0.58314200  1
  Zn  Zn7  1  0.00023000  0.49317800  0.41973100  1
  Zn  Zn8  1  0.99939500  0.49126600  0.58314200  1
  Zn  Zn9  1  0.07010900  0.99226500  0.42950400  1
  Zn  Zn10  1  0.92970700  0.99241200  0.57134000  1
  Zn  Zn11  1  0.57010900  0.49226500  0.42950400  1
  Zn  Zn12  1  0.42970700  0.49241200  0.57134000  1
  H  H1  1  0.20725200  0.08482300  0.72432400  1
  H  H2  1  0.79365700  0.08378700  0.13953200  1
  H  H3  1  0.79842300  0.09677900  0.25154700  1
  H  H4  1  0.20133000  0.10033900  0.84680800  1
  H  H5  1  0.70725200  0.58482300  0.72432400  1
  H  H6  1  0.29365700  0.58378700  0.13953200  1
  H  H7  1  0.29842300  0.59677900  0.25154700  1
  H  H8  1  0.70133000  0.60033900  0.84680800  1
  H  H9  1  0.30587100  0.07299800  0.61151400  1
  H  H10  1  0.69532900  0.07254400  0.22170500  1
  H  H11  1  0.69900800  0.09678700  0.34893300  1
  H  H12  1  0.30070300  0.09937600  0.74706200  1
  H  H13  1  0.80587100  0.57299800  0.61151400  1
  H  H14  1  0.19532900  0.57254400  0.22170500  1
  H  H15  1  0.19900800  0.59678700  0.34893300  1
  H  H16  1  0.80070300  0.59937600  0.74706200  1
  H  H17  1  0.30477300  0.98211100  0.58291600  1
  H  H18  1  0.69681400  0.98208000  0.18915200  1
  H  H19  1  0.69110700  0.02709500  0.42039700  1
  H  H20  1  0.30694300  0.03058700  0.80557400  1
  H  H21  1  0.80477300  0.48211100  0.58291600  1
  H  H22  1  0.19681400  0.48208000  0.18915200  1
  H  H23  1  0.19110700  0.52709500  0.42039700  1
  H  H24  1  0.80694300  0.53058700  0.80557400  1
  H  H25  1  0.19857600  0.88342000  0.77060500  1
  H  H26  1  0.80101600  0.88135900  0.16588300  1
  H  H27  1  0.80203300  0.89317400  0.25953800  1
  H  H28  1  0.19599700  0.89680400  0.86763200  1
  H  H29  1  0.69857600  0.38342000  0.77060500  1
  H  H30  1  0.30101600  0.38135900  0.16588300  1
  H  H31  1  0.30203300  0.39317400  0.25953800  1
  H  H32  1  0.69599700  0.39680400  0.86763200  1
  H  H33  1  0.30253200  0.88223900  0.66998300  1
  H  H34  1  0.69696200  0.88099700  0.27195300  1
  H  H35  1  0.69716800  0.89568400  0.36716400  1
  H  H36  1  0.30085300  0.89866500  0.76678900  1
  H  H37  1  0.80253200  0.38223900  0.66998300  1
  H  H38  1  0.19696200  0.38099700  0.27195300  1
  H  H39  1  0.19716800  0.39568400  0.36716400  1
  H  H40  1  0.80085300  0.39866500  0.76678900  1
  H  H41  1  0.23190200  0.89994500  0.62528000  1
  H  H42  1  0.24572900  0.96724700  0.54224700  1
  H  H43  1  0.17461700  0.91735200  0.61612000  1
  H  H44  1  0.12469700  0.08782500  0.73235300  1
  H  H45  1  0.13154700  0.03113500  0.64770600  1
  H  H46  1  0.19526400  0.08849700  0.60848700  1
  H  H47  1  0.82869100  0.91908700  0.96073700  1
  H  H48  1  0.75741900  0.96865100  0.02915800  1
  H  H49  1  0.77035700  0.90043000  0.08455700  1
  H  H50  1  0.87686600  0.08876100  0.98161500  1
  H  H51  1  0.80633600  0.09055200  0.99948300  1
  H  H52  1  0.87013100  0.03398300  0.90921600  1
  H  H53  1  0.75283300  0.93799600  0.40858600  1
  H  H54  1  0.74670600  0.02060300  0.46661500  1
  H  H55  1  0.81104300  0.96086000  0.41382000  1
  H  H56  1  0.88040600  0.10433600  0.24441200  1
  H  H57  1  0.86901100  0.06546200  0.34301900  1
  H  H58  1  0.81110500  0.12519700  0.36482900  1
  H  H59  1  0.18433000  0.96772200  0.04102200  1
  H  H60  1  0.24963200  0.02618300  0.96421400  1
  H  H61  1  0.24337300  0.94301000  0.91964900  1
  H  H62  1  0.11888900  0.11135600  0.00359900  1
  H  H63  1  0.18780700  0.13147400  0.98604800  1
  H  H64  1  0.12837900  0.07368100  0.08204200  1
  H  H65  1  0.73190200  0.39994500  0.62528000  1
  H  H66  1  0.74572900  0.46724700  0.54224700  1
  H  H67  1  0.67461700  0.41735200  0.61612000  1
  H  H68  1  0.62469700  0.58782500  0.73235300  1
  H  H69  1  0.63154700  0.53113500  0.64770600  1
  H  H70  1  0.69526400  0.58849700  0.60848700  1
  H  H71  1  0.32869100  0.41908700  0.96073700  1
  H  H72  1  0.25741900  0.46865100  0.02915800  1
  H  H73  1  0.27035700  0.40043000  0.08455700  1
  H  H74  1  0.37686600  0.58876100  0.98161500  1
  H  H75  1  0.30633600  0.59055200  0.99948300  1
  H  H76  1  0.37013100  0.53398300  0.90921600  1
  H  H77  1  0.25283300  0.43799600  0.40858600  1
  H  H78  1  0.24670600  0.52060300  0.46661500  1
  H  H79  1  0.31104300  0.46086000  0.41382000  1
  H  H80  1  0.38040600  0.60433600  0.24441200  1
  H  H81  1  0.36901100  0.56546200  0.34301900  1
  H  H82  1  0.31110500  0.62519800  0.36482900  1
  H  H83  1  0.68432900  0.46772200  0.04102200  1
  H  H84  1  0.74963200  0.52618300  0.96421400  1
  H  H85  1  0.74337300  0.44301000  0.91964900  1
  H  H86  1  0.61888900  0.61135600  0.00359900  1
  H  H87  1  0.68780700  0.63147400  0.98604800  1
  H  H88  1  0.62837900  0.57368100  0.08204200  1
  C  C1  1  0.00013000  0.99413500  0.85957700  1
  C  C2  1  0.99957300  0.99356400  0.14126400  1
  C  C3  1  0.50013000  0.49413500  0.85957700  1
  C  C4  1  0.49957300  0.49356400  0.14126400  1
  C  C5  1  0.12124800  0.99562900  0.87912200  1
  C  C6  1  0.87841400  0.99247400  0.12216800  1
  C  C7  1  0.62124800  0.49562900  0.87912200  1
  C  C8  1  0.37841400  0.49247400  0.12216800  1
  C  C9  1  0.21573900  0.02615800  0.71494500  1
  C  C10  1  0.78509000  0.02518200  0.14569800  1
  C  C11  1  0.78490800  0.04066400  0.27723800  1
  C  C12  1  0.21414800  0.04436300  0.84758900  1
  C  C13  1  0.71573900  0.52615800  0.71494500  1
  C  C14  1  0.28509000  0.52518200  0.14569800  1
  C  C15  1  0.28490800  0.54066400  0.27723800  1
  C  C16  1  0.71414800  0.54436300  0.84758900  1
  C  C17  1  0.28635500  0.01902900  0.64244000  1
  C  C18  1  0.71453900  0.01834900  0.21332900  1
  C  C19  1  0.71389400  0.04114600  0.34649700  1
  C  C20  1  0.28515500  0.04410100  0.77574500  1
  C  C21  1  0.78635500  0.51902900  0.64244000  1
  C  C22  1  0.21453900  0.51834900  0.21332900  1
  C  C23  1  0.21389400  0.54114600  0.34649700  1
  C  C24  1  0.78515500  0.54410100  0.77574500  1
  C  C25  1  0.21442200  0.91924000  0.79835300  1
  C  C26  1  0.78461500  0.91658500  0.22624200  1
  C  C27  1  0.71442200  0.41924000  0.79835300  1
  C  C28  1  0.28461500  0.41658500  0.22624200  1
  C  C29  1  0.19062700  0.99563800  0.81077600  1
  C  C30  1  0.80902500  0.99298600  0.19205400  1
  C  C31  1  0.69062700  0.49563800  0.81077600  1
  C  C32  1  0.30902500  0.49298600  0.19205400  1
  C  C33  1  0.30900800  0.99397500  0.69299800  1
  C  C34  1  0.69062700  0.99223000  0.30975200  1
  C  C35  1  0.80900800  0.49397500  0.69299800  1
  C  C36  1  0.19062700  0.49223000  0.30975200  1
  C  C37  1  0.28470500  0.91871900  0.73022300  1
  C  C38  1  0.71429500  0.91656300  0.29789300  1
  C  C39  1  0.78470500  0.41871900  0.73022300  1
  C  C40  1  0.21429500  0.41656300  0.29789300  1
  C  C41  1  0.99998800  0.99297900  0.78262300  1
  C  C42  1  0.99983000  0.99415000  0.21813600  1
  C  C43  1  0.49998800  0.49297900  0.78262300  1
  C  C44  1  0.49983000  0.49415000  0.21813600  1
  C  C45  1  0.99969100  0.99245900  0.71817900  1
  C  C46  1  0.00015300  0.99365300  0.28257300  1
  C  C47  1  0.49969100  0.49245900  0.71817900  1
  C  C48  1  0.50015300  0.49365300  0.28257300  1
  C  C49  1  0.49944600  0.85171000  0.50205100  1
  C  C50  1  0.50020100  0.13277400  0.50075200  1
  C  C51  1  0.99944600  0.35171000  0.50205100  1
  C  C52  1  0.00020100  0.63277400  0.50075200  1
  C  C53  1  0.37839400  0.99297500  0.62412000  1
  C  C54  1  0.62123300  0.99181200  0.37878700  1
  C  C55  1  0.87839400  0.49297500  0.62412000  1
  C  C56  1  0.12123300  0.49181200  0.37878700  1
  C  C57  1  0.99878100  0.13281100  0.50138600  1
  C  C58  1  0.00102400  0.85182400  0.49962600  1
  C  C59  1  0.49878100  0.63281100  0.50138600  1
  C  C60  1  0.50102400  0.35182400  0.49962600  1
  C  C61  1  0.99916300  0.99224900  0.64161300  1
  C  C62  1  0.00065000  0.99265800  0.35920500  1
  C  C63  1  0.49916300  0.49224900  0.64161300  1
  C  C64  1  0.50065000  0.49265800  0.35920500  1
  C  C65  1  0.49928000  0.77463300  0.50116900  1
  C  C66  1  0.50044700  0.20991200  0.50129800  1
  C  C67  1  0.99928000  0.27463300  0.50116900  1
  C  C68  1  0.00044700  0.70991200  0.50129800  1
  C  C69  1  0.99908900  0.20989500  0.50105200  1
  C  C70  1  0.00070200  0.77468500  0.50074300  1
  C  C71  1  0.49908900  0.70989500  0.50105200  1
  C  C72  1  0.50070200  0.27468500  0.50074300  1
  C  C73  1  0.21073400  0.94287500  0.61364900  1
  C  C74  1  0.15721300  0.05443600  0.66787600  1
  C  C75  1  0.79192300  0.94392200  0.03109500  1
  C  C76  1  0.84443200  0.05608900  0.98156500  1
  C  C77  1  0.77862700  0.98352000  0.40611400  1
  C  C78  1  0.84511300  0.08256300  0.31717800  1
  C  C79  1  0.21773100  0.98926000  0.96762700  1
  C  C80  1  0.15327000  0.08939700  0.00735700  1
  C  C81  1  0.71073400  0.44287500  0.61364900  1
  C  C82  1  0.65721300  0.55443600  0.66787600  1
  C  C83  1  0.29192300  0.44392200  0.03109500  1
  C  C84  1  0.34443200  0.55608900  0.98156500  1
  C  C85  1  0.27862700  0.48352000  0.40611400  1
  C  C86  1  0.34511300  0.58256300  0.31717800  1
  C  C87  1  0.71773100  0.48926000  0.96762700  1
  C  C88  1  0.65327000  0.58939700  0.00735700  1
  N  N1  1  0.18251200  0.99770500  0.68624800  1
  N  N2  1  0.81920100  0.99825000  0.04930100  1
  N  N3  1  0.81359600  0.02208000  0.31708000  1
  N  N4  1  0.18419700  0.02767500  0.94613000  1
  N  N5  1  0.68251200  0.49770500  0.68624800  1
  N  N6  1  0.31920100  0.49825000  0.04930100  1
  N  N7  1  0.31359600  0.52208000  0.31708000  1
  N  N8  1  0.68419700  0.52767500  0.94613000  1
  O  O1  1  0.99863000  0.93264500  0.89544900  1
  O  O2  1  0.00106100  0.05516700  0.10540800  1
  O  O3  1  0.99805500  0.93114100  0.11031900  1
  O  O4  1  0.00152200  0.05665700  0.89060800  1
  O  O5  1  0.49863000  0.43264500  0.89544900  1
  O  O6  1  0.50106100  0.55516700  0.10540800  1
  O  O7  1  0.49805500  0.43114100  0.11031900  1
  O  O8  1  0.50152200  0.55665700  0.89060800  1
  O  O9  1  0.09199100  0.93372200  0.91078800  1
  O  O10  1  0.90767100  0.05427200  0.09006200  1
  O  O11  1  0.90729200  0.93038500  0.09573100  1
  O  O12  1  0.09237200  0.05760100  0.90497100  1
  O  O13  1  0.59199100  0.43372200  0.91078800  1
  O  O14  1  0.40767100  0.55427200  0.09006200  1
  O  O15  1  0.40729200  0.43038500  0.09573100  1
  O  O16  1  0.59237200  0.55760100  0.90497100  1
  O  O17  1  0.50135100  0.88614200  0.43866100  1
  O  O18  1  0.49826500  0.09832500  0.56421800  1
  O  O19  1  0.49761700  0.88403800  0.56639100  1
  O  O20  1  0.50203600  0.10040300  0.43643500  1
  O  O21  1  0.00135100  0.38614200  0.43866100  1
  O  O22  1  0.99826500  0.59832500  0.56421800  1
  O  O23  1  0.99761700  0.38403800  0.56639100  1
  O  O24  1  0.00203600  0.60040300  0.43643500  1
  O  O25  1  0.40804900  0.99544500  0.53276500  1
  O  O26  1  0.59159900  0.98896800  0.47013300  1
  O  O27  1  0.90804900  0.49544500  0.53276500  1
  O  O28  1  0.09159900  0.48896800  0.47013300  1
  O  O29  1  0.40691100  0.98972800  0.65765900  1
  O  O30  1  0.59269000  0.99463400  0.34528100  1
  O  O31  1  0.90691100  0.48972800  0.65765900  1
  O  O32  1  0.09269000  0.49463400  0.34528100  1
  O  O33  1  0.05218100  0.09914100  0.44572400  1
  O  O34  1  0.94764600  0.88553600  0.55516100  1
  O  O35  1  0.94513500  0.09977800  0.55760100  1
  O  O36  1  0.05465600  0.88489400  0.44332400  1
  O  O37  1  0.55218100  0.59914100  0.44572400  1
  O  O38  1  0.44764600  0.38553600  0.55516100  1
  O  O39  1  0.44513500  0.59977800  0.55760100  1
  O  O40  1  0.55465600  0.38489400  0.44332400  1
  O  O41  1  0.05245100  0.99059200  0.55416200  1
  O  O42  1  0.94737000  0.99417600  0.44667500  1
  O  O43  1  0.55245100  0.49059200  0.55416200  1
  O  O44  1  0.44737000  0.49417600  0.44667500  1
  O  O45  1  0.94543700  0.99414500  0.66275500  1
  O  O46  1  0.05435900  0.99061400  0.33810600  1
  O  O47  1  0.44543700  0.49414500  0.66275500  1
  O  O48  1  0.55435900  0.49061400  0.33810600  1
