# generated using pymatgen
data_Fe2H25C56N4O16F3
_symmetry_space_group_name_H-M   'P 1'
_cell_length_a   9.29995500
_cell_length_b   17.08067100
_cell_length_c   15.34057700
_cell_angle_alpha   105.77359600
_cell_angle_beta   87.43995500
_cell_angle_gamma   76.95859900
_symmetry_Int_Tables_number   1
_chemical_formula_structural   Fe2H25C56N4O16F3
_chemical_formula_sum   'Fe2 H25 C56 N4 O16 F3'
_cell_volume   2269.94163736
_cell_formula_units_Z   1
loop_
 _symmetry_equiv_pos_site_id
 _symmetry_equiv_pos_as_xyz
  1  'x, y, z'
loop_
 _atom_site_type_symbol
 _atom_site_label
 _atom_site_symmetry_multiplicity
 _atom_site_fract_x
 _atom_site_fract_y
 _atom_site_fract_z
 _atom_site_occupancy
  Fe  Fe1  1  0.53594300  0.99811300  0.32632600  1
  Fe  Fe2  1  0.52414400  0.00862200  0.65833300  1
  H  H1  1  0.67691000  0.98098500  0.93339400  1
  H  H2  1  0.70437700  0.04699200  0.07587400  1
  H  H3  1  0.32473500  0.07248700  0.91436700  1
  H  H4  1  0.72768500  0.93777300  0.07197700  1
  H  H5  1  0.36054700  0.96176700  0.90463900  1
  H  H6  1  0.38756400  0.01476500  0.04849500  1
  H  H7  1  0.97643900  0.02635800  0.70427000  1
  H  H8  1  0.08594000  0.97328400  0.27846200  1
  H  H9  1  0.20167500  0.27422500  0.41857700  1
  H  H10  1  0.14767100  0.44075900  0.68870900  1
  H  H11  1  0.29184700  0.32905200  0.73997300  1
  H  H12  1  0.66382600  0.67593100  0.25444200  1
  H  H13  1  0.82651700  0.71748000  0.55960000  1
  H  H14  1  0.87014500  0.55140400  0.17105600  1
  H  H15  1  0.84771100  0.41858700  0.06715200  1
  H  H16  1  0.62679500  0.36564800  0.28551700  1
  H  H17  1  0.64676400  0.49888400  0.38979700  1
  H  H18  1  0.02513500  0.16502600  0.13926100  1
  H  H19  1  0.00935000  0.31100400  0.21470300  1
  H  H20  1  0.44861800  0.28554800  0.10151100  1
  H  H21  1  0.47310300  0.13606000  0.02947200  1
  H  H22  1  0.59831600  0.85793500  0.90147900  1
  H  H23  1  0.65043000  0.70491700  0.85077200  1
  H  H24  1  0.10970500  0.68822200  0.87433200  1
  H  H25  1  0.06119400  0.84005400  0.92470100  1
  C  C1  1  0.98980400  0.02154100  0.77230600  1
  C  C2  1  0.87939900  0.00115200  0.81745800  1
  C  C3  1  0.89840300  0.98923400  0.90328300  1
  C  C4  1  0.79033200  0.95510700  0.94795800  1
  C  C5  1  0.77898200  0.98303100  0.05045700  1
  C  C6  1  0.12285800  0.02494200  0.80707000  1
  C  C7  1  0.13724400  0.02059300  0.89614100  1
  C  C8  1  0.02259700  0.00552100  0.94553700  1
  C  C9  1  0.03885800  0.99859100  0.03876400  1
  C  C10  1  0.92383800  0.98366900  0.08805200  1
  C  C11  1  0.93905800  0.97697200  0.17612400  1
  C  C12  1  0.28130400  0.02383500  0.93402400  1
  C  C13  1  0.27495500  0.04552100  0.03666900  1
  C  C14  1  0.16519600  0.01168000  0.08003800  1
  C  C15  1  0.18379800  0.99926100  0.16564100  1
  C  C16  1  0.07287200  0.97886900  0.21063900  1
  C  C17  1  0.81602000  0.97155600  0.23707600  1
  C  C18  1  0.62230700  0.83714400  0.34227600  1
  C  C19  1  0.31487400  0.01083800  0.21388200  1
  C  C20  1  0.35783900  0.14097500  0.45004900  1
  C  C21  1  0.68701800  0.85761800  0.53529800  1
  C  C22  1  0.74797500  0.99076400  0.76928700  1
  C  C23  1  0.40598400  0.16870500  0.64620200  1
  C  C24  1  0.24520100  0.02986400  0.74513600  1
  C  C25  1  0.30692000  0.22318100  0.51763400  1
  C  C26  1  0.22246900  0.28728900  0.48918500  1
  C  C27  1  0.16370800  0.36587700  0.54967300  1
  C  C28  1  0.19143100  0.37999100  0.63962700  1
  C  C29  1  0.27452900  0.31612900  0.66880600  1
  C  C30  1  0.33227000  0.23686300  0.60893000  1
  C  C31  1  0.90232700  0.55599300  0.46339600  1
  C  C32  1  0.07141900  0.43320000  0.51898100  1
  C  C33  1  0.76503000  0.61561800  0.34838800  1
  C  C34  1  0.70215900  0.68527200  0.32105100  1
  C  C35  1  0.68044400  0.76576500  0.37859700  1
  C  C36  1  0.72055300  0.77586800  0.46652200  1
  C  C37  1  0.79151800  0.70686500  0.49206500  1
  C  C38  1  0.81657300  0.62630600  0.43368600  1
  C  C39  1  0.76306100  0.53309300  0.28785900  1
  C  C40  1  0.81717000  0.51070600  0.19681400  1
  C  C41  1  0.80440200  0.43613000  0.13819900  1
  C  C42  1  0.73600400  0.38404600  0.17001300  1
  C  C43  1  0.68104500  0.40632100  0.26063300  1
  C  C44  1  0.69393700  0.48082600  0.31941500  1
  C  C45  1  0.25158700  0.13874400  0.07739500  1
  C  C46  1  0.12069800  0.18898200  0.12963600  1
  C  C47  1  0.10977900  0.27271400  0.17216500  1
  C  C48  1  0.22678700  0.30759400  0.16170700  1
  C  C49  1  0.35631700  0.25842800  0.10942300  1
  C  C50  1  0.36928700  0.17430800  0.06847300  1
  C  C51  1  0.82573800  0.86090000  0.91503300  1
  C  C52  1  0.71156500  0.82148500  0.89466500  1
  C  C53  1  0.74037700  0.73509400  0.86646700  1
  C  C54  1  0.88337100  0.68720800  0.85883200  1
  C  C55  1  0.99750300  0.72579900  0.87979200  1
  C  C56  1  0.96916500  0.81222100  0.90819100  1
  N  N1  1  0.00036900  0.50632400  0.57995800  1
  N  N2  1  0.91739300  0.56686600  0.55248900  1
  N  N3  1  0.97490000  0.48310200  0.40232800  1
  N  N4  1  0.05747700  0.42235100  0.42978500  1
  O  O1  1  0.67736300  0.00822200  0.23212200  1
  O  O2  1  0.61333000  0.82315700  0.25448700  1
  O  O3  1  0.84659900  0.93808100  0.30365200  1
  O  O4  1  0.59014500  0.91492900  0.39496500  1
  O  O5  1  0.36829100  0.96092200  0.26285300  1
  O  O6  1  0.36844000  0.07630500  0.21774000  1
  O  O7  1  0.49856800  0.11214800  0.41695400  1
  O  O8  1  0.26118400  0.09772600  0.41988400  1
  O  O9  1  0.54788200  0.89617400  0.56658100  1
  O  O10  1  0.79518900  0.88978900  0.56869100  1
  O  O11  1  0.70018500  0.03903700  0.71740800  1
  O  O12  1  0.68827700  0.92808500  0.76885200  1
  O  O13  1  0.21425700  0.05426100  0.67260200  1
  O  O14  1  0.47261400  0.09397900  0.59214200  1
  O  O15  1  0.38487400  0.00117700  0.75545400  1
  O  O16  1  0.39411800  0.18070000  0.73470000  1
  F  F1  1  0.72439500  0.31054400  0.11240300  1
  F  F2  1  0.21482300  0.38998200  0.20340400  1
  F  F3  1  0.91158500  0.60229800  0.83145000  1
