# generated using pymatgen
data_Fe2H21C50N3(ClO8)2
_symmetry_space_group_name_H-M   'P 1'
_cell_length_a   14.27726600
_cell_length_b   9.39565400
_cell_length_c   17.66375600
_cell_angle_alpha   89.19374900
_cell_angle_beta   90.98652700
_cell_angle_gamma   109.78333000
_symmetry_Int_Tables_number   1
_chemical_formula_structural   Fe2H21C50N3(ClO8)2
_chemical_formula_sum   'Fe2 H21 C50 N3 Cl2 O16'
_cell_volume   2229.22617279
_cell_formula_units_Z   1
loop_
 _symmetry_equiv_pos_site_id
 _symmetry_equiv_pos_as_xyz
  1  'x, y, z'
loop_
 _atom_site_type_symbol
 _atom_site_label
 _atom_site_symmetry_multiplicity
 _atom_site_fract_x
 _atom_site_fract_y
 _atom_site_fract_z
 _atom_site_occupancy
  Fe  Fe1  1  0.49344600  0.00930100  0.15833700  1
  Fe  Fe2  1  0.50139000  0.98189300  0.83613300  1
  H  H1  1  0.84881100  0.02049100  0.14723200  1
  H  H2  1  0.97460100  0.98343100  0.86019700  1
  H  H3  1  0.18525600  0.98444700  0.12295500  1
  H  H4  1  0.13471400  0.21540000  0.17320300  1
  H  H5  1  0.11906200  0.14945700  0.31530000  1
  H  H6  1  0.97901100  0.87955500  0.33243900  1
  H  H7  1  0.91015800  0.78389300  0.19384400  1
  H  H8  1  0.51367700  0.25039400  0.62149300  1
  H  H9  1  0.50927900  0.70052000  0.58752600  1
  H  H10  1  0.49572800  0.74802400  0.37305200  1
  H  H11  1  0.49321900  0.29429000  0.40619800  1
  H  H12  1  0.50604000  0.52622300  0.80977500  1
  H  H13  1  0.50431800  0.47377100  0.18433900  1
  H  H14  1  0.73168800  0.73293900  0.71091000  1
  H  H15  1  0.77120200  0.96499600  0.63352700  1
  H  H16  1  0.83185500  0.21389600  0.69459900  1
  H  H17  1  0.85357800  0.23072800  0.83303400  1
  H  H18  1  0.12380200  0.73511100  0.68209900  1
  H  H19  1  0.11432000  0.95356800  0.60804500  1
  H  H20  1  0.12283600  0.18793500  0.67266100  1
  H  H21  1  0.14015400  0.20350100  0.81135400  1
  C  C1  1  0.84142700  0.01143100  0.08659500  1
  C  C2  1  0.75206600  0.00921900  0.05380200  1
  C  C3  1  0.74163900  0.00370300  0.97566400  1
  C  C4  1  0.81992500  0.00139100  0.93164500  1
  C  C5  1  0.90828900  0.99832500  0.96490000  1
  C  C6  1  0.91919700  0.00235500  0.04272000  1
  C  C7  1  0.98530100  0.99034700  0.92049600  1
  C  C8  1  0.07475800  0.99057100  0.95265200  1
  C  C9  1  0.08544600  0.99200700  0.03056500  1
  C  C10  1  0.00779400  0.99836100  0.07577800  1
  C  C11  1  0.15284700  0.98687700  0.90721500  1
  C  C12  1  0.24325700  0.99010400  0.93960700  1
  C  C13  1  0.25258800  0.98833800  0.01793300  1
  C  C14  1  0.17351500  0.98520200  0.06253400  1
  C  C15  1  0.07577600  0.07891400  0.27047400  1
  C  C16  1  0.00315300  0.93896200  0.27957200  1
  C  C17  1  0.96750100  0.88953200  0.20805900  1
  C  C18  1  0.01983300  0.00160800  0.15836800  1
  C  C19  1  0.67035800  0.01129900  0.10331800  1
  C  C20  1  0.49633900  0.74556300  0.22017700  1
  C  C21  1  0.34883900  0.01036500  0.05544200  1
  C  C22  1  0.49414400  0.22638100  0.26287200  1
  C  C23  1  0.50826000  0.76905000  0.73068400  1
  C  C24  1  0.64555300  0.98043300  0.93817500  1
  C  C25  1  0.51558800  0.25526400  0.77449500  1
  C  C26  1  0.32827100  0.99712800  0.89103200  1
  C  C27  1  0.51169700  0.37522300  0.72168800  1
  C  C28  1  0.51171700  0.35546500  0.64427100  1
  C  C29  1  0.50917200  0.46976200  0.59495400  1
  C  C30  1  0.50897700  0.60639400  0.62351000  1
  C  C31  1  0.50616900  0.62440100  0.70050500  1
  C  C32  1  0.50644400  0.50893300  0.74946300  1
  C  C33  1  0.49684700  0.64261900  0.35009300  1
  C  C34  1  0.49886300  0.62442200  0.27270100  1
  C  C35  1  0.50342000  0.49039400  0.24467800  1
  C  C36  1  0.50025100  0.37279400  0.29333400  1
  C  C37  1  0.49614800  0.38981800  0.37034300  1
  C  C38  1  0.49740800  0.52697100  0.39916500  1
  C  C39  1  0.80453100  0.99125000  0.84961700  1
  C  C40  1  0.77043400  0.85171800  0.81536000  1
  C  C41  1  0.75827200  0.84231000  0.73775900  1
  C  C42  1  0.78047200  0.97240700  0.69437400  1
  C  C43  1  0.81438100  0.11192100  0.72861900  1
  C  C44  1  0.82641500  0.12134100  0.80623200  1
  C  C45  1  0.13951500  0.97675300  0.82480000  1
  C  C46  1  0.13620800  0.84617100  0.78835200  1
  C  C47  1  0.12678000  0.83768900  0.71056400  1
  C  C48  1  0.12156500  0.96021800  0.66903200  1
  C  C49  1  0.12626100  0.09154100  0.70526400  1
  C  C50  1  0.13577100  0.10014000  0.78304600  1
  N  N1  1  0.08553200  0.11617800  0.19651200  1
  N  N2  1  0.50716500  0.44425200  0.51615400  1
  N  N3  1  0.49904100  0.55189700  0.47798800  1
  Cl  Cl1  1  0.74340600  0.68653700  0.87033900  1
  Cl  Cl2  1  0.14387900  0.69101900  0.84091500  1
  O  O1  1  0.58936000  0.03082000  0.07583500  1
  O  O2  1  0.50681200  0.73095200  0.14733800  1
  O  O3  1  0.67806600  0.99267400  0.17664200  1
  O  O4  1  0.48398900  0.86922100  0.24491800  1
  O  O5  1  0.35652100  0.92326300  0.11244700  1
  O  O6  1  0.42592000  0.12863800  0.03731300  1
  O  O7  1  0.53972400  0.21981800  0.19979900  1
  O  O8  1  0.43523600  0.10206700  0.29465700  1
  O  O9  1  0.46236500  0.77223700  0.79401100  1
  O  O10  1  0.56289700  0.89529200  0.69799000  1
  O  O11  1  0.63568200  0.07454100  0.88547800  1
  O  O12  1  0.57097900  0.85563200  0.95183700  1
  O  O13  1  0.33302900  0.05036400  0.82170000  1
  O  O14  1  0.51112400  0.12202600  0.74950700  1
  O  O15  1  0.40103100  0.95247700  0.91617200  1
  O  O16  1  0.51759400  0.27771500  0.84776500  1
