# generated using pymatgen
data_CuH9C13SNO4
_symmetry_space_group_name_H-M   'P 1'
_cell_length_a   7.31920700
_cell_length_b   8.80721700
_cell_length_c   15.85589900
_cell_angle_alpha   92.21144900
_cell_angle_beta   78.66818500
_cell_angle_gamma   103.49929800
_symmetry_Int_Tables_number   1
_chemical_formula_structural   CuH9C13SNO4
_chemical_formula_sum   'Cu2 H18 C26 S2 N2 O8'
_cell_volume   974.45963509
_cell_formula_units_Z   2
loop_
 _symmetry_equiv_pos_site_id
 _symmetry_equiv_pos_as_xyz
  1  'x, y, z'
loop_
 _atom_site_type_symbol
 _atom_site_label
 _atom_site_symmetry_multiplicity
 _atom_site_fract_x
 _atom_site_fract_y
 _atom_site_fract_z
 _atom_site_occupancy
  Cu  Cu1  1  0.31559600  0.48769800  0.49236100  1
  Cu  Cu2  1  0.67923200  0.52265000  0.51014000  1
  H  H1  1  0.99453100  0.36632100  0.04428600  1
  H  H2  1  0.00666700  0.62367500  0.95708200  1
  H  H3  1  0.38775000  0.49453600  0.22275100  1
  H  H4  1  0.60801000  0.53818500  0.77909600  1
  H  H5  1  0.92712300  0.36390300  0.90744400  1
  H  H6  1  0.07173000  0.61668200  0.09513700  1
  H  H7  1  0.21164200  0.41304300  0.14168000  1
  H  H8  1  0.79154800  0.58616000  0.85947100  1
  H  H9  1  0.70089400  0.04574900  0.51817700  1
  H  H10  1  0.29201600  0.96536500  0.48475000  1
  H  H11  1  0.02269500  0.61682900  0.56611600  1
  H  H12  1  0.97154900  0.38897500  0.43830100  1
  H  H13  1  0.08012100  0.30978500  0.30045600  1
  H  H14  1  0.93617600  0.30583700  0.21984600  1
  H  H15  1  0.82868400  0.31428600  0.33160300  1
  H  H16  1  0.03352400  0.16679300  0.64238400  1
  H  H17  1  0.83098700  0.11212000  0.73093400  1
  H  H18  1  0.07201300  0.16098200  0.75131200  1
  C  C1  1  0.53894200  0.80254700  0.50646400  1
  C  C2  1  0.45530400  0.20750000  0.49657800  1
  C  C3  1  0.38968700  0.48947500  0.66543600  1
  C  C4  1  0.60481400  0.52088200  0.33717500  1
  C  C5  1  0.32745000  0.47423600  0.75847400  1
  C  C6  1  0.66746500  0.53380100  0.24390900  1
  C  C7  1  0.07761400  0.40452900  0.88012500  1
  C  C8  1  0.92033500  0.58658500  0.12204600  1
  C  C9  1  0.13580700  0.42697700  0.79294800  1
  C  C10  1  0.85951900  0.56417000  0.20918800  1
  C  C11  1  0.46115000  0.50231200  0.81098600  1
  C  C12  1  0.53513500  0.51518600  0.19101100  1
  C  C13  1  0.40373100  0.48419100  0.89994400  1
  C  C14  1  0.59463100  0.52513900  0.10180900  1
  C  C15  1  0.21023000  0.43270500  0.93300300  1
  C  C16  1  0.78889500  0.56726000  0.06880500  1
  C  C17  1  0.53329100  0.51482500  0.95647400  1
  C  C18  1  0.46605700  0.49418600  0.04502100  1
  C  C19  1  0.27166200  0.43805000  0.07514300  1
  C  C20  1  0.72893100  0.56532900  0.92626100  1
  C  C21  1  0.14606800  0.40771700  0.01951200  1
  C  C22  1  0.85448100  0.58837300  0.98196300  1
  C  C23  1  0.56604800  0.97259700  0.50766700  1
  C  C24  1  0.42733200  0.03786100  0.49526600  1
  C  C25  1  0.96197500  0.35371400  0.28322300  1
  C  C26  1  0.97609300  0.18805300  0.71076800  1
  S  S1  1  0.02749400  0.56563700  0.27695300  1
  S  S2  1  0.96383000  0.39110800  0.72447100  1
  N  N1  1  0.95171100  0.54933800  0.52285600  1
  N  N2  1  0.04291100  0.46025200  0.47999600  1
  O  O1  1  0.37418700  0.71522700  0.49486500  1
  O  O2  1  0.62062700  0.29469200  0.50781100  1
  O  O3  1  0.68303800  0.74526800  0.51598500  1
  O  O4  1  0.31133900  0.26469200  0.48693500  1
  O  O5  1  0.25868000  0.47236200  0.61808900  1
  O  O6  1  0.73569100  0.53776900  0.38462600  1
  O  O7  1  0.57334400  0.51435600  0.63326500  1
  O  O8  1  0.42124000  0.49542300  0.36945000  1
