# generated using pymatgen
data_ZnH10C16NO4
_symmetry_space_group_name_H-M   'P 1'
_cell_length_a   8.45628400
_cell_length_b   15.04408700
_cell_length_c   12.37521500
_cell_angle_alpha   98.41737400
_cell_angle_beta   95.18007400
_cell_angle_gamma   89.84803400
_symmetry_Int_Tables_number   1
_chemical_formula_structural   ZnH10C16NO4
_chemical_formula_sum   'Zn2 H20 C32 N2 O8'
_cell_volume   1550.93009775
_cell_formula_units_Z   2
loop_
 _symmetry_equiv_pos_site_id
 _symmetry_equiv_pos_as_xyz
  1  'x, y, z'
loop_
 _atom_site_type_symbol
 _atom_site_label
 _atom_site_symmetry_multiplicity
 _atom_site_fract_x
 _atom_site_fract_y
 _atom_site_fract_z
 _atom_site_occupancy
  Zn  Zn1  1  0.51249300  0.48617000  0.11847900  1
  Zn  Zn2  1  0.47952700  0.49995900  0.87939600  1
  H  H1  1  0.98753100  0.42637000  0.93301400  1
  H  H2  1  0.00450100  0.55975700  0.06486900  1
  H  H3  1  0.24816500  0.19174200  0.97942700  1
  H  H4  1  0.74387300  0.79438100  0.01843200  1
  H  H5  1  0.74234500  0.19236700  0.98324300  1
  H  H6  1  0.24969500  0.79375300  0.01462800  1
  H  H7  1  0.77340500  0.05389300  0.89189900  1
  H  H8  1  0.21864400  0.93223000  0.10596300  1
  H  H9  1  0.77466200  0.89559800  0.90989900  1
  H  H10  1  0.21738900  0.09052400  0.08796100  1
  H  H11  1  0.79449200  0.43327400  0.46550600  1
  H  H12  1  0.68602200  0.39657800  0.57098300  1
  H  H13  1  0.71337600  0.59469900  0.61525500  1
  H  H14  1  0.97303600  0.45924400  0.65863400  1
  H  H15  1  0.95956100  0.57908900  0.72519200  1
  H  H16  1  0.19599400  0.55104400  0.53230400  1
  H  H17  1  0.23640700  0.47651300  0.40944600  1
  H  H18  1  0.43003500  0.64167200  0.42165200  1
  H  H19  1  0.07428400  0.61836500  0.35336900  1
  H  H20  1  0.21299400  0.70511300  0.31886700  1
  C  C1  1  0.13183800  0.31324900  0.95416700  1
  C  C2  1  0.86019400  0.67287600  0.04370400  1
  C  C3  1  0.13510200  0.22472100  0.97141100  1
  C  C4  1  0.85693500  0.76140400  0.02645400  1
  C  C5  1  0.99415200  0.17898200  0.97552900  1
  C  C6  1  0.99788800  0.80714200  0.02233800  1
  C  C7  1  0.85169500  0.22456300  0.97036900  1
  C  C8  1  0.14034100  0.76156100  0.02750300  1
  C  C9  1  0.84959800  0.31314000  0.95338100  1
  C  C10  1  0.14243100  0.67298700  0.04449500  1
  C  C11  1  0.98891600  0.35587800  0.94124700  1
  C  C12  1  0.00311400  0.63024900  0.05663100  1
  C  C13  1  0.87037300  0.02809900  0.94078700  1
  C  C14  1  0.12167800  0.95802300  0.05707300  1
  C  C15  1  0.87113300  0.93804400  0.95105300  1
  C  C16  1  0.12091800  0.04807800  0.04680600  1
  C  C17  1  0.99686800  0.90249500  0.00934900  1
  C  C18  1  0.99518000  0.08362800  0.98851300  1
  C  C19  1  0.27618000  0.36809800  0.96754800  1
  C  C20  1  0.71584900  0.61802800  0.03032500  1
  C  C21  1  0.70823400  0.36800100  0.96651000  1
  C  C22  1  0.28379000  0.61812700  0.03136500  1
  C  C23  1  0.43533600  0.50665700  0.52783900  1
  C  C24  1  0.55686500  0.48047800  0.47021000  1
  C  C25  1  0.54255600  0.47915500  0.35331400  1
  C  C26  1  0.44948200  0.50737400  0.64463300  1
  C  C27  1  0.70856400  0.45371500  0.52689600  1
  C  C28  1  0.77525700  0.53121100  0.60667900  1
  C  C29  1  0.91093000  0.52265200  0.66721100  1
  C  C30  1  0.28347600  0.53334400  0.47125900  1
  C  C31  1  0.31196300  0.61248200  0.41579200  1
  C  C32  1  0.19242400  0.64746500  0.35921100  1
  N  N1  1  0.46103300  0.50704300  0.73844700  1
  N  N2  1  0.53097500  0.47910100  0.25943100  1
  O  O1  1  0.31819900  0.40219900  0.88256600  1
  O  O2  1  0.67382300  0.58392800  0.11530500  1
  O  O3  1  0.33913700  0.39390300  0.06797000  1
  O  O4  1  0.65288700  0.59222400  0.92990600  1
  O  O5  1  0.66698500  0.39058700  0.06648900  1
  O  O6  1  0.32503900  0.59554100  0.93139100  1
  O  O7  1  0.64819000  0.40523600  0.88261600  1
  O  O8  1  0.34383200  0.58089200  0.11525200  1
