# generated using pymatgen
data_ZnH6C12NO4
_symmetry_space_group_name_H-M   'P 1'
_cell_length_a   12.34542700
_cell_length_b   8.55916900
_cell_length_c   10.72919400
_cell_angle_alpha   90.00000000
_cell_angle_beta   92.50535900
_cell_angle_gamma   90.00000000
_symmetry_Int_Tables_number   1
_chemical_formula_structural   ZnH6C12NO4
_chemical_formula_sum   'Zn2 H12 C24 N2 O8'
_cell_volume   1132.63373048
_cell_formula_units_Z   2
loop_
 _symmetry_equiv_pos_site_id
 _symmetry_equiv_pos_as_xyz
  1  'x, y, z'
loop_
 _atom_site_type_symbol
 _atom_site_label
 _atom_site_symmetry_multiplicity
 _atom_site_fract_x
 _atom_site_fract_y
 _atom_site_fract_z
 _atom_site_occupancy
  Zn  Zn1  1  0.11917200  0.50102500  0.48173100  1
  Zn  Zn2  1  0.88082800  0.50102500  0.51826900  1
  H  H1  1  0.50559000  0.50110200  0.35787700  1
  H  H2  1  0.49441000  0.50110200  0.64212300  1
  H  H3  1  0.00454100  0.38761400  0.88534600  1
  H  H4  1  0.92535900  0.63169100  0.09269700  1
  H  H5  1  0.99545900  0.38761400  0.11465500  1
  H  H6  1  0.07464100  0.63169100  0.90730400  1
  H  H7  1  0.11334300  0.28487000  0.06364600  1
  H  H8  1  0.92935200  0.64990700  0.88777100  1
  H  H9  1  0.88665700  0.28487000  0.93635400  1
  H  H10  1  0.07064800  0.64990700  0.11223000  1
  H  H11  1  0.06511300  0.00251400  0.58530800  1
  H  H12  1  0.93488700  0.00251400  0.41469200  1
  C  C1  1  0.05244900  0.00176000  0.68426000  1
  C  C2  1  0.94755100  0.00176000  0.31574000  1
  C  C3  1  0.03577200  0.14078600  0.74488300  1
  C  C4  1  0.96291700  0.86170700  0.25604800  1
  C  C5  1  0.96422800  0.14078600  0.25511700  1
  C  C6  1  0.03708300  0.86170700  0.74395200  1
  C  C7  1  0.01048800  0.13830800  0.86944400  1
  C  C8  1  0.98160700  0.85921100  0.13029100  1
  C  C9  1  0.98951200  0.13830800  0.13055700  1
  C  C10  1  0.01839300  0.85921100  0.86970900  1
  C  C11  1  0.97635600  0.28271600  0.93397700  1
  C  C12  1  0.99614500  0.70456500  0.07051200  1
  C  C13  1  0.02364400  0.28271600  0.06602400  1
  C  C14  1  0.00385500  0.70456500  0.92948900  1
  C  C15  1  0.00953800  0.99804800  0.93356700  1
  C  C16  1  0.99046200  0.99804800  0.06643300  1
  C  C17  1  0.53113000  0.50110800  0.55217700  1
  C  C18  1  0.46887000  0.50110800  0.44782400  1
  C  C19  1  0.35279100  0.50106300  0.45449700  1
  C  C20  1  0.64720900  0.50106300  0.54550300  1
  C  C21  1  0.02513200  0.28194500  0.66820800  1
  C  C22  1  0.97442800  0.72014800  0.33192800  1
  C  C23  1  0.97486800  0.28194500  0.33179300  1
  C  C24  1  0.02557100  0.72014800  0.66807300  1
  N  N1  1  0.74048700  0.50102900  0.53875900  1
  N  N2  1  0.25951300  0.50102900  0.46124100  1
  O  O1  1  0.92681300  0.33279600  0.64065700  1
  O  O2  1  0.07306000  0.66965200  0.35963300  1
  O  O3  1  0.07318700  0.33279600  0.35934300  1
  O  O4  1  0.92694000  0.66965200  0.64036700  1
  O  O5  1  0.11158500  0.33705400  0.61601900  1
  O  O6  1  0.88823000  0.66458500  0.38377400  1
  O  O7  1  0.88841500  0.33705400  0.38398100  1
  O  O8  1  0.11176900  0.66458500  0.61622600  1
