# generated using pymatgen
data_CuH6(C3O)4
_symmetry_space_group_name_H-M   'P 1'
_cell_length_a   24.46252800
_cell_length_b   26.70511800
_cell_length_c   13.77364400
_cell_angle_alpha   93.85566000
_cell_angle_beta   106.36736000
_cell_angle_gamma   88.93342700
_symmetry_Int_Tables_number   1
_chemical_formula_structural   CuH6(C3O)4
_chemical_formula_sum   'Cu12 H72 C144 O48'
_cell_volume   8613.78614177
_cell_formula_units_Z   12
loop_
 _symmetry_equiv_pos_site_id
 _symmetry_equiv_pos_as_xyz
  1  'x, y, z'
loop_
 _atom_site_type_symbol
 _atom_site_label
 _atom_site_symmetry_multiplicity
 _atom_site_fract_x
 _atom_site_fract_y
 _atom_site_fract_z
 _atom_site_occupancy
  Cu  Cu1  1  0.50585600  0.54057800  0.47038000  1
  Cu  Cu2  1  0.17779400  0.31476000  0.92382100  1
  Cu  Cu3  1  0.37579700  0.04661000  0.84153600  1
  Cu  Cu4  1  0.39482900  0.98508100  0.98748100  1
  Cu  Cu5  1  0.52284000  0.47796800  0.61416600  1
  Cu  Cu6  1  0.71878900  0.81370800  0.62209900  1
  Cu  Cu7  1  0.75352400  0.84850800  0.81098500  1
  Cu  Cu8  1  0.13883700  0.67698700  0.66003700  1
  Cu  Cu9  1  0.18471200  0.70307400  0.85200800  1
  Cu  Cu10  1  0.71686600  0.20436600  0.53575800  1
  Cu  Cu11  1  0.77519000  0.20066800  0.40310000  1
  Cu  Cu12  1  0.13134700  0.32389600  0.07337400  1
  H  H1  1  0.56060800  0.64969500  0.76491100  1
  H  H2  1  0.30406100  0.42949600  0.67578000  1
  H  H3  1  0.37153800  0.47564900  0.62019900  1
  H  H4  1  0.41807900  0.65000400  0.63484500  1
  H  H5  1  0.74997900  0.36886700  0.56364900  1
  H  H6  1  0.65826500  0.29493100  0.23835700  1
  H  H7  1  0.57324800  0.31409200  0.10575600  1
  H  H8  1  0.51592800  0.38836300  0.12577500  1
  H  H9  1  0.54320000  0.44346600  0.27733600  1
  H  H10  1  0.69465900  0.44283800  0.58396100  1
  H  H11  1  0.40556700  0.45251500  0.22177900  1
  H  H12  1  0.68588000  0.53283400  0.66536100  1
  H  H13  1  0.39284000  0.39474300  0.54110300  1
  H  H14  1  0.34247000  0.32828300  0.58379900  1
  H  H15  1  0.27803700  0.27434500  0.45127000  1
  H  H16  1  0.26309200  0.28925100  0.27533500  1
  H  H17  1  0.32887700  0.40936600  0.09611200  1
  H  H18  1  0.99383400  0.77040000  0.61856300  1
  H  H19  1  0.05190400  0.69506200  0.93769900  1
  H  H20  1  0.00660800  0.68175000  0.06676600  1
  H  H21  1  0.90849700  0.70952200  0.04872000  1
  H  H22  1  0.85595500  0.75030100  0.90152100  1
  H  H23  1  0.78283400  0.53704600  0.65491800  1
  H  H24  1  0.89675600  0.79782200  0.60104500  1
  H  H25  1  0.83314300  0.07461900  0.68804100  1
  H  H26  1  0.72498200  0.06643500  0.34277900  1
  H  H27  1  0.65540100  0.00946800  0.23632700  1
  H  H28  1  0.63048500  0.93305400  0.30296300  1
  H  H29  1  0.67499500  0.91353400  0.47209000  1
  H  H30  1  0.82354900  0.99231800  0.74766600  1
  H  H31  1  0.56379500  0.82932800  0.80156000  1
  H  H32  1  0.62678700  0.93755700  0.59835500  1
  H  H33  1  0.61368300  0.02501800  0.56537700  1
  H  H34  1  0.83825400  0.61481100  0.70837200  1
  H  H35  1  0.55139400  0.07725100  0.64182400  1
  H  H36  1  0.50321600  0.04296200  0.74931600  1
  H  H37  1  0.49246900  0.87607500  0.86146300  1
  H  H38  1  0.17675000  0.57454000  0.99422100  1
  H  H39  1  0.03947300  0.56527400  0.66402200  1
  H  H40  1  0.98220000  0.49869100  0.56206700  1
  H  H41  1  0.98588600  0.41439600  0.62375400  1
  H  H42  1  0.04603400  0.39744900  0.78974100  1
  H  H43  1  0.17275300  0.49344700  0.05709500  1
  H  H44  1  0.21120800  0.93705000  0.83324100  1
  H  H45  1  0.79672100  0.68829900  0.77300300  1
  H  H46  1  0.34957200  0.92344500  0.65208700  1
  H  H47  1  0.37630600  0.85808800  0.54350600  1
  H  H48  1  0.32419000  0.77828500  0.50323000  1
  H  H49  1  0.24517800  0.76368900  0.57084900  1
  H  H50  1  0.15855000  0.85886800  0.79162700  1
  H  H51  1  0.03014600  0.22261800  0.72991500  1
  H  H52  1  0.99257400  0.36816700  0.92196700  1
  H  H53  1  0.90816600  0.41240200  0.93237600  1
  H  H54  1  0.81430800  0.38460100  0.82553400  1
  H  H55  1  0.80523700  0.31257400  0.70866200  1
  H  H56  1  0.61572700  0.72668600  0.81863400  1
  H  H57  1  0.93759300  0.19691600  0.61986700  1
  H  H58  1  0.54982000  0.16532100  0.32715600  1
  H  H59  1  0.70805500  0.11511200  0.19378600  1
  H  H60  1  0.71424200  0.07666100  0.03772000  1
  H  H61  1  0.62845100  0.05000200  0.90448700  1
  H  H62  1  0.53625500  0.06219100  0.93069300  1
  H  H63  1  0.46779700  0.12753100  0.20227900  1
  H  H64  1  0.15221000  0.15676700  0.88691800  1
  H  H65  1  0.21781400  0.21004700  0.23474800  1
  H  H66  1  0.29507700  0.18483000  0.37625300  1
  H  H67  1  0.34464600  0.69290900  0.69820700  1
  H  H68  1  0.35904500  0.11631600  0.35244900  1
  H  H69  1  0.34559600  0.07240000  0.18884600  1
  H  H70  1  0.21089700  0.08597400  0.86491300  1
  H  H71  1  0.24079700  0.56339800  0.78505600  1
  H  H72  1  0.23873800  0.47313100  0.75923600  1
  C  C1  1  0.59216100  0.46245900  0.47509800  1
  C  C2  1  0.25737100  0.65119600  0.74006000  1
  C  C3  1  0.08223700  0.51949100  0.78714800  1
  C  C4  1  0.11913700  0.55651300  0.84606900  1
  C  C5  1  0.14840700  0.54699500  0.94519000  1
  C  C6  1  0.14596000  0.50087900  0.98246300  1
  C  C7  1  0.11505500  0.46263000  0.92136200  1
  C  C8  1  0.32542600  0.88896200  0.63560700  1
  C  C9  1  0.34086200  0.85205900  0.57372500  1
  C  C10  1  0.31166500  0.80735700  0.55115500  1
  C  C11  1  0.26676500  0.79935900  0.59006400  1
  C  C12  1  0.24976100  0.83661400  0.65049200  1
  C  C13  1  0.19041400  0.77710200  0.71123500  1
  C  C14  1  0.27960100  0.88187200  0.67380600  1
  C  C15  1  0.26622300  0.91794200  0.74132000  1
  C  C16  1  0.22030200  0.91026900  0.77741700  1
  C  C17  1  0.19063700  0.86589800  0.75395500  1
  C  C18  1  0.20644000  0.82786600  0.69468600  1
  C  C19  1  0.95240700  0.35247300  0.87740900  1
  C  C20  1  0.90438800  0.37881400  0.88256200  1
  C  C21  1  0.85190900  0.36331700  0.82268600  1
  C  C22  1  0.84722100  0.32159900  0.75677600  1
  C  C23  1  0.89505900  0.29364400  0.75202500  1
  C  C24  1  0.06365700  0.72523500  0.76597600  1
  C  C25  1  0.94859600  0.30904200  0.81400700  1
  C  C26  1  0.99767400  0.28263200  0.80765200  1
  C  C27  1  0.99266100  0.24313000  0.73627200  1
  C  C28  1  0.94003200  0.22838600  0.67451100  1
  C  C29  1  0.89075200  0.25227900  0.68262400  1
  C  C30  1  0.66824900  0.10788800  0.13761800  1
  C  C31  1  0.67269300  0.08414900  0.04846500  1
  C  C32  1  0.62484000  0.06898000  0.97423800  1
  C  C33  1  0.57236800  0.07619800  0.99027800  1
  C  C34  1  0.56678200  0.10051500  0.07944700  1
  C  C35  1  0.83714200  0.23553300  0.60755500  1
  C  C36  1  0.61524400  0.11857400  0.15388600  1
  C  C37  1  0.60945200  0.14382100  0.24409900  1
  C  C38  1  0.55567300  0.14709100  0.25835200  1
  C  C39  1  0.50874600  0.12647200  0.18677100  1
  C  C40  1  0.51340000  0.10406200  0.09636200  1
  C  C41  1  0.24553000  0.18019200  0.22140200  1
  C  C42  1  0.28890200  0.16573200  0.30228100  1
  C  C43  1  0.32462700  0.12724300  0.28899600  1
  C  C44  1  0.31657200  0.10239500  0.19522300  1
  C  C45  1  0.27184100  0.11531600  0.11351200  1
  C  C46  1  0.77378400  0.11072300  0.51641300  1
  C  C47  1  0.23652100  0.15545400  0.12663600  1
  C  C48  1  0.19506100  0.17229700  0.04335600  1
  C  C49  1  0.18370200  0.14398800  0.95270300  1
  C  C50  1  0.21755900  0.10407700  0.93993000  1
  C  C51  1  0.26401200  0.09133600  0.01725700  1
  C  C52  1  0.65789900  0.16677800  0.32602100  1
  C  C53  1  0.71585200  0.29457700  0.42921800  1
  C  C54  1  0.25201400  0.34729900  0.12635200  1
  C  C55  1  0.17959300  0.22562200  0.03328300  1
  C  C56  1  0.05488100  0.29465100  0.87613400  1
  C  C57  1  0.58837800  0.57098500  0.66265500  1
  C  C58  1  0.12818000  0.41112900  0.95134800  1
  C  C59  1  0.46094000  0.97038500  0.83837000  1
  C  C60  1  0.46468100  0.07463900  0.03139900  1
  C  C61  1  0.30872700  0.06287200  0.98491100  1
  C  C62  1  0.30861600  0.95455100  0.80051700  1
  C  C63  1  0.70890500  0.56765900  0.68963000  1
  C  C64  1  0.76404300  0.56966800  0.68367700  1
  C  C65  1  0.79504400  0.61320500  0.71354200  1
  C  C66  1  0.77106900  0.65484200  0.74974600  1
  C  C67  1  0.71595800  0.65308500  0.75800500  1
  C  C68  1  0.43426200  0.55236000  0.60882600  1
  C  C69  1  0.68457700  0.60914000  0.72735100  1
  C  C70  1  0.62801200  0.60813800  0.72793700  1
  C  C71  1  0.60527900  0.64950400  0.76812100  1
  C  C72  1  0.63671800  0.69296300  0.79977200  1
  C  C73  1  0.69113100  0.69600700  0.79006500  1
  C  C74  1  0.27069200  0.54574000  0.74902000  1
  C  C75  1  0.26939200  0.49426800  0.73536100  1
  C  C76  1  0.30616900  0.46986000  0.68932300  1
  C  C77  1  0.34552000  0.49667300  0.65968000  1
  C  C78  1  0.34930500  0.54861200  0.67708400  1
  C  C79  1  0.43664200  0.45005300  0.42079300  1
  C  C80  1  0.30994100  0.57336000  0.71890600  1
  C  C81  1  0.30856300  0.62546600  0.72746200  1
  C  C82  1  0.34734600  0.65242500  0.69631900  1
  C  C83  1  0.38774000  0.62812000  0.65798600  1
  C  C84  1  0.38928300  0.57636500  0.64789300  1
  C  C85  1  0.63422300  0.32803900  0.24959100  1
  C  C86  1  0.58608800  0.33870500  0.17381000  1
  C  C87  1  0.55401700  0.38030400  0.18505000  1
  C  C88  1  0.56996600  0.41154400  0.27193400  1
  C  C89  1  0.61921400  0.40212100  0.34813500  1
  C  C90  1  0.70963900  0.74504900  0.76917800  1
  C  C91  1  0.65156500  0.35969700  0.33658500  1
  C  C92  1  0.69831700  0.34706200  0.41531900  1
  C  C93  1  0.71529100  0.37941600  0.50028100  1
  C  C94  1  0.68364200  0.42121900  0.51194900  1
  C  C95  1  0.63407300  0.43182100  0.43907900  1
  C  C96  1  0.36623200  0.37237200  0.47886300  1
  C  C97  1  0.33658300  0.33467800  0.50483300  1
  C  C98  1  0.30026300  0.30478600  0.43089400  1
  C  C99  1  0.29124500  0.31425600  0.33088600  1
  C  C100  1  0.31883200  0.35355800  0.30296500  1
  C  C101  1  0.83771300  0.79556200  0.73301500  1
  C  C102  1  0.36013300  0.38102200  0.37762600  1
  C  C103  1  0.39231200  0.41745600  0.34911900  1
  C  C104  1  0.38138400  0.42511900  0.24670300  1
  C  C105  1  0.33843900  0.39978600  0.17414900  1
  C  C106  1  0.30551100  0.36508800  0.20136600  1
  C  C107  1  0.00982600  0.71028800  0.92763700  1
  C  C108  1  0.98405500  0.70177700  0.00169200  1
  C  C109  1  0.92920200  0.71734700  0.99165600  1
  C  C110  1  0.89986200  0.74152100  0.90756500  1
  C  C111  1  0.92558900  0.75181100  0.83287200  1
  C  C112  1  0.75795500  0.91597300  0.65131100  1
  C  C113  1  0.98152700  0.73605100  0.84331200  1
  C  C114  1  0.00684800  0.74392900  0.76654200  1
  C  C115  1  0.97516400  0.76501600  0.67948800  1
  C  C116  1  0.92003700  0.78025200  0.66895500  1
  C  C117  1  0.89518700  0.77493000  0.74550700  1
  C  C118  1  0.71674800  0.03275100  0.37480400  1
  C  C119  1  0.67712400  0.00037700  0.31292700  1
  C  C120  1  0.66355300  0.95753600  0.34993700  1
  C  C121  1  0.69117600  0.94591400  0.44728600  1
  C  C122  1  0.73458600  0.97641200  0.50978100  1
  C  C123  1  0.63512100  0.86466700  0.71270400  1
  C  C124  1  0.74525000  0.02171600  0.47346300  1
  C  C125  1  0.78086100  0.05737500  0.53764100  1
  C  C126  1  0.80781600  0.04616800  0.63604300  1
  C  C127  1  0.80105200  0.00000400  0.67056000  1
  C  C128  1  0.76435900  0.96466200  0.60926300  1
  C  C129  1  0.59827800  0.95889500  0.63197600  1
  C  C130  1  0.59090200  0.00862400  0.61223900  1
  C  C131  1  0.55584100  0.03768800  0.65449200  1
  C  C132  1  0.52703300  0.01695100  0.71452900  1
  C  C133  1  0.53153900  0.96591500  0.73179600  1
  C  C134  1  0.13152900  0.60513000  0.81004000  1
  C  C135  1  0.56921800  0.93711800  0.69159700  1
  C  C136  1  0.58073300  0.88767700  0.71616900  1
  C  C137  1  0.55274200  0.86679600  0.77742300  1
  C  C138  1  0.51354200  0.89399000  0.81379300  1
  C  C139  1  0.50272400  0.94373600  0.79339000  1
  C  C140  1  0.04500500  0.52860000  0.69310300  1
  C  C141  1  0.01098700  0.49095200  0.63485400  1
  C  C142  1  0.01291100  0.44380700  0.66945300  1
  C  C143  1  0.04774600  0.43445000  0.76378300  1
  C  C144  1  0.08192400  0.47212000  0.82412400  1
  O  O1  1  0.56491100  0.50057000  0.42688900  1
  O  O2  1  0.73195700  0.78046700  0.84039800  1
  O  O3  1  0.79756000  0.78816800  0.64657100  1
  O  O4  1  0.82741200  0.82278400  0.80843200  1
  O  O5  1  0.74424200  0.87627300  0.58903700  1
  O  O6  1  0.76501900  0.91195500  0.74933800  1
  O  O7  1  0.64460900  0.84424100  0.62878900  1
  O  O8  1  0.67608300  0.86807600  0.79729500  1
  O  O9  1  0.12181500  0.61338400  0.71313400  1
  O  O10  1  0.15831500  0.63916500  0.87890000  1
  O  O11  1  0.21276400  0.65041800  0.66085100  1
  O  O12  1  0.58151800  0.44938800  0.55791800  1
  O  O13  1  0.25437600  0.67140600  0.82846000  1
  O  O14  1  0.16309700  0.74490000  0.63736700  1
  O  O15  1  0.20240900  0.76557300  0.80571800  1
  O  O16  1  0.06917300  0.70462800  0.68041000  1
  O  O17  1  0.10822300  0.72992700  0.84643800  1
  O  O18  1  0.78915600  0.22993500  0.63172200  1
  O  O19  1  0.83921800  0.22353600  0.51496500  1
  O  O20  1  0.74377000  0.13747300  0.56557500  1
  O  O21  1  0.79034700  0.13017000  0.44349500  1
  O  O22  1  0.65444900  0.17515300  0.41980900  1
  O  O23  1  0.56336200  0.58162600  0.56884500  1
  O  O24  1  0.70450400  0.17938100  0.30504800  1
  O  O25  1  0.69755600  0.27172100  0.49512300  1
  O  O26  1  0.75038800  0.27144200  0.38266700  1
  O  O27  1  0.20609800  0.34488900  0.15692600  1
  O  O28  1  0.24864900  0.33737900  0.02957500  1
  O  O29  1  0.15375400  0.25208500  0.09187800  1
  O  O30  1  0.19169700  0.24620800  0.95837000  1
  O  O31  1  0.06083700  0.30376600  0.97319500  1
  O  O32  1  0.09978200  0.29537900  0.84103600  1
  O  O33  1  0.11615800  0.39393200  0.03072700  1
  O  O34  1  0.57707200  0.52867600  0.69684400  1
  O  O35  1  0.15493400  0.38295400  0.89831100  1
  O  O36  1  0.43064200  0.00714600  0.79209100  1
  O  O37  1  0.45183400  0.95555400  0.92204900  1
  O  O38  1  0.43823600  0.08647500  0.93820500  1
  O  O39  1  0.45127200  0.03339900  0.06565600  1
  O  O40  1  0.32017600  0.07689700  0.90338000  1
  O  O41  1  0.33519300  0.02398900  0.03129000  1
  O  O42  1  0.31814800  0.99695400  0.76449900  1
  O  O43  1  0.33630200  0.94398600  0.89303200  1
  O  O44  1  0.44793100  0.57028700  0.53196700  1
  O  O45  1  0.46197300  0.51391200  0.65361400  1
  O  O46  1  0.44800900  0.49326600  0.39077700  1
  O  O47  1  0.46579900  0.43644300  0.51108100  1
  O  O48  1  0.70052200  0.75321000  0.67353800  1
