# generated using pymatgen
data_ZnH5C6NO5
_symmetry_space_group_name_H-M   'P 1'
_cell_length_a   7.67352100
_cell_length_b   8.90209500
_cell_length_c   11.06689300
_cell_angle_alpha   89.99116300
_cell_angle_beta   84.08535200
_cell_angle_gamma   91.43128500
_symmetry_Int_Tables_number   1
_chemical_formula_structural   ZnH5C6NO5
_chemical_formula_sum   'Zn2 H10 C12 N2 O10'
_cell_volume   751.72211299
_cell_formula_units_Z   2
loop_
 _symmetry_equiv_pos_site_id
 _symmetry_equiv_pos_as_xyz
  1  'x, y, z'
loop_
 _atom_site_type_symbol
 _atom_site_label
 _atom_site_symmetry_multiplicity
 _atom_site_fract_x
 _atom_site_fract_y
 _atom_site_fract_z
 _atom_site_occupancy
  Zn  Zn1  1  0.30330300  0.53155000  0.51632000  1
  Zn  Zn2  1  0.69924300  0.49651500  0.48773300  1
  H  H1  1  0.76659200  0.49870400  0.09671200  1
  H  H2  1  0.36686600  0.50228300  0.10235000  1
  H  H3  1  0.76445100  0.48194600  0.86989800  1
  H  H4  1  0.37436800  0.54921000  0.92031400  1
  H  H5  1  0.30412400  0.00879500  0.53791600  1
  H  H6  1  0.03517100  0.40373200  0.41255700  1
  H  H7  1  0.96740100  0.62447200  0.59152400  1
  H  H8  1  0.05008600  0.11579900  0.43125900  1
  H  H9  1  0.07104600  0.06398200  0.27226800  1
  H  H10  1  0.12365900  0.93049500  0.38564000  1
  C  C1  1  0.54497600  0.80625100  0.49180600  1
  C  C2  1  0.50228600  0.52144300  0.73799100  1
  C  C3  1  0.45786000  0.22182700  0.51114000  1
  C  C4  1  0.49963600  0.50665900  0.26611300  1
  C  C5  1  0.64195400  0.50165400  0.05883500  1
  C  C6  1  0.49479100  0.50362800  0.13449300  1
  C  C7  1  0.64214000  0.50116200  0.92525600  1
  C  C8  1  0.49851700  0.52528400  0.87022200  1
  C  C9  1  0.56995900  0.96999000  0.48743400  1
  C  C10  1  0.43388800  0.05811300  0.51507200  1
  C  C11  1  0.85089300  0.96497700  0.37929000  1
  C  C12  1  0.03572400  0.02253000  0.36632400  1
  N  N1  1  0.95922700  0.47347600  0.46903200  1
  N  N2  1  0.04332400  0.55462200  0.53513200  1
  O  O1  1  0.38431100  0.75002100  0.50555800  1
  O  O2  1  0.68454200  0.72331200  0.48464800  1
  O  O3  1  0.35223200  0.53367500  0.69261300  1
  O  O4  1  0.65239900  0.50572700  0.67122400  1
  O  O5  1  0.31790200  0.30464300  0.52066800  1
  O  O6  1  0.61825200  0.27816400  0.49762700  1
  O  O7  1  0.34996400  0.52101300  0.33312800  1
  O  O8  1  0.65066500  0.49567400  0.31110600  1
  O  O9  1  0.73047200  0.03238800  0.45697800  1
  O  O10  1  0.80688400  0.86431600  0.31332400  1
