# generated using pymatgen
data_ZnH15C34Br(NO3)2
_symmetry_space_group_name_H-M   'P 1'
_cell_length_a   21.40254700
_cell_length_b   8.55516300
_cell_length_c   14.41587900
_cell_angle_alpha   90.00000000
_cell_angle_beta   78.29741700
_cell_angle_gamma   90.00000000
_symmetry_Int_Tables_number   1
_chemical_formula_structural   ZnH15C34Br(NO3)2
_chemical_formula_sum   'Zn2 H30 C68 Br2 N4 O12'
_cell_volume   2584.71309391
_cell_formula_units_Z   2
loop_
 _symmetry_equiv_pos_site_id
 _symmetry_equiv_pos_as_xyz
  1  'x, y, z'
loop_
 _atom_site_type_symbol
 _atom_site_label
 _atom_site_symmetry_multiplicity
 _atom_site_fract_x
 _atom_site_fract_y
 _atom_site_fract_z
 _atom_site_occupancy
  Zn  Zn1  1  0.52132500  0.49013600  0.59230300  1
  Zn  Zn2  1  0.47867500  0.49013600  0.40769600  1
  H  H1  1  0.30029300  0.73837400  0.67174700  1
  H  H2  1  0.68052300  0.23498500  0.29056100  1
  H  H3  1  0.69970700  0.73837400  0.32825300  1
  H  H4  1  0.31947700  0.23498500  0.70943800  1
  H  H5  1  0.15949500  0.61911600  0.91086600  1
  H  H6  1  0.87587700  0.36756700  0.18798600  1
  H  H7  1  0.84050400  0.61911600  0.08913300  1
  H  H8  1  0.12412300  0.36756700  0.81201300  1
  H  H9  1  0.94930600  0.61071200  0.00245400  1
  H  H10  1  0.02591800  0.37585200  0.92782500  1
  H  H11  1  0.05069400  0.61071200  0.99754500  1
  H  H12  1  0.97408200  0.37585200  0.07217400  1
  H  H13  1  0.44767900  0.99063400  0.49850500  1
  H  H14  1  0.55232000  0.99063400  0.50149400  1
  H  H15  1  0.66831600  0.46278600  0.94335200  1
  H  H16  1  0.33168400  0.46278600  0.05664700  1
  H  H17  1  0.54299600  0.49680500  0.21861000  1
  H  H18  1  0.45700400  0.49680500  0.78139000  1
  H  H19  1  0.35706200  0.49275200  0.37370500  1
  H  H20  1  0.64293700  0.49275200  0.62629400  1
  H  H21  1  0.60156800  0.46527600  0.09093800  1
  H  H22  1  0.39843200  0.46527600  0.90906100  1
  H  H23  1  0.72402900  0.31597300  0.66710300  1
  H  H24  1  0.84036300  0.34300600  0.64390000  1
  H  H25  1  0.81685800  0.73095500  0.83295600  1
  H  H26  1  0.70044500  0.70558500  0.85553400  1
  H  H27  1  0.27597100  0.31597300  0.33289600  1
  H  H28  1  0.15963700  0.34300500  0.35609900  1
  H  H29  1  0.18314200  0.73095500  0.16704300  1
  H  H30  1  0.29955500  0.70558400  0.14446500  1
  C  C1  1  0.21769400  0.86735500  0.82086300  1
  C  C2  1  0.80134000  0.11843800  0.23110400  1
  C  C3  1  0.78230600  0.86735500  0.17913600  1
  C  C4  1  0.19866000  0.11843800  0.76889500  1
  C  C5  1  0.33162900  0.12696400  0.67141300  1
  C  C6  1  0.67636400  0.84967200  0.34321700  1
  C  C7  1  0.66837100  0.12696400  0.32858700  1
  C  C8  1  0.32363600  0.84967200  0.65678300  1
  C  C9  1  0.38174900  0.12870500  0.59431500  1
  C  C10  1  0.61968000  0.85101300  0.40872200  1
  C  C11  1  0.61825100  0.12870500  0.40568400  1
  C  C12  1  0.38032000  0.85101300  0.59127700  1
  C  C13  1  0.29789000  0.98926100  0.69767200  1
  C  C14  1  0.70211000  0.98926100  0.30232700  1
  C  C15  1  0.11918400  0.99335500  0.88388400  1
  C  C16  1  0.88081600  0.99335500  0.11611500  1
  C  C17  1  0.15595500  0.86117000  0.87322200  1
  C  C18  1  0.85767400  0.12548600  0.16458900  1
  C  C19  1  0.84404500  0.86117000  0.12677700  1
  C  C20  1  0.14232600  0.12548600  0.83541000  1
  C  C21  1  0.13124900  0.72472000  0.91702600  1
  C  C22  1  0.89257500  0.26205800  0.14965400  1
  C  C23  1  0.86875100  0.72472000  0.08297300  1
  C  C24  1  0.10742400  0.26205800  0.85034600  1
  C  C25  1  0.40549000  0.99027300  0.55395500  1
  C  C26  1  0.59451000  0.99027300  0.44604400  1
  C  C27  1  0.96820500  0.85409400  0.02328400  1
  C  C28  1  0.02779800  0.13246400  0.96544700  1
  C  C29  1  0.03179500  0.85409400  0.97671500  1
  C  C30  1  0.97220200  0.13246400  0.03455200  1
  C  C31  1  0.94042700  0.99331400  0.05780500  1
  C  C32  1  0.05957300  0.99331400  0.94219400  1
  C  C33  1  0.93153500  0.71931100  0.03534100  1
  C  C34  1  0.05194700  0.26738200  0.91831400  1
  C  C35  1  0.06846500  0.71931100  0.96465800  1
  C  C36  1  0.94805300  0.26738200  0.08168600  1
  C  C37  1  0.41773300  0.27125000  0.56462000  1
  C  C38  1  0.58291300  0.70847000  0.43609500  1
  C  C39  1  0.58226700  0.27125000  0.43538000  1
  C  C40  1  0.41708700  0.70847000  0.56390400  1
  C  C41  1  0.63542300  0.49309700  0.77562700  1
  C  C42  1  0.36457700  0.49309700  0.22437200  1
  C  C43  1  0.61098000  0.48984800  0.69470900  1
  C  C44  1  0.38902000  0.48984800  0.30529000  1
  C  C45  1  0.50664900  0.49192600  0.78402400  1
  C  C46  1  0.49335100  0.49192600  0.21597500  1
  C  C47  1  0.52881500  0.48843400  0.86898700  1
  C  C48  1  0.47118500  0.48843400  0.13101200  1
  C  C49  1  0.59426500  0.48854700  0.86340700  1
  C  C50  1  0.40573400  0.48854700  0.13659300  1
  C  C51  1  0.48757200  0.48498300  0.95871300  1
  C  C52  1  0.51242800  0.48498300  0.04128600  1
  C  C53  1  0.57818000  0.47667100  0.03221000  1
  C  C54  1  0.42182000  0.47667100  0.96778900  1
  C  C55  1  0.61807400  0.47691500  0.94500700  1
  C  C56  1  0.38192600  0.47691500  0.05499200  1
  C  C57  1  0.70475500  0.50588100  0.76515800  1
  C  C58  1  0.74423000  0.40688500  0.70402300  1
  C  C59  1  0.80958400  0.42184000  0.69101000  1
  C  C60  1  0.83568900  0.53747800  0.73784900  1
  C  C61  1  0.79641500  0.63900900  0.79713200  1
  C  C62  1  0.73105700  0.62397300  0.81028300  1
  C  C63  1  0.29524500  0.50588100  0.23484100  1
  C  C64  1  0.25577000  0.40688500  0.29597700  1
  C  C65  1  0.19041600  0.42183900  0.30898900  1
  C  C66  1  0.16431000  0.53747800  0.26215000  1
  C  C67  1  0.20358500  0.63900800  0.20286700  1
  C  C68  1  0.26894300  0.62397300  0.18971600  1
  Br  Br1  1  0.92602600  0.55826700  0.71964000  1
  Br  Br2  1  0.07397400  0.55826700  0.28035900  1
  N  N1  1  0.23765500  0.99216800  0.76439800  1
  N  N2  1  0.76234500  0.99216800  0.23560100  1
  N  N3  1  0.54771300  0.49010300  0.69983200  1
  N  N4  1  0.45228700  0.49010300  0.30016700  1
  O  O1  1  0.25783200  0.74991000  0.82906600  1
  O  O2  1  0.78745600  0.23596200  0.29365600  1
  O  O3  1  0.74216800  0.74991000  0.17093300  1
  O  O4  1  0.21254400  0.23596200  0.70634300  1
  O  O5  1  0.42236100  0.32048200  0.47696000  1
  O  O6  1  0.57804100  0.65870900  0.52309800  1
  O  O7  1  0.57763900  0.32048200  0.52303900  1
  O  O8  1  0.42195900  0.65870900  0.47690100  1
  O  O9  1  0.45206400  0.32776500  0.62227300  1
  O  O10  1  0.54775600  0.65361100  0.37829900  1
  O  O11  1  0.54793600  0.32776500  0.37772700  1
  O  O12  1  0.45224400  0.65361100  0.62170000  1
