# generated using pymatgen
data_ZnH7C14NO7
_symmetry_space_group_name_H-M   'P 1'
_cell_length_a   12.96762600
_cell_length_b   14.08451900
_cell_length_c   17.54433800
_cell_angle_alpha   89.71360900
_cell_angle_beta   90.25011100
_cell_angle_gamma   91.09176800
_symmetry_Int_Tables_number   1
_chemical_formula_structural   ZnH7C14NO7
_chemical_formula_sum   'Zn2 H14 C28 N2 O14'
_cell_volume   3203.69561640
_cell_formula_units_Z   2
loop_
 _symmetry_equiv_pos_site_id
 _symmetry_equiv_pos_as_xyz
  1  'x, y, z'
loop_
 _atom_site_type_symbol
 _atom_site_label
 _atom_site_symmetry_multiplicity
 _atom_site_fract_x
 _atom_site_fract_y
 _atom_site_fract_z
 _atom_site_occupancy
  Zn  Zn1  1  0.38323700  0.50743300  0.50216200  1
  Zn  Zn2  1  0.61676300  0.49256700  0.49783800  1
  H  H1  1  0.67621600  0.49350200  0.73724400  1
  H  H2  1  0.32378400  0.50649800  0.26275600  1
  H  H3  1  0.61411300  0.52993300  0.99663700  1
  H  H4  1  0.38588600  0.47006700  0.00336400  1
  H  H5  1  0.31217100  0.50280700  0.12519600  1
  H  H6  1  0.68782900  0.49719300  0.87480400  1
  H  H7  1  0.36049000  0.52257500  0.88805300  1
  H  H8  1  0.63951000  0.47742500  0.11194700  1
  H  H9  1  0.70177400  0.54748800  0.25220500  1
  H  H10  1  0.29822600  0.45251200  0.74779500  1
  H  H11  1  0.35524900  0.97967900  0.57143300  1
  H  H12  1  0.64475100  0.02032100  0.42856800  1
  H  H13  1  0.00981700  0.33907500  0.50547300  1
  H  H14  1  0.99018300  0.66092500  0.49452700  1
  C  C1  1  0.48199600  0.31483900  0.50260700  1
  C  C2  1  0.51800400  0.68516100  0.49739400  1
  C  C3  1  0.49349600  0.49790900  0.35053200  1
  C  C4  1  0.50650400  0.50209100  0.64946900  1
  C  C5  1  0.48896300  0.49620400  0.26653600  1
  C  C6  1  0.51103700  0.50379600  0.73346400  1
  C  C7  1  0.57704100  0.48858900  0.22227000  1
  C  C8  1  0.42295900  0.51141100  0.77773000  1
  C  C9  1  0.56948300  0.48645900  0.14380900  1
  C  C10  1  0.43051700  0.51354100  0.85619100  1
  C  C11  1  0.47447600  0.49268700  0.10798200  1
  C  C12  1  0.52552400  0.50731300  0.89201900  1
  C  C13  1  0.38714100  0.49886200  0.15207300  1
  C  C14  1  0.61285900  0.50113800  0.84792700  1
  C  C15  1  0.39411900  0.50107000  0.23043300  1
  C  C16  1  0.60588100  0.49893000  0.76956700  1
  C  C17  1  0.46175400  0.48959300  0.02442200  1
  C  C18  1  0.53824600  0.51040700  0.97557900  1
  C  C19  1  0.52722500  0.78685300  0.49642700  1
  C  C20  1  0.47277500  0.21314700  0.50357300  1
  C  C21  1  0.54194300  0.97430000  0.49515300  1
  C  C22  1  0.45805600  0.02570000  0.50484700  1
  C  C23  1  0.46584700  0.12770300  0.50420600  1
  C  C24  1  0.53415300  0.87229700  0.49579400  1
  C  C25  1  0.03105300  0.53519400  0.51156600  1
  C  C26  1  0.96894700  0.46480600  0.48843400  1
  C  C27  1  0.85889200  0.47470000  0.49200600  1
  C  C28  1  0.14110800  0.52530000  0.50799400  1
  N  N1  1  0.22970100  0.51770100  0.50530500  1
  N  N2  1  0.77029900  0.48229900  0.49469500  1
  O  O1  1  0.39745900  0.36442500  0.50359400  1
  O  O2  1  0.60254100  0.63557500  0.49640700  1
  O  O3  1  0.57474900  0.35332600  0.50042400  1
  O  O4  1  0.42525100  0.64667400  0.49957600  1
  O  O5  1  0.40646400  0.50401100  0.38808100  1
  O  O6  1  0.59353600  0.49598900  0.61191900  1
  O  O7  1  0.58336900  0.49289900  0.38492100  1
  O  O8  1  0.41663100  0.50710100  0.61507900  1
  O  O9  1  0.67258400  0.48208200  0.25482000  1
  O  O10  1  0.32741600  0.51791800  0.74518000  1
  O  O11  1  0.36418400  0.98157600  0.51542400  1
  O  O12  1  0.63581600  0.01842400  0.48457600  1
  O  O13  1  0.00970000  0.38279300  0.46110500  1
  O  O14  1  0.99030000  0.61720700  0.53889500  1
