# generated using pymatgen
data_Zn3H20C30(N2O3)4
_symmetry_space_group_name_H-M   'P 1'
_cell_length_a   23.81176600
_cell_length_b   31.23167600
_cell_length_c   19.45940200
_cell_angle_alpha   90.00000000
_cell_angle_beta   127.71143100
_cell_angle_gamma   90.00000000
_symmetry_Int_Tables_number   1
_chemical_formula_structural   Zn3H20C30(N2O3)4
_chemical_formula_sum   'Zn12 H80 C120 N32 O48'
_cell_volume   11448.50034042
_cell_formula_units_Z   4
loop_
 _symmetry_equiv_pos_site_id
 _symmetry_equiv_pos_as_xyz
  1  'x, y, z'
loop_
 _atom_site_type_symbol
 _atom_site_label
 _atom_site_symmetry_multiplicity
 _atom_site_fract_x
 _atom_site_fract_y
 _atom_site_fract_z
 _atom_site_occupancy
  Zn  Zn1  1  0.71454200  0.71455000  0.93281100  1
  Zn  Zn2  1  0.28545900  0.28545200  0.06719200  1
  Zn  Zn3  1  0.28546100  0.71455000  0.06719300  1
  Zn  Zn4  1  0.71453800  0.28545300  0.93280700  1
  Zn  Zn5  1  0.21454000  0.21454900  0.93280900  1
  Zn  Zn6  1  0.78546300  0.78545200  0.06719500  1
  Zn  Zn7  1  0.78545700  0.21455000  0.06718900  1
  Zn  Zn8  1  0.21454100  0.78545100  0.93280800  1
  Zn  Zn9  1  0.94415900  0.50000100  0.51332000  1
  Zn  Zn10  1  0.05584100  0.50000000  0.48668100  1
  Zn  Zn11  1  0.44415900  0.00000000  0.51332000  1
  Zn  Zn12  1  0.55584100  0.00000200  0.48668100  1
  H  H1  1  0.80355900  0.83126400  0.89896900  1
  H  H2  1  0.19644100  0.16873300  0.10102700  1
  H  H3  1  0.19644400  0.83126700  0.10102900  1
  H  H4  1  0.80355700  0.16873000  0.89897700  1
  H  H5  1  0.30355700  0.33126800  0.89897400  1
  H  H6  1  0.69644400  0.66873300  0.10102800  1
  H  H7  1  0.69644100  0.33126700  0.10102800  1
  H  H8  1  0.30355900  0.66873400  0.89897200  1
  H  H9  1  0.70790900  0.95479900  0.70358000  1
  H  H10  1  0.29209600  0.04518900  0.29639400  1
  H  H11  1  0.29209600  0.95481000  0.29639900  1
  H  H12  1  0.70790000  0.04517800  0.70362900  1
  H  H13  1  0.20790300  0.45481400  0.70361200  1
  H  H14  1  0.79209700  0.54518700  0.29639000  1
  H  H15  1  0.79209400  0.45480800  0.29640300  1
  H  H16  1  0.20790600  0.54519400  0.70359700  1
  H  H17  1  0.55053600  0.78433300  0.73609900  1
  H  H18  1  0.55674600  0.81726800  0.81072300  1
  H  H19  1  0.44946200  0.21567600  0.26392500  1
  H  H20  1  0.44326300  0.18274500  0.18930400  1
  H  H21  1  0.44946600  0.78433000  0.26391500  1
  H  H22  1  0.44326200  0.81726200  0.18929200  1
  H  H23  1  0.55053700  0.21567900  0.73606300  1
  H  H24  1  0.55672900  0.18275100  0.81068300  1
  H  H25  1  0.05053600  0.28432600  0.73607600  1
  H  H26  1  0.05673500  0.31725600  0.81069700  1
  H  H27  1  0.94946500  0.71567400  0.26392400  1
  H  H28  1  0.94326600  0.68274400  0.18930200  1
  H  H29  1  0.94946200  0.28432800  0.26391500  1
  H  H30  1  0.94326000  0.31726000  0.18929300  1
  H  H31  1  0.05053700  0.71567200  0.73608600  1
  H  H32  1  0.05674100  0.68273900  0.81070900  1
  H  H33  1  0.91084900  0.84864400  0.94314800  1
  H  H34  1  0.92497400  0.90182100  0.94813400  1
  H  H35  1  0.08914900  0.15134200  0.05682800  1
  H  H36  1  0.07503100  0.09816300  0.05182500  1
  H  H37  1  0.08915300  0.84865300  0.05683700  1
  H  H38  1  0.07503100  0.90183200  0.05183800  1
  H  H39  1  0.91085100  0.15133300  0.94318800  1
  H  H40  1  0.92496400  0.09815300  0.94820400  1
  H  H41  1  0.41084900  0.34865900  0.94317400  1
  H  H42  1  0.42496700  0.40183800  0.94817900  1
  H  H43  1  0.58915200  0.65134300  0.05682900  1
  H  H44  1  0.57503300  0.59816400  0.05182400  1
  H  H45  1  0.58915000  0.34865300  0.05683600  1
  H  H46  1  0.57502900  0.40183200  0.05184000  1
  H  H47  1  0.41085000  0.65134800  0.94316300  1
  H  H48  1  0.42497100  0.59817000  0.94815900  1
  H  H49  1  0.87031600  0.92316500  0.77374400  1
  H  H50  1  0.81321700  0.96389200  0.73520200  1
  H  H51  1  0.12967800  0.07679800  0.22620800  1
  H  H52  1  0.18677700  0.03607200  0.26472700  1
  H  H53  1  0.12968300  0.92319200  0.22622300  1
  H  H54  1  0.18678100  0.96391900  0.26474500  1
  H  H55  1  0.87032400  0.07677100  0.77382600  1
  H  H56  1  0.81322500  0.03604500  0.73532800  1
  H  H57  1  0.37032000  0.42320700  0.77379700  1
  H  H58  1  0.31322200  0.46393400  0.73528400  1
  H  H59  1  0.62968100  0.57679600  0.22620600  1
  H  H60  1  0.68677800  0.53606900  0.26472000  1
  H  H61  1  0.62968100  0.42319000  0.22622500  1
  H  H62  1  0.68678000  0.46391600  0.26475100  1
  H  H63  1  0.37031900  0.57681300  0.77377300  1
  H  H64  1  0.31322100  0.53608600  0.73524500  1
  H  H65  1  0.46896100  0.84855300  0.58871800  1
  H  H66  1  0.46462800  0.88166800  0.65477600  1
  H  H67  1  0.53103500  0.15145500  0.41130400  1
  H  H68  1  0.53537900  0.11834400  0.34525100  1
  H  H69  1  0.53104000  0.84855200  0.41129300  1
  H  H70  1  0.53537800  0.88166400  0.34523600  1
  H  H71  1  0.46896500  0.15145600  0.58868600  1
  H  H72  1  0.46461500  0.11834800  0.65473800  1
  H  H73  1  0.96896300  0.34854800  0.58869800  1
  H  H74  1  0.96462000  0.38165800  0.65475200  1
  H  H75  1  0.03103800  0.65145200  0.41130200  1
  H  H76  1  0.03538100  0.61834100  0.34524700  1
  H  H77  1  0.03103700  0.34854900  0.41129500  1
  H  H78  1  0.03537600  0.38166100  0.34524000  1
  H  H79  1  0.96896300  0.65145100  0.58870700  1
  H  H80  1  0.96462400  0.61833900  0.65476200  1
  C  C1  1  0.69297500  0.80623200  0.87430200  1
  C  C2  1  0.30702700  0.19377100  0.12570300  1
  C  C3  1  0.30702900  0.80623100  0.12570100  1
  C  C4  1  0.69297000  0.19377200  0.87429500  1
  C  C5  1  0.19297100  0.30623000  0.87429800  1
  C  C6  1  0.80703000  0.69377100  0.12570400  1
  C  C7  1  0.80702600  0.30623100  0.12570100  1
  C  C8  1  0.19297400  0.69377000  0.87429900  1
  C  C9  1  0.63952000  0.75533600  0.99817000  1
  C  C10  1  0.36048200  0.24466600  0.00183400  1
  C  C11  1  0.36048400  0.75533500  0.00183300  1
  C  C12  1  0.63951500  0.24466600  0.99816500  1
  C  C13  1  0.13951700  0.25533500  0.99816700  1
  C  C14  1  0.86048500  0.74466600  0.00183600  1
  C  C15  1  0.86048000  0.25533600  0.00183100  1
  C  C16  1  0.13951900  0.74466600  0.99816800  1
  C  C17  1  0.57946500  0.75664900  0.99848200  1
  C  C18  1  0.42053600  0.24335300  0.00152100  1
  C  C19  1  0.42053900  0.75664900  0.00152100  1
  C  C20  1  0.57946100  0.24335300  0.99847700  1
  C  C21  1  0.07946100  0.25664900  0.99847900  1
  C  C22  1  0.92054000  0.74335300  0.00152300  1
  C  C23  1  0.92053500  0.25664900  0.00151900  1
  C  C24  1  0.07946400  0.74335300  0.99848000  1
  C  C25  1  0.52931800  0.75716900  0.99935900  1
  C  C26  1  0.47068300  0.24283300  0.00064200  1
  C  C27  1  0.47068600  0.75716900  0.00064400  1
  C  C28  1  0.52931400  0.24283400  0.99935600  1
  C  C29  1  0.02931400  0.25716800  0.99935700  1
  C  C30  1  0.97068600  0.74283300  0.00064500  1
  C  C31  1  0.97068200  0.25716900  0.00064100  1
  C  C32  1  0.02931800  0.74283300  0.99935900  1
  C  C33  1  0.78039700  0.85802900  0.85483000  1
  C  C34  1  0.21960300  0.14196500  0.14516000  1
  C  C35  1  0.21960600  0.85803400  0.14516300  1
  C  C36  1  0.78039500  0.14196100  0.85484900  1
  C  C37  1  0.28039500  0.35803600  0.85484200  1
  C  C38  1  0.71960600  0.64196500  0.14516000  1
  C  C39  1  0.71960300  0.35803300  0.14516300  1
  C  C40  1  0.28039700  0.64196800  0.85483700  1
  C  C41  1  0.82519100  0.88396300  0.85117000  1
  C  C42  1  0.17480900  0.11602400  0.14880500  1
  C  C43  1  0.17481100  0.88397300  0.14881300  1
  C  C44  1  0.82519000  0.11601400  0.85121400  1
  C  C45  1  0.32519000  0.38397800  0.85119900  1
  C  C46  1  0.67481100  0.61602300  0.14880400  1
  C  C47  1  0.67480900  0.38397300  0.14881400  1
  C  C48  1  0.32519100  0.61602900  0.85118600  1
  C  C49  1  0.79786500  0.91787600  0.79451100  1
  C  C50  1  0.20213500  0.08210700  0.20545500  1
  C  C51  1  0.20213700  0.91788900  0.20546400  1
  C  C52  1  0.79786400  0.08209400  0.79457200  1
  C  C53  1  0.29786400  0.41789600  0.79455100  1
  C  C54  1  0.70213600  0.58210600  0.20545200  1
  C  C55  1  0.70213500  0.41788800  0.20546700  1
  C  C56  1  0.29786500  0.58211400  0.79453200  1
  C  C57  1  0.72589100  0.92633700  0.74252300  1
  C  C58  1  0.27411100  0.07365200  0.25745400  1
  C  C59  1  0.27411200  0.92634600  0.25745900  1
  C  C60  1  0.72588700  0.07364300  0.74256500  1
  C  C61  1  0.22588800  0.42635000  0.74255100  1
  C  C62  1  0.77411200  0.57365100  0.25745100  1
  C  C63  1  0.77411000  0.42634500  0.25746200  1
  C  C64  1  0.22589000  0.57365700  0.74253700  1
  C  C65  1  0.67915000  0.89901100  0.74152500  1
  C  C66  1  0.32085200  0.10098600  0.25846700  1
  C  C67  1  0.32085300  0.89901500  0.25846800  1
  C  C68  1  0.67914600  0.10098100  0.74154200  1
  C  C69  1  0.17914700  0.39901600  0.74153600  1
  C  C70  1  0.82085300  0.60098400  0.25846500  1
  C  C71  1  0.82085100  0.39901400  0.25847000  1
  C  C72  1  0.17914900  0.60098700  0.74153100  1
  C  C73  1  0.70753800  0.86526600  0.80076600  1
  C  C74  1  0.29246300  0.13473200  0.19922900  1
  C  C75  1  0.29246500  0.86526800  0.19923000  1
  C  C76  1  0.70753500  0.13473000  0.80077600  1
  C  C77  1  0.20753600  0.36526900  0.80077300  1
  C  C78  1  0.79246500  0.63473200  0.19922800  1
  C  C79  1  0.79246200  0.36526800  0.19923000  1
  C  C80  1  0.20753800  0.63473300  0.80077000  1
  C  C81  1  0.66331500  0.83851400  0.80548100  1
  C  C82  1  0.33668700  0.16148900  0.19452500  1
  C  C83  1  0.33668800  0.83851300  0.19452200  1
  C  C84  1  0.66331100  0.16149000  0.80547300  1
  C  C85  1  0.16331200  0.33851200  0.80547600  1
  C  C86  1  0.83668900  0.66148800  0.19452500  1
  C  C87  1  0.83668600  0.33851300  0.19452300  1
  C  C88  1  0.16331400  0.66148800  0.80547800  1
  C  C89  1  0.59066000  0.84323200  0.74656600  1
  C  C90  1  0.40934200  0.15677400  0.25344800  1
  C  C91  1  0.40934300  0.84323000  0.25344100  1
  C  C92  1  0.59065500  0.15677600  0.74654600  1
  C  C93  1  0.09065600  0.34322700  0.74655300  1
  C  C94  1  0.90934400  0.65677300  0.25344700  1
  C  C95  1  0.90934100  0.34322900  0.25344300  1
  C  C96  1  0.09065900  0.65677100  0.74655900  1
  C  C97  1  0.56195800  0.87547300  0.68565500  1
  C  C98  1  0.43804300  0.12453300  0.31435700  1
  C  C99  1  0.43804500  0.87547200  0.31435000  1
  C  C100  1  0.56195400  0.12453300  0.68564000  1
  C  C101  1  0.06195500  0.37546900  0.68564500  1
  C  C102  1  0.93804500  0.62453100  0.31435500  1
  C  C103  1  0.93804300  0.37547000  0.31435200  1
  C  C104  1  0.06195800  0.62453000  0.68564900  1
  C  C105  1  0.60511800  0.90472600  0.68382900  1
  C  C106  1  0.39488400  0.09527600  0.31617300  1
  C  C107  1  0.39488500  0.90472700  0.31616900  1
  C  C108  1  0.60511400  0.09527400  0.68383100  1
  C  C109  1  0.10511500  0.40472600  0.68383000  1
  C  C110  1  0.89488500  0.59527400  0.31617000  1
  C  C111  1  0.89488300  0.40472600  0.31617200  1
  C  C112  1  0.10511700  0.59527500  0.68382900  1
  C  C113  1  0.06919900  0.55969100  0.62001000  1
  C  C114  1  0.93080100  0.44030900  0.37999100  1
  C  C115  1  0.93080200  0.55969000  0.37999000  1
  C  C116  1  0.06919800  0.44031000  0.62001100  1
  C  C117  1  0.56919800  0.05969000  0.62001200  1
  C  C118  1  0.43080200  0.94031100  0.37998900  1
  C  C119  1  0.43080100  0.05969200  0.37999200  1
  C  C120  1  0.56919900  0.94031000  0.62000900  1
  N  N1  1  0.54417800  0.81562100  0.74911800  1
  N  N2  1  0.45582500  0.18438900  0.25090600  1
  N  N3  1  0.45582700  0.81561700  0.25089600  1
  N  N4  1  0.54417100  0.18439400  0.74908200  1
  N  N5  1  0.04417300  0.31561200  0.74909500  1
  N  N6  1  0.95582800  0.68438800  0.25090500  1
  N  N7  1  0.95582400  0.31561500  0.25089700  1
  N  N8  1  0.04417600  0.68438500  0.74910500  1
  N  N9  1  0.89978100  0.87589300  0.90576600  1
  N  N10  1  0.10021700  0.12408900  0.09420100  1
  N  N11  1  0.10022000  0.87590500  0.09421200  1
  N  N12  1  0.89978300  0.12407700  0.90582200  1
  N  N13  1  0.39978200  0.37591300  0.90580200  1
  N  N14  1  0.60021900  0.62408900  0.09420100  1
  N  N15  1  0.60021800  0.37590500  0.09421300  1
  N  N16  1  0.39978200  0.62409700  0.90578600  1
  N  N17  1  0.84413700  0.94353600  0.78832300  1
  N  N18  1  0.15586000  0.05643700  0.21162000  1
  N  N19  1  0.15586200  0.94355600  0.21163600  1
  N  N20  1  0.84414200  0.05641600  0.78842300  1
  N  N21  1  0.34414000  0.44356700  0.78838800  1
  N  N22  1  0.65586100  0.55643500  0.21161600  1
  N  N23  1  0.65586100  0.44355400  0.21164000  1
  N  N24  1  0.34413900  0.55644800  0.78835700  1
  N  N25  1  0.48665200  0.87754800  0.62246000  1
  N  N26  1  0.51334900  0.12245900  0.37756000  1
  N  N27  1  0.51335100  0.87754700  0.37754900  1
  N  N28  1  0.48664900  0.12246100  0.62243300  1
  N  N29  1  0.98664900  0.37754300  0.62244300  1
  N  N30  1  0.01335100  0.62245700  0.37755700  1
  N  N31  1  0.01334900  0.37754400  0.37755200  1
  N  N32  1  0.98665100  0.62245600  0.62245000  1
  O  O1  1  0.68047500  0.76566100  0.85236200  1
  O  O2  1  0.31952700  0.23434100  0.14764200  1
  O  O3  1  0.31952900  0.76566100  0.14764100  1
  O  O4  1  0.68047000  0.23434200  0.85235600  1
  O  O5  1  0.18047200  0.26566000  0.85235900  1
  O  O6  1  0.81953000  0.73434100  0.14764400  1
  O  O7  1  0.81952500  0.26566000  0.14764000  1
  O  O8  1  0.18047400  0.73434000  0.85235900  1
  O  O9  1  0.73197400  0.81950100  0.95523400  1
  O  O10  1  0.26802800  0.18050100  0.04477200  1
  O  O11  1  0.26803000  0.81950000  0.04476900  1
  O  O12  1  0.73196800  0.18050200  0.95522700  1
  O  O13  1  0.23197000  0.31950000  0.95522900  1
  O  O14  1  0.76803100  0.68050200  0.04477200  1
  O  O15  1  0.76802700  0.31950000  0.04476900  1
  O  O16  1  0.23197300  0.68050100  0.95523100  1
  O  O17  1  0.63841400  0.72800400  0.94614700  1
  O  O18  1  0.36158700  0.27199800  0.05385600  1
  O  O19  1  0.36159000  0.72800300  0.05385600  1
  O  O20  1  0.63841000  0.27199900  0.94614200  1
  O  O21  1  0.13841100  0.22800300  0.94614500  1
  O  O22  1  0.86159100  0.77199800  0.05385900  1
  O  O23  1  0.86158600  0.22800400  0.05385400  1
  O  O24  1  0.13841300  0.77199800  0.94614400  1
  O  O25  1  0.69346200  0.78057000  0.05175100  1
  O  O26  1  0.30654100  0.21943200  0.94825300  1
  O  O27  1  0.30654200  0.78056900  0.94825200  1
  O  O28  1  0.69345600  0.21943200  0.05174500  1
  O  O29  1  0.19345800  0.28056900  0.05174800  1
  O  O30  1  0.80654400  0.71943300  0.94825500  1
  O  O31  1  0.80653900  0.28057000  0.94825100  1
  O  O32  1  0.19346000  0.71943200  0.05174900  1
  O  O33  1  0.01091300  0.54419800  0.60348600  1
  O  O34  1  0.98908700  0.45580200  0.39651500  1
  O  O35  1  0.98908800  0.54419700  0.39651300  1
  O  O36  1  0.01091200  0.45580300  0.60348700  1
  O  O37  1  0.51091200  0.04419700  0.60348800  1
  O  O38  1  0.48908800  0.95580500  0.39651200  1
  O  O39  1  0.48908800  0.04419900  0.39651500  1
  O  O40  1  0.51091300  0.95580300  0.60348600  1
  O  O41  1  0.09326500  0.54613900  0.57846000  1
  O  O42  1  0.90673600  0.45386100  0.42154100  1
  O  O43  1  0.90673600  0.54614000  0.42154000  1
  O  O44  1  0.09326400  0.45386100  0.57846100  1
  O  O45  1  0.59326400  0.04614000  0.57846200  1
  O  O46  1  0.40673700  0.95386100  0.42154000  1
  O  O47  1  0.40673500  0.04614000  0.42154100  1
  O  O48  1  0.59326400  0.95386100  0.57845900  1
