# generated using pymatgen
data_Zn2H12C25(NO5)2
_symmetry_space_group_name_H-M   'P 1'
_cell_length_a   6.60683600
_cell_length_b   12.36017800
_cell_length_c   12.34134800
_cell_angle_alpha   90.78837700
_cell_angle_beta   95.20157100
_cell_angle_gamma   80.30226800
_symmetry_Int_Tables_number   1
_chemical_formula_structural   Zn2H12C25(NO5)2
_chemical_formula_sum   'Zn2 H12 C25 N2 O10'
_cell_volume   989.32139929
_cell_formula_units_Z   1
loop_
 _symmetry_equiv_pos_site_id
 _symmetry_equiv_pos_as_xyz
  1  'x, y, z'
loop_
 _atom_site_type_symbol
 _atom_site_label
 _atom_site_symmetry_multiplicity
 _atom_site_fract_x
 _atom_site_fract_y
 _atom_site_fract_z
 _atom_site_occupancy
  Zn  Zn1  1  0.52889500  0.49777500  0.12502900  1
  Zn  Zn2  1  0.46880600  0.48974700  0.88254600  1
  H  H1  1  0.47873500  0.14556300  0.06800100  1
  H  H2  1  0.59535900  0.21657100  0.95077600  1
  H  H3  1  0.46375800  0.04200300  0.93687500  1
  H  H4  1  0.51863300  0.84815100  0.95394700  1
  H  H5  1  0.35721400  0.97296500  0.06086900  1
  H  H6  1  0.26223900  0.83870400  0.02737500  1
  H  H7  1  0.28744400  0.45472900  0.48121000  1
  H  H8  1  0.87498400  0.64147600  0.76610700  1
  H  H9  1  0.03004500  0.59346200  0.65563400  1
  H  H10  1  0.92649000  0.45805100  0.84311400  1
  H  H11  1  0.17584500  0.48687100  0.81328800  1
  H  H12  1  0.04462900  0.39915500  0.72403500  1
  C  C1  1  0.18433100  0.24136300  0.02393300  1
  C  C2  1  0.31700800  0.14447400  0.04663200  1
  C  C3  1  0.24667200  0.04585900  0.04132600  1
  C  C4  1  0.97622200  0.24003300  0.00165400  1
  C  C5  1  0.90645900  0.14059100  0.99264000  1
  C  C6  1  0.04106700  0.04271300  0.01089000  1
  C  C7  1  0.96694600  0.94377400  0.00123400  1
  C  C8  1  0.09779400  0.84404700  0.01409500  1
  C  C9  1  0.02259700  0.74663000  0.00544100  1
  C  C10  1  0.69972900  0.13992700  0.96600800  1
  C  C11  1  0.62598500  0.04204500  0.95820500  1
  C  C12  1  0.75900300  0.94416100  0.97615600  1
  C  C13  1  0.68272100  0.84664700  0.96967500  1
  C  C14  1  0.81332000  0.74741600  0.98552100  1
  C  C15  1  0.27343800  0.34087000  0.01659800  1
  C  C16  1  0.82329800  0.34050400  0.00123700  1
  C  C17  1  0.72304900  0.64755900  0.99139600  1
  C  C18  1  0.17348100  0.64606900  0.00614400  1
  C  C19  1  0.41701500  0.48091000  0.52842800  1
  C  C20  1  0.57027900  0.50968400  0.47837200  1
  C  C21  1  0.56717500  0.50554100  0.36164400  1
  C  C22  1  0.42500100  0.48328900  0.64560100  1
  C  C23  1  0.74458600  0.54453600  0.54250100  1
  C  C24  1  0.92080800  0.57142600  0.71139700  1
  C  C25  1  0.02357600  0.47216400  0.77766000  1
  N  N1  1  0.43420800  0.48526600  0.73979900  1
  N  N2  1  0.56303600  0.50233200  0.26770600  1
  O  O1  1  0.30888100  0.37211100  0.91972100  1
  O  O2  1  0.34711000  0.38209400  0.10714500  1
  O  O3  1  0.76602100  0.37867900  0.09569100  1
  O  O4  1  0.72546700  0.37604300  0.90794700  1
  O  O5  1  0.68867100  0.61545100  0.08804000  1
  O  O6  1  0.65039900  0.60569800  0.90056300  1
  O  O7  1  0.23169000  0.60873500  0.91188500  1
  O  O8  1  0.27211800  0.61134800  0.09951700  1
  O  O9  1  0.88655300  0.56974300  0.49730900  1
  O  O10  1  0.75045700  0.54628200  0.65162300  1
