# generated using pymatgen
data_Zn2H17C33N5O8
_symmetry_space_group_name_H-M   'P 1'
_cell_length_a   8.53997300
_cell_length_b   12.81182500
_cell_length_c   13.40372000
_cell_angle_alpha   90.57975200
_cell_angle_beta   90.52551500
_cell_angle_gamma   93.58696600
_symmetry_Int_Tables_number   1
_chemical_formula_structural   Zn2H17C33N5O8
_chemical_formula_sum   'Zn2 H17 C33 N5 O8'
_cell_volume   1463.51785555
_cell_formula_units_Z   1
loop_
 _symmetry_equiv_pos_site_id
 _symmetry_equiv_pos_as_xyz
  1  'x, y, z'
loop_
 _atom_site_type_symbol
 _atom_site_label
 _atom_site_symmetry_multiplicity
 _atom_site_fract_x
 _atom_site_fract_y
 _atom_site_fract_z
 _atom_site_occupancy
  Zn  Zn1  1  0.51104000  0.49664600  0.10525200  1
  Zn  Zn2  1  0.51077500  0.50493800  0.88280200  1
  H  H1  1  0.29693800  0.85007600  0.98090500  1
  H  H2  1  0.79513100  0.85851600  0.98643000  1
  H  H3  1  0.72485300  0.15150100  0.00702000  1
  H  H4  1  0.22666500  0.14300100  0.00151800  1
  H  H5  1  0.01003200  0.57422200  0.03059000  1
  H  H6  1  0.01186700  0.42736700  0.95755900  1
  H  H7  1  0.52073500  0.67206800  0.74625600  1
  H  H8  1  0.50977200  0.33256900  0.24883600  1
  H  H9  1  0.51825800  0.67818500  0.56831700  1
  H  H10  1  0.51804600  0.67305100  0.41534700  1
  H  H11  1  0.50017600  0.34392700  0.73973800  1
  H  H12  1  0.51862900  0.65857100  0.23899700  1
  H  H13  1  0.26962300  0.25279200  0.31072900  1
  H  H14  1  0.22731500  0.07574200  0.23988600  1
  H  H15  1  0.39223200  0.93606300  0.29472300  1
  H  H16  1  0.59846900  0.97354200  0.42165000  1
  H  H17  1  0.64243200  0.15099100  0.49180800  1
  C  C1  1  0.16672500  0.70472200  0.00186900  1
  C  C2  1  0.18182700  0.81106600  0.98868000  1
  C  C3  1  0.05026400  0.86854400  0.98932500  1
  C  C4  1  0.90127300  0.81721600  0.99291000  1
  C  C5  1  0.88802500  0.70989300  0.00495000  1
  C  C6  1  0.02102300  0.65636500  0.01575200  1
  C  C7  1  0.83997300  0.19050700  0.99928100  1
  C  C8  1  0.85509000  0.29686400  0.98616800  1
  C  C9  1  0.00084400  0.34521400  0.97234600  1
  C  C10  1  0.13384900  0.29165000  0.98308900  1
  C  C11  1  0.12054000  0.18432000  0.99506500  1
  C  C12  1  0.97152600  0.13301300  0.99862000  1
  C  C13  1  0.30114900  0.64024800  0.99843000  1
  C  C14  1  0.28372000  0.35395600  0.98718200  1
  C  C15  1  0.72061800  0.36133600  0.98960300  1
  C  C16  1  0.73823700  0.64753900  0.00084500  1
  C  C17  1  0.50479700  0.41727600  0.70042500  1
  C  C18  1  0.51586500  0.59958000  0.70404600  1
  C  C19  1  0.51433700  0.60201700  0.60121600  1
  C  C20  1  0.50706700  0.50927100  0.54592700  1
  C  C21  1  0.50247600  0.41655400  0.59754200  1
  C  C22  1  0.51286100  0.59529800  0.38440600  1
  C  C23  1  0.50536900  0.50567900  0.44165200  1
  C  C24  1  0.49714100  0.40935900  0.39273400  1
  C  C25  1  0.48661100  0.31834000  0.44845600  1
  C  C26  1  0.51372000  0.58776700  0.28224100  1
  C  C27  1  0.50461200  0.40549600  0.28903300  1
  C  C28  1  0.46411000  0.21440600  0.40221600  1
  C  C29  1  0.34486300  0.19231500  0.33337700  1
  C  C30  1  0.31993200  0.09262600  0.29426900  1
  C  C31  1  0.41201100  0.01425500  0.32522800  1
  C  C32  1  0.52766200  0.03529400  0.39630000  1
  C  C33  1  0.55247200  0.13494800  0.43549900  1
  N  N1  1  0.07213300  0.97868300  0.98540600  1
  N  N2  1  0.94963400  0.02287400  0.00251600  1
  N  N3  1  0.51094300  0.50799300  0.75206500  1
  N  N4  1  0.49222900  0.32434500  0.54857900  1
  N  N5  1  0.51066200  0.49418600  0.23603100  1
  O  O1  1  0.34811100  0.60846500  0.91093700  1
  O  O2  1  0.35390200  0.60514100  0.08286000  1
  O  O3  1  0.33553600  0.38792500  0.07513400  1
  O  O4  1  0.34018800  0.39135100  0.90309600  1
  O  O5  1  0.67375900  0.39309400  0.07728600  1
  O  O6  1  0.66789600  0.39637500  0.90497400  1
  O  O7  1  0.68637800  0.61355200  0.91299800  1
  O  O8  1  0.68169000  0.61015400  0.08482200  1
