# generated using pymatgen
data_Zn3H28C40(NO3)4
_symmetry_space_group_name_H-M   'P 1'
_cell_length_a   31.14772600
_cell_length_b   30.79865800
_cell_length_c   24.79229200
_cell_angle_alpha   90.00000000
_cell_angle_beta   128.90999000
_cell_angle_gamma   90.00000000
_symmetry_Int_Tables_number   1
_chemical_formula_structural   Zn3H28C40(NO3)4
_chemical_formula_sum   'Zn12 H112 C160 N16 O48'
_cell_volume   18506.70113506
_cell_formula_units_Z   4
loop_
 _symmetry_equiv_pos_site_id
 _symmetry_equiv_pos_as_xyz
  1  'x, y, z'
loop_
 _atom_site_type_symbol
 _atom_site_label
 _atom_site_symmetry_multiplicity
 _atom_site_fract_x
 _atom_site_fract_y
 _atom_site_fract_z
 _atom_site_occupancy
  Zn  Zn1  1  0.77898100  0.71230000  0.49818600  1
  Zn  Zn2  1  0.22101900  0.71230000  0.50181400  1
  Zn  Zn3  1  0.27898100  0.21230000  0.49818600  1
  Zn  Zn4  1  0.72101900  0.21230000  0.50181400  1
  Zn  Zn5  1  0.71291800  0.78208700  0.50264000  1
  Zn  Zn6  1  0.28708200  0.78208700  0.49736000  1
  Zn  Zn7  1  0.21291800  0.28208700  0.50264000  1
  Zn  Zn8  1  0.78708200  0.28208700  0.49736000  1
  Zn  Zn9  1  0.46094900  0.49310600  0.42150400  1
  Zn  Zn10  1  0.53905100  0.49310600  0.57849600  1
  Zn  Zn11  1  0.96094900  0.99310600  0.42150400  1
  Zn  Zn12  1  0.03905100  0.99310600  0.57849600  1
  H  H1  1  0.61291600  0.81654000  0.28208700  1
  H  H2  1  0.38708400  0.81654000  0.71791300  1
  H  H3  1  0.11291600  0.31654000  0.28208700  1
  H  H4  1  0.88708400  0.31654000  0.71791300  1
  H  H5  1  0.55150000  0.81863500  0.15588900  1
  H  H6  1  0.44850000  0.81863500  0.84411100  1
  H  H7  1  0.05150000  0.31863500  0.15588900  1
  H  H8  1  0.94850000  0.31863500  0.84411100  1
  H  H9  1  0.59998400  0.68931100  0.15272500  1
  H  H10  1  0.40001600  0.68931100  0.84727500  1
  H  H11  1  0.09998400  0.18931100  0.15272500  1
  H  H12  1  0.90001600  0.18931100  0.84727500  1
  H  H13  1  0.66196800  0.68773300  0.27801000  1
  H  H14  1  0.33803200  0.68773300  0.72199000  1
  H  H15  1  0.16196800  0.18773300  0.27801000  1
  H  H16  1  0.83803200  0.18773300  0.72199000  1
  H  H17  1  0.78674900  0.89362500  0.47788300  1
  H  H18  1  0.21325100  0.89362500  0.52211700  1
  H  H19  1  0.28674900  0.39362500  0.47788300  1
  H  H20  1  0.71325100  0.39362500  0.52211700  1
  H  H21  1  0.84288800  0.94745400  0.47378100  1
  H  H22  1  0.15711100  0.94745400  0.52621900  1
  H  H23  1  0.34288800  0.44745400  0.47378100  1
  H  H24  1  0.65711100  0.44745400  0.52621900  1
  H  H25  1  0.95727200  0.82160300  0.48593100  1
  H  H26  1  0.04272800  0.82160300  0.51406900  1
  H  H27  1  0.45727200  0.32160300  0.48593100  1
  H  H28  1  0.54272800  0.32160300  0.51406900  1
  H  H29  1  0.00558300  0.83886900  0.57912800  1
  H  H30  1  0.99441600  0.83886900  0.42087200  1
  H  H31  1  0.50558300  0.33886900  0.57912800  1
  H  H32  1  0.49441600  0.33886900  0.42087200  1
  H  H33  1  0.91434600  0.76853100  0.50794800  1
  H  H34  1  0.08565400  0.76853100  0.49205200  1
  H  H35  1  0.41434600  0.26853100  0.50794800  1
  H  H36  1  0.58565400  0.26853100  0.49205200  1
  H  H37  1  0.79760900  0.77684600  0.72414900  1
  H  H38  1  0.20239100  0.77684600  0.27585100  1
  H  H39  1  0.29760900  0.27684600  0.72414900  1
  H  H40  1  0.70239100  0.27684600  0.27585100  1
  H  H41  1  0.86206200  0.77432100  0.85008800  1
  H  H42  1  0.13793800  0.77432100  0.14991200  1
  H  H43  1  0.36206200  0.27432100  0.85008800  1
  H  H44  1  0.63793800  0.27432100  0.14991200  1
  H  H45  1  0.97724500  0.70494900  0.84307300  1
  H  H46  1  0.02275500  0.70494900  0.15692700  1
  H  H47  1  0.47724500  0.20494900  0.84307300  1
  H  H48  1  0.52275500  0.20494900  0.15692700  1
  H  H49  1  0.91176800  0.70513800  0.71745900  1
  H  H50  1  0.08823200  0.70513800  0.28254100  1
  H  H51  1  0.41176800  0.20513800  0.71745900  1
  H  H52  1  0.58823200  0.20513800  0.28254100  1
  H  H53  1  0.64896200  0.68561200  0.57086200  1
  H  H54  1  0.35103800  0.68561200  0.42913800  1
  H  H55  1  0.14896200  0.18561200  0.57086200  1
  H  H56  1  0.85103800  0.18561200  0.42913800  1
  H  H57  1  0.59692600  0.62729300  0.57469300  1
  H  H58  1  0.40307400  0.62729300  0.42530700  1
  H  H59  1  0.09692600  0.12729300  0.57469300  1
  H  H60  1  0.90307400  0.12729300  0.42530700  1
  H  H61  1  0.62485400  0.52713200  0.42903900  1
  H  H62  1  0.37514600  0.52713200  0.57096100  1
  H  H63  1  0.12485400  0.02713200  0.42903900  1
  H  H64  1  0.87514600  0.02713200  0.57096100  1
  H  H65  1  0.55953300  0.55579500  0.35634800  1
  H  H66  1  0.44046700  0.55579500  0.64365200  1
  H  H67  1  0.05953300  0.05579500  0.35634800  1
  H  H68  1  0.94046700  0.05579500  0.64365200  1
  H  H69  1  0.67942100  0.58331700  0.42830600  1
  H  H70  1  0.32057900  0.58331700  0.57169400  1
  H  H71  1  0.17942100  0.08331700  0.42830600  1
  H  H72  1  0.82057900  0.08331700  0.57169400  1
  H  H73  1  0.61413600  0.61219700  0.35602200  1
  H  H74  1  0.38586400  0.61219700  0.64397900  1
  H  H75  1  0.11413600  0.11219700  0.35602200  1
  H  H76  1  0.88586400  0.11219700  0.64397900  1
  H  H77  1  0.04768600  0.77776300  0.64315400  1
  H  H78  1  0.00576000  0.72967800  0.60258000  1
  H  H79  1  0.04187000  0.74027900  0.69337300  1
  H  H80  1  0.01453600  0.83953500  0.67542300  1
  H  H81  1  0.01077100  0.80212000  0.72736400  1
  H  H82  1  0.95135300  0.83379700  0.66373000  1
  H  H83  1  0.91542200  0.72323200  0.58816400  1
  H  H84  1  0.90389900  0.76558100  0.62884700  1
  H  H85  1  0.96287400  0.73080900  0.68078100  1
  H  H86  1  0.95231400  0.77776300  0.35684600  1
  H  H87  1  0.99424000  0.72967800  0.39742000  1
  H  H88  1  0.95813000  0.74027900  0.30662700  1
  H  H89  1  0.98546400  0.83953500  0.32457700  1
  H  H90  1  0.98922900  0.80212000  0.27263600  1
  H  H91  1  0.04864700  0.83379700  0.33627000  1
  H  H92  1  0.08457800  0.72323200  0.41183600  1
  H  H93  1  0.09610100  0.76558100  0.37115300  1
  H  H94  1  0.03712600  0.73080900  0.31921900  1
  H  H95  1  0.54768600  0.27776300  0.64315400  1
  H  H96  1  0.50576000  0.22967800  0.60258000  1
  H  H97  1  0.54187000  0.24027900  0.69337300  1
  H  H98  1  0.51453600  0.33953500  0.67542300  1
  H  H99  1  0.51077100  0.30212000  0.72736400  1
  H  H100  1  0.45135300  0.33379700  0.66373000  1
  H  H101  1  0.41542200  0.22323200  0.58816400  1
  H  H102  1  0.40389900  0.26558100  0.62884700  1
  H  H103  1  0.46287400  0.23080900  0.68078100  1
  H  H104  1  0.45231400  0.27776300  0.35684600  1
  H  H105  1  0.49424000  0.22967800  0.39742000  1
  H  H106  1  0.45813000  0.24027900  0.30662700  1
  H  H107  1  0.48546400  0.33953500  0.32457700  1
  H  H108  1  0.48922900  0.30212000  0.27263600  1
  H  H109  1  0.54864700  0.33379700  0.33627000  1
  H  H110  1  0.58457800  0.22323200  0.41183600  1
  H  H111  1  0.59610100  0.26558100  0.37115300  1
  H  H112  1  0.53712600  0.23080900  0.31921900  1
  C  C1  1  0.80799100  0.80765500  0.50648600  1
  C  C2  1  0.19200900  0.80765500  0.49351400  1
  C  C3  1  0.30799100  0.30765500  0.50648600  1
  C  C4  1  0.69200900  0.30765500  0.49351400  1
  C  C5  1  0.67960100  0.75045600  0.36478400  1
  C  C6  1  0.32039900  0.75045600  0.63521600  1
  C  C7  1  0.17960100  0.25045600  0.36478400  1
  C  C8  1  0.82039900  0.25045600  0.63521600  1
  C  C9  1  0.68458100  0.68677200  0.49546400  1
  C  C10  1  0.31541900  0.68677200  0.50453600  1
  C  C11  1  0.18458100  0.18677200  0.49546400  1
  C  C12  1  0.81541900  0.18677200  0.50453600  1
  C  C13  1  0.81220000  0.74372700  0.63600900  1
  C  C14  1  0.18779900  0.74372700  0.36399100  1
  C  C15  1  0.31220000  0.24372700  0.63600900  1
  C  C16  1  0.68779900  0.24372700  0.36399100  1
  C  C17  1  0.61020500  0.78848100  0.25390700  1
  C  C18  1  0.38979500  0.78848100  0.74609300  1
  C  C19  1  0.11020500  0.28848100  0.25390700  1
  C  C20  1  0.88979500  0.28848100  0.74609300  1
  C  C21  1  0.57570600  0.78977400  0.18235700  1
  C  C22  1  0.42429400  0.78977400  0.81764300  1
  C  C23  1  0.07570600  0.28977400  0.18235700  1
  C  C24  1  0.92429400  0.28977400  0.81764300  1
  C  C25  1  0.57132200  0.75411500  0.14528000  1
  C  C26  1  0.42867800  0.75411500  0.85472000  1
  C  C27  1  0.07132200  0.25411500  0.14528000  1
  C  C28  1  0.92867800  0.25411500  0.85472000  1
  C  C29  1  0.60235100  0.71749700  0.18043400  1
  C  C30  1  0.39764900  0.71749700  0.81956600  1
  C  C31  1  0.10235100  0.21749700  0.18043400  1
  C  C32  1  0.89764900  0.21749700  0.81956600  1
  C  C33  1  0.63796400  0.71671100  0.25177900  1
  C  C34  1  0.36203600  0.71671100  0.74822100  1
  C  C35  1  0.13796400  0.21671100  0.25177900  1
  C  C36  1  0.86203600  0.21671100  0.74822100  1
  C  C37  1  0.64182300  0.75203400  0.28890800  1
  C  C38  1  0.35817700  0.75203400  0.71109200  1
  C  C39  1  0.14182300  0.25203400  0.28890800  1
  C  C40  1  0.85817700  0.25203400  0.71109200  1
  C  C41  1  0.46610800  0.75456900  0.93069400  1
  C  C42  1  0.53389200  0.75456900  0.06930600  1
  C  C43  1  0.96610800  0.25456900  0.93069400  1
  C  C44  1  0.03389200  0.25456900  0.06930600  1
  C  C45  1  0.89388100  0.83099600  0.52760700  1
  C  C46  1  0.10611900  0.83099600  0.47239300  1
  C  C47  1  0.39388100  0.33099600  0.52760700  1
  C  C48  1  0.60611900  0.33099600  0.47239300  1
  C  C49  1  0.84334600  0.84082300  0.50994400  1
  C  C50  1  0.15665400  0.84082300  0.49005600  1
  C  C51  1  0.34334600  0.34082300  0.50994400  1
  C  C52  1  0.65665400  0.34082300  0.49005600  1
  C  C53  1  0.82571600  0.88370500  0.49141200  1
  C  C54  1  0.17428400  0.88370500  0.50858800  1
  C  C55  1  0.32571600  0.38370500  0.49141200  1
  C  C56  1  0.67428400  0.38370500  0.50858800  1
  C  C57  1  0.85699100  0.91423400  0.48776900  1
  C  C58  1  0.14300900  0.91423400  0.51223100  1
  C  C59  1  0.35699100  0.41423400  0.48776900  1
  C  C60  1  0.64300900  0.41423400  0.51223100  1
  C  C61  1  0.90561600  0.90199100  0.50104100  1
  C  C62  1  0.09438300  0.90199100  0.49895900  1
  C  C63  1  0.40561600  0.40199100  0.50104100  1
  C  C64  1  0.59438300  0.40199100  0.49895900  1
  C  C65  1  0.92134300  0.85976900  0.51974700  1
  C  C66  1  0.07865700  0.85976900  0.48025300  1
  C  C67  1  0.42134300  0.35976900  0.51974700  1
  C  C68  1  0.57865700  0.35976900  0.48025300  1
  C  C69  1  0.96349400  0.82886600  0.53409000  1
  C  C70  1  0.03650600  0.82886600  0.46591000  1
  C  C71  1  0.46349400  0.32886600  0.53409000  1
  C  C72  1  0.53650600  0.32886600  0.46591000  1
  C  C73  1  0.93333800  0.79502800  0.54685600  1
  C  C74  1  0.06666100  0.79502800  0.45314500  1
  C  C75  1  0.43333800  0.29502800  0.54685600  1
  C  C76  1  0.56666100  0.29502800  0.45314500  1
  C  C77  1  0.83687100  0.76079700  0.74976300  1
  C  C78  1  0.16312900  0.76079700  0.25023700  1
  C  C79  1  0.33687100  0.26079700  0.74976300  1
  C  C80  1  0.66312900  0.26079700  0.25023700  1
  C  C81  1  0.87324400  0.75912500  0.82117500  1
  C  C82  1  0.12675600  0.75912500  0.17882500  1
  C  C83  1  0.37324400  0.25912500  0.82117500  1
  C  C84  1  0.62675600  0.25912500  0.17882500  1
  C  C85  1  0.92422200  0.73976600  0.85515900  1
  C  C86  1  0.07577800  0.73976600  0.14484100  1
  C  C87  1  0.42422200  0.23976600  0.85515900  1
  C  C88  1  0.57577800  0.23976600  0.14484100  1
  C  C89  1  0.93784600  0.72081000  0.81729100  1
  C  C90  1  0.06215400  0.72081000  0.18270900  1
  C  C91  1  0.43784600  0.22081000  0.81729100  1
  C  C92  1  0.56215400  0.22081000  0.18270900  1
  C  C93  1  0.90059100  0.72085800  0.74595900  1
  C  C94  1  0.09940900  0.72085800  0.25404100  1
  C  C95  1  0.40059100  0.22085800  0.74595900  1
  C  C96  1  0.59940900  0.22085800  0.25404100  1
  C  C97  1  0.85039000  0.74162400  0.71181400  1
  C  C98  1  0.14960900  0.74162400  0.28818600  1
  C  C99  1  0.35039000  0.24162400  0.71181400  1
  C  C100  1  0.64960900  0.24162400  0.28818600  1
  C  C101  1  0.03621300  0.73953200  0.06914300  1
  C  C102  1  0.96378700  0.73953200  0.93085700  1
  C  C103  1  0.53621300  0.23953200  0.06914300  1
  C  C104  1  0.46378700  0.23953200  0.93085700  1
  C  C105  1  0.63545500  0.61648400  0.45732200  1
  C  C106  1  0.36454500  0.61648400  0.54267800  1
  C  C107  1  0.13545500  0.11648400  0.45732200  1
  C  C108  1  0.86454500  0.11648400  0.54267800  1
  C  C109  1  0.65168200  0.65350200  0.49630500  1
  C  C110  1  0.34831800  0.65350200  0.50369500  1
  C  C111  1  0.15168200  0.15350200  0.49630500  1
  C  C112  1  0.84831800  0.15350200  0.50369500  1
  C  C113  1  0.63670700  0.65732300  0.53833900  1
  C  C114  1  0.36329300  0.65732300  0.46166100  1
  C  C115  1  0.13670700  0.15732300  0.53833900  1
  C  C116  1  0.86329300  0.15732300  0.46166100  1
  C  C117  1  0.60764000  0.62407200  0.54101700  1
  C  C118  1  0.39236000  0.62407200  0.45898300  1
  C  C119  1  0.10764000  0.12407200  0.54101700  1
  C  C120  1  0.89236000  0.12407200  0.45898300  1
  C  C121  1  0.59097700  0.58767100  0.49919000  1
  C  C122  1  0.40902300  0.58767100  0.50081000  1
  C  C123  1  0.09097700  0.08767100  0.49919000  1
  C  C124  1  0.90902300  0.08767100  0.50081000  1
  C  C125  1  0.60543100  0.58595500  0.45725300  1
  C  C126  1  0.39456800  0.58595500  0.54274700  1
  C  C127  1  0.10543100  0.08595500  0.45725300  1
  C  C128  1  0.89456800  0.08595500  0.54274700  1
  C  C129  1  0.60214000  0.55812100  0.40600100  1
  C  C130  1  0.39786000  0.55812100  0.59399900  1
  C  C131  1  0.10214000  0.05812100  0.40600100  1
  C  C132  1  0.89786000  0.05812100  0.59399900  1
  C  C133  1  0.63722200  0.59421300  0.40574000  1
  C  C134  1  0.36277800  0.59421300  0.59426000  1
  C  C135  1  0.13722200  0.09421300  0.40574000  1
  C  C136  1  0.86277800  0.09421300  0.59426000  1
  C  C137  1  0.44122800  0.55325500  0.50097000  1
  C  C138  1  0.55877200  0.55325500  0.49903100  1
  C  C139  1  0.94122800  0.05325500  0.50097000  1
  C  C140  1  0.05877200  0.05325500  0.49903100  1
  C  C141  1  0.94075900  0.93333700  0.50096600  1
  C  C142  1  0.05924000  0.93333700  0.49903400  1
  C  C143  1  0.44075900  0.43333700  0.50096600  1
  C  C144  1  0.55924000  0.43333700  0.49903400  1
  C  C145  1  0.96852400  0.77947600  0.62276900  1
  C  C146  1  0.01902900  0.75542900  0.64148700  1
  C  C147  1  0.98714100  0.81623500  0.67467800  1
  C  C148  1  0.93537800  0.74772200  0.63023500  1
  C  C149  1  0.03147600  0.77947600  0.37723100  1
  C  C150  1  0.98097100  0.75542900  0.35851300  1
  C  C151  1  0.01285900  0.81623500  0.32532200  1
  C  C152  1  0.06462200  0.74772200  0.36976500  1
  C  C153  1  0.46852400  0.27947600  0.62276900  1
  C  C154  1  0.51902900  0.25542900  0.64148700  1
  C  C155  1  0.48714100  0.31623500  0.67467800  1
  C  C156  1  0.43537800  0.24772200  0.63023500  1
  C  C157  1  0.53147600  0.27947600  0.37723100  1
  C  C158  1  0.48097100  0.25542900  0.35851300  1
  C  C159  1  0.51285900  0.31623500  0.32532200  1
  C  C160  1  0.56462200  0.24772200  0.36976500  1
  N  N1  1  0.51686000  0.71685100  0.03422600  1
  N  N2  1  0.48314000  0.71685100  0.96577400  1
  N  N3  1  0.01686000  0.21685100  0.03422600  1
  N  N4  1  0.98314000  0.21685100  0.96577400  1
  N  N5  1  0.48334800  0.79237800  0.96571300  1
  N  N6  1  0.51665200  0.79237800  0.03428700  1
  N  N7  1  0.98334800  0.29237800  0.96571300  1
  N  N8  1  0.01665200  0.29237800  0.03428700  1
  N  N9  1  0.01826700  0.73936000  0.96349100  1
  N  N10  1  0.98173300  0.73936000  0.03650900  1
  N  N11  1  0.51826700  0.23936000  0.96349100  1
  N  N12  1  0.48173300  0.23936000  0.03650900  1
  N  N13  1  0.05412200  0.73970800  0.03193700  1
  N  N14  1  0.94587800  0.73970800  0.96806300  1
  N  N15  1  0.55412200  0.23970800  0.03193700  1
  N  N16  1  0.44587800  0.23970800  0.96806300  1
  O  O1  1  0.81678900  0.76682200  0.50104300  1
  O  O2  1  0.18321100  0.76682200  0.49895700  1
  O  O3  1  0.31678900  0.26682200  0.50104300  1
  O  O4  1  0.68321100  0.26682200  0.49895700  1
  O  O5  1  0.76858300  0.82017500  0.50813900  1
  O  O6  1  0.23141700  0.82017500  0.49186100  1
  O  O7  1  0.26858300  0.32017500  0.50813900  1
  O  O8  1  0.73141700  0.32017500  0.49186100  1
  O  O9  1  0.71987300  0.72211300  0.39514400  1
  O  O10  1  0.28012700  0.72211300  0.60485600  1
  O  O11  1  0.21987300  0.22211300  0.39514400  1
  O  O12  1  0.78012700  0.22211300  0.60485600  1
  O  O13  1  0.67141400  0.77682300  0.39919300  1
  O  O14  1  0.32858600  0.77682300  0.60080700  1
  O  O15  1  0.17141400  0.27682300  0.39919300  1
  O  O16  1  0.82858600  0.27682300  0.60080700  1
  O  O17  1  0.72319900  0.67418600  0.49237000  1
  O  O18  1  0.27680000  0.67418600  0.50763000  1
  O  O19  1  0.22319900  0.17418600  0.49237000  1
  O  O20  1  0.77680000  0.17418600  0.50763000  1
  O  O21  1  0.67533100  0.72760200  0.50033700  1
  O  O22  1  0.32466900  0.72760200  0.49966300  1
  O  O23  1  0.17533100  0.22760200  0.50033700  1
  O  O24  1  0.82466900  0.22760200  0.49966300  1
  O  O25  1  0.82030000  0.71739300  0.60154500  1
  O  O26  1  0.17970000  0.71739300  0.39845500  1
  O  O27  1  0.32030000  0.21739300  0.60154500  1
  O  O28  1  0.67970000  0.21739300  0.39845500  1
  O  O29  1  0.77212300  0.77233400  0.60579600  1
  O  O30  1  0.22787700  0.77233400  0.39420400  1
  O  O31  1  0.27212300  0.27233400  0.60579600  1
  O  O32  1  0.72787700  0.27233400  0.39420400  1
  O  O33  1  0.42715100  0.54027500  0.44133200  1
  O  O34  1  0.57284900  0.54027500  0.55866800  1
  O  O35  1  0.92715100  0.04027500  0.44133200  1
  O  O36  1  0.07284900  0.04027500  0.55866800  1
  O  O37  1  0.48348800  0.53756700  0.56096900  1
  O  O38  1  0.51651200  0.53756700  0.43903200  1
  O  O39  1  0.98348800  0.03756700  0.56096900  1
  O  O40  1  0.01651200  0.03756700  0.43903200  1
  O  O41  1  0.92569000  0.94737600  0.44131600  1
  O  O42  1  0.07431000  0.94737600  0.55868400  1
  O  O43  1  0.42569000  0.44737600  0.44131600  1
  O  O44  1  0.57431000  0.44737600  0.55868400  1
  O  O45  1  0.98473400  0.94744200  0.56102100  1
  O  O46  1  0.01526600  0.94744200  0.43897900  1
  O  O47  1  0.48473400  0.44744200  0.56102100  1
  O  O48  1  0.51526600  0.44744200  0.43897900  1
