# generated using pymatgen
data_ZnH11C25N3O4F9
_symmetry_space_group_name_H-M   'P 1'
_cell_length_a   11.05109000
_cell_length_b   15.91642000
_cell_length_c   17.18806400
_cell_angle_alpha   89.12397600
_cell_angle_beta   89.99298200
_cell_angle_gamma   92.80724700
_symmetry_Int_Tables_number   1
_chemical_formula_structural   ZnH11C25N3O4F9
_chemical_formula_sum   'Zn2 H22 C50 N6 O8 F18'
_cell_volume   3019.29154848
_cell_formula_units_Z   2
loop_
 _symmetry_equiv_pos_site_id
 _symmetry_equiv_pos_as_xyz
  1  'x, y, z'
loop_
 _atom_site_type_symbol
 _atom_site_label
 _atom_site_symmetry_multiplicity
 _atom_site_fract_x
 _atom_site_fract_y
 _atom_site_fract_z
 _atom_site_occupancy
  Zn  Zn1  1  0.49856300  0.40561500  0.49040100  1
  Zn  Zn2  1  0.50150300  0.59438700  0.50955600  1
  H  H1  1  0.80778400  0.88959600  0.48169000  1
  H  H2  1  0.19228100  0.11040600  0.51826700  1
  H  H3  1  0.75675500  0.80063900  0.37023900  1
  H  H4  1  0.24331100  0.19936300  0.62971800  1
  H  H5  1  0.81366100  0.65269300  0.36975500  1
  H  H6  1  0.18640500  0.34730900  0.63020200  1
  H  H7  1  0.97897400  0.68588900  0.59201800  1
  H  H8  1  0.02109200  0.31411300  0.40793900  1
  H  H9  1  0.91751700  0.83193300  0.59324700  1
  H  H10  1  0.08254800  0.16806900  0.40671000  1
  H  H11  1  0.51361100  0.39373500  0.24744200  1
  H  H12  1  0.48645500  0.60626700  0.75251500  1
  H  H13  1  0.51126800  0.39474200  0.10958400  1
  H  H14  1  0.48879800  0.60526000  0.89037300  1
  H  H15  1  0.48702900  0.33907400  0.89699600  1
  H  H16  1  0.51303700  0.66092900  0.10296100  1
  H  H17  1  0.61257500  0.27603400  0.57542600  1
  H  H18  1  0.38749000  0.72396800  0.42453100  1
  H  H19  1  0.60260900  0.88151000  0.62628200  1
  H  H20  1  0.39745600  0.11849300  0.37367500  1
  H  H21  1  0.61044400  0.72798500  0.62013900  1
  H  H22  1  0.38962200  0.27201700  0.37981800  1
  C  C1  1  0.49019500  0.48096900  0.65268200  1
  C  C2  1  0.50987000  0.51903400  0.34727500  1
  C  C3  1  0.73879000  0.50688100  0.50731900  1
  C  C4  1  0.26127600  0.49312100  0.49263800  1
  C  C5  1  0.80379400  0.77452900  0.41933900  1
  C  C6  1  0.19627100  0.22547300  0.58061800  1
  C  C7  1  0.83587500  0.69174800  0.41913900  1
  C  C8  1  0.16419000  0.30825500  0.58081800  1
  C  C9  1  0.90058900  0.65983400  0.48082900  1
  C  C10  1  0.09947600  0.34016800  0.51912800  1
  C  C11  1  0.92863900  0.71045800  0.54351600  1
  C  C12  1  0.07142700  0.28954400  0.45644100  1
  C  C13  1  0.89456700  0.79256700  0.54418900  1
  C  C14  1  0.10549900  0.20743600  0.45576800  1
  C  C15  1  0.83304200  0.82483800  0.48176100  1
  C  C16  1  0.16702300  0.17516400  0.51819600  1
  C  C17  1  0.06777800  0.56524600  0.46416000  1
  C  C18  1  0.93228700  0.43475600  0.53579700  1
  C  C19  1  0.12579100  0.49304500  0.48854100  1
  C  C20  1  0.87427500  0.50695800  0.51141600  1
  C  C21  1  0.05463200  0.42572300  0.51910100  1
  C  C22  1  0.94543300  0.57428000  0.48085600  1
  C  C23  1  0.48666700  0.47170600  0.73942100  1
  C  C24  1  0.51339900  0.52829600  0.26053600  1
  C  C25  1  0.48636400  0.54563800  0.78155500  1
  C  C26  1  0.51370200  0.45436500  0.21840200  1
  C  C27  1  0.48793000  0.54521800  0.86177100  1
  C  C28  1  0.51213600  0.45478400  0.13818600  1
  C  C29  1  0.48860400  0.46977600  0.90248000  1
  C  C30  1  0.51146200  0.53022600  0.09747700  1
  C  C31  1  0.48556000  0.39607800  0.86230600  1
  C  C32  1  0.51450500  0.60392400  0.13765100  1
  C  C33  1  0.48536000  0.39493500  0.78158000  1
  C  C34  1  0.51470500  0.60506700  0.21837700  1
  C  C35  1  0.43566000  0.76064700  0.46718400  1
  C  C36  1  0.56440500  0.23935600  0.53277300  1
  C  C37  1  0.42938700  0.84744400  0.46739500  1
  C  C38  1  0.57067900  0.15255900  0.53256200  1
  C  C39  1  0.49297900  0.89223700  0.52473000  1
  C  C40  1  0.50708600  0.10776500  0.47522700  1
  C  C41  1  0.55511000  0.84796500  0.58038600  1
  C  C42  1  0.44495600  0.15203700  0.41957100  1
  C  C43  1  0.55959900  0.76159800  0.57703200  1
  C  C44  1  0.44046700  0.23840400  0.42292500  1
  C  C45  1  0.49074900  0.31056200  0.74449000  1
  C  C46  1  0.50931600  0.68944100  0.25546700  1
  C  C47  1  0.65127000  0.11135400  0.59115200  1
  C  C48  1  0.34879600  0.88864800  0.40880500  1
  C  C49  1  0.13056900  0.63083400  0.41189200  1
  C  C50  1  0.86949700  0.36916800  0.58806500  1
  N  N1  1  0.49404300  0.46494900  0.98467100  1
  N  N2  1  0.50602300  0.53505400  0.01528600  1
  N  N3  1  0.50069300  0.71937100  0.52024400  1
  N  N4  1  0.49937300  0.28063100  0.47971300  1
  N  N5  1  0.49140400  0.98083600  0.53148000  1
  N  N6  1  0.50866200  0.01916600  0.46847800  1
  O  O1  1  0.49110000  0.41483600  0.60787800  1
  O  O2  1  0.50896500  0.58516600  0.39207900  1
  O  O3  1  0.49382900  0.55760900  0.62293300  1
  O  O4  1  0.50623700  0.44239300  0.37702400  1
  O  O5  1  0.67893500  0.43459800  0.49638100  1
  O  O6  1  0.32113100  0.56540400  0.50357600  1
  O  O7  1  0.68212100  0.57728600  0.51333200  1
  O  O8  1  0.31794500  0.42271600  0.48662500  1
  F  F1  1  0.48051200  0.24613700  0.79924800  1
  F  F2  1  0.60114100  0.30591400  0.70812900  1
  F  F3  1  0.39702600  0.29848600  0.69238100  1
  F  F4  1  0.51955400  0.75386600  0.20070900  1
  F  F5  1  0.60303900  0.70151700  0.30757600  1
  F  F6  1  0.39892500  0.69408800  0.29182800  1
  F  F7  1  0.58162200  0.07040100  0.64827000  1
  F  F8  1  0.72730000  0.17036100  0.62687800  1
  F  F9  1  0.72252300  0.05480700  0.55454000  1
  F  F10  1  0.27754300  0.94519500  0.44541700  1
  F  F11  1  0.27276500  0.82964200  0.37307900  1
  F  F12  1  0.41844300  0.92960100  0.35168700  1
  F  F13  1  0.05329500  0.65640500  0.35408300  1
  F  F14  1  0.22768300  0.59925900  0.37336900  1
  F  F15  1  0.16813100  0.69926300  0.45564500  1
  F  F16  1  0.94677000  0.34359700  0.64587400  1
  F  F17  1  0.83193500  0.30074000  0.54431200  1
  F  F18  1  0.77238200  0.40074300  0.62658800  1
