# generated using pymatgen
data_CuH10C14(NO2)2
_symmetry_space_group_name_H-M   'P 1'
_cell_length_a   8.83639800
_cell_length_b   15.09834800
_cell_length_c   13.62056200
_cell_angle_alpha   89.99675700
_cell_angle_beta   97.83051700
_cell_angle_gamma   89.99788000
_symmetry_Int_Tables_number   1
_chemical_formula_structural   CuH10C14(NO2)2
_chemical_formula_sum   'Cu2 H20 C28 N4 O8'
_cell_volume   1800.24291983
_cell_formula_units_Z   2
loop_
 _symmetry_equiv_pos_site_id
 _symmetry_equiv_pos_as_xyz
  1  'x, y, z'
loop_
 _atom_site_type_symbol
 _atom_site_label
 _atom_site_symmetry_multiplicity
 _atom_site_fract_x
 _atom_site_fract_y
 _atom_site_fract_z
 _atom_site_occupancy
  Cu  Cu1  1  0.49319700  0.50004200  0.59769800  1
  Cu  Cu2  1  0.49105200  0.50075700  0.40095600  1
  H  H1  1  0.97154100  0.50487000  0.38621600  1
  H  H2  1  0.01348000  0.49530200  0.61269100  1
  H  H3  1  0.41455500  0.06083600  0.64096700  1
  H  H4  1  0.43079900  0.93928300  0.34190700  1
  H  H5  1  0.41873700  0.22140400  0.64249700  1
  H  H6  1  0.43647100  0.77977700  0.34198000  1
  H  H7  1  0.56362000  0.22322200  0.35635500  1
  H  H8  1  0.55290800  0.77882200  0.65721300  1
  H  H9  1  0.57004800  0.06251700  0.35705500  1
  H  H10  1  0.55543100  0.93857200  0.65754500  1
  H  H11  1  0.63688300  0.61012900  0.25872300  1
  H  H12  1  0.64013000  0.38881200  0.76530100  1
  H  H13  1  0.34117300  0.38915700  0.22979700  1
  H  H14  1  0.35271800  0.61135700  0.74130300  1
  H  H15  1  0.34336800  0.38750200  0.05023200  1
  H  H16  1  0.35322900  0.61266800  0.92247400  1
  H  H17  1  0.74211500  0.58946100  0.02933400  1
  H  H18  1  0.59795400  0.66422300  0.02092200  1
  H  H19  1  0.73880000  0.39992000  0.01003400  1
  H  H20  1  0.58340400  0.33265300  0.99694400  1
  C  C1  1  0.48998800  0.33024600  0.49927300  1
  C  C2  1  0.49193800  0.67066500  0.49930500  1
  C  C3  1  0.19887000  0.50152200  0.47510800  1
  C  C4  1  0.78594000  0.49974100  0.52361600  1
  C  C5  1  0.03113400  0.50191500  0.46074000  1
  C  C6  1  0.95359300  0.49871400  0.53818100  1
  C  C7  1  0.45109500  0.09543200  0.57906900  1
  C  C8  1  0.46042900  0.90535800  0.41167500  1
  C  C9  1  0.45188200  0.18678900  0.57951700  1
  C  C10  1  0.46236700  0.81414600  0.41163000  1
  C  C11  1  0.49029500  0.23331400  0.49906200  1
  C  C12  1  0.49238300  0.76774600  0.49978400  1
  C  C13  1  0.53061600  0.18772300  0.41913600  1
  C  C14  1  0.52433900  0.81361400  0.58762700  1
  C  C15  1  0.53263500  0.09624300  0.41928300  1
  C  C16  1  0.52495500  0.90493800  0.58755400  1
  C  C17  1  0.49144400  0.04928800  0.49902500  1
  C  C18  1  0.49170200  0.95172700  0.49960000  1
  C  C19  1  0.57670700  0.56110500  0.11179700  1
  C  C20  1  0.57337200  0.43415900  0.90121000  1
  C  C21  1  0.57372900  0.56057000  0.21281500  1
  C  C22  1  0.57388500  0.43682000  0.79998000  1
  C  C23  1  0.40893100  0.43814500  0.19709200  1
  C  C24  1  0.41386400  0.56109200  0.78698700  1
  C  C25  1  0.40941100  0.43681300  0.09598800  1
  C  C26  1  0.41453300  0.56192200  0.88802500  1
  C  C27  1  0.49344800  0.49886900  0.05288400  1
  C  C28  1  0.49375300  0.49781800  0.94575000  1
  N  N1  1  0.48797800  0.50065600  0.25380700  1
  N  N2  1  0.49481000  0.49974200  0.74473300  1
  N  N3  1  0.66914700  0.62422900  0.06978200  1
  N  N4  1  0.65854600  0.36793600  0.95877100  1
  O  O1  1  0.48511700  0.37146900  0.58341600  1
  O  O2  1  0.49564500  0.62959400  0.41514800  1
  O  O3  1  0.49690700  0.37215100  0.41556700  1
  O  O4  1  0.48994100  0.62889500  0.58331300  1
  O  O5  1  0.27098400  0.49848800  0.56551400  1
  O  O6  1  0.71329600  0.50412200  0.43289600  1
  O  O7  1  0.26917100  0.50371400  0.39667100  1
  O  O8  1  0.71501400  0.49576000  0.60210400  1
