# generated using pymatgen
data_Fe2H19C45N3O19
_symmetry_space_group_name_H-M   'P 1'
_cell_length_a   15.22694600
_cell_length_b   11.79664700
_cell_length_c   15.98662000
_cell_angle_alpha   89.45638800
_cell_angle_beta   103.12035300
_cell_angle_gamma   98.60964100
_symmetry_Int_Tables_number   1
_chemical_formula_structural   Fe2H19C45N3O19
_chemical_formula_sum   'Fe2 H19 C45 N3 O19'
_cell_volume   2764.25461212
_cell_formula_units_Z   1
loop_
 _symmetry_equiv_pos_site_id
 _symmetry_equiv_pos_as_xyz
  1  'x, y, z'
loop_
 _atom_site_type_symbol
 _atom_site_label
 _atom_site_symmetry_multiplicity
 _atom_site_fract_x
 _atom_site_fract_y
 _atom_site_fract_z
 _atom_site_occupancy
  Fe  Fe1  1  0.49738400  0.98995100  0.81521800  1
  Fe  Fe2  1  0.50724700  0.02177700  0.19241000  1
  H  H1  1  0.80014300  0.02894400  0.21763700  1
  H  H2  1  0.94913500  0.01986400  0.19027300  1
  H  H3  1  0.82854600  0.94235700  0.92632600  1
  H  H4  1  0.96945400  0.06573900  0.93142100  1
  H  H5  1  0.05245900  0.98009600  0.82166900  1
  H  H6  1  0.20267100  0.98399900  0.79057700  1
  H  H7  1  0.17550200  0.05618800  0.08451500  1
  H  H8  1  0.51679200  0.23806100  0.42087800  1
  H  H9  1  0.48344300  0.21078000  0.53740000  1
  H  H10  1  0.54236600  0.80414500  0.47602600  1
  H  H11  1  0.49818900  0.77823900  0.58715600  1
  H  H12  1  0.48760300  0.66135500  0.22956100  1
  H  H13  1  0.51006300  0.56456800  0.79729800  1
  H  H14  1  0.40113100  0.43242000  0.06470800  1
  H  H15  1  0.34560500  0.44997400  0.14280900  1
  H  H16  1  0.41659700  0.34436800  0.88827800  1
  H  H17  1  0.36411500  0.28138500  0.79161000  1
  H  H18  1  0.13417500  0.79438700  0.06292900  1
  H  H19  1  0.03643100  0.78633700  0.98522000  1
  C  C1  1  0.80546300  0.01181400  0.15281600  1
  C  C2  1  0.88984400  0.00436400  0.13762800  1
  C  C3  1  0.89798400  0.97740000  0.05626600  1
  C  C4  1  0.82118800  0.96289200  0.98979900  1
  C  C5  1  0.73575500  0.97150900  0.00373000  1
  C  C6  1  0.72776000  0.99235600  0.08745000  1
  C  C7  1  0.98711200  0.96254700  0.03995500  1
  C  C8  1  0.01434300  0.01534700  0.97324400  1
  C  C9  1  0.11291100  0.99600400  0.87322300  1
  C  C10  1  0.19772400  0.99731800  0.85604900  1
  C  C11  1  0.27608300  0.01896700  0.92075600  1
  C  C12  1  0.26861900  0.03774500  0.00493400  1
  C  C13  1  0.18282700  0.03797200  0.02064300  1
  C  C14  1  0.10505300  0.01413400  0.95590300  1
  C  C15  1  0.48459300  0.16083400  0.69497400  1
  C  C16  1  0.36387400  0.02626400  0.89603300  1
  C  C17  1  0.65922600  0.96619600  0.92736300  1
  C  C18  1  0.50038500  0.77624900  0.75102900  1
  C  C19  1  0.51150800  0.23689900  0.25750400  1
  C  C20  1  0.34631300  0.04768000  0.08028100  1
  C  C21  1  0.63990600  0.98757000  0.11142000  1
  C  C22  1  0.52117500  0.85459100  0.31551300  1
  C  C23  1  0.50378000  0.33610600  0.31070600  1
  C  C24  1  0.49509800  0.44355300  0.27641500  1
  C  C25  1  0.49915100  0.53685000  0.33057300  1
  C  C26  1  0.49608700  0.64559600  0.29720100  1
  C  C27  1  0.51286300  0.73983000  0.35103200  1
  C  C28  1  0.50740600  0.32181400  0.39728200  1
  C  C29  1  0.50443500  0.41289900  0.45157400  1
  C  C30  1  0.50557500  0.52216200  0.41819000  1
  C  C31  1  0.51291000  0.61727600  0.47166900  1
  C  C32  1  0.49384100  0.28921100  0.57426600  1
  C  C33  1  0.50338700  0.39785900  0.53880300  1
  C  C34  1  0.50762300  0.49300400  0.59143200  1
  C  C35  1  0.49558000  0.27610000  0.66017200  1
  C  C36  1  0.50286000  0.37063600  0.71244000  1
  C  C37  1  0.52464500  0.72627900  0.43770400  1
  C  C38  1  0.51069200  0.60235200  0.55808400  1
  C  C39  1  0.50588200  0.69407300  0.61077700  1
  C  C40  1  0.50684000  0.47877800  0.67785800  1
  C  C41  1  0.50850400  0.57266100  0.72984800  1
  C  C42  1  0.50552400  0.67939300  0.69605600  1
  C  C43  1  0.48121300  0.45890700  0.18321400  1
  C  C44  1  0.49408400  0.35450500  0.80149600  1
  C  C45  1  0.03944600  0.87994900  0.09180700  1
  N  N1  1  0.39706100  0.41062100  0.12730900  1
  N  N2  1  0.40749600  0.35350100  0.82198400  1
  N  N3  1  0.06314800  0.78501700  0.05132000  1
  O  O1  1  0.53843600  0.13897300  0.76796500  1
  O  O2  1  0.42815600  0.11382300  0.92257100  1
  O  O3  1  0.41826200  0.08186300  0.65584500  1
  O  O4  1  0.37471000  0.95226500  0.83964700  1
  O  O5  1  0.57744700  0.98275100  0.93302600  1
  O  O6  1  0.67522300  0.95589400  0.85075100  1
  O  O7  1  0.50294800  0.88076200  0.72173800  1
  O  O8  1  0.49370900  0.75896000  0.83070800  1
  O  O9  1  0.49956800  0.13144000  0.28493500  1
  O  O10  1  0.53338900  0.25233600  0.18298600  1
  O  O11  1  0.42661700  0.02567300  0.07447600  1
  O  O12  1  0.33217100  0.06457000  0.15682900  1
  O  O13  1  0.58492000  0.93643900  0.35471200  1
  O  O14  1  0.62949300  0.06235100  0.16752900  1
  O  O15  1  0.46881400  0.87239700  0.24079700  1
  O  O16  1  0.57632600  0.89852700  0.08725000  1
  O  O17  1  0.54236100  0.50993200  0.15320300  1
  O  O18  1  0.56162300  0.34979200  0.85877500  1
  O  O19  1  0.05713000  0.88744000  0.17001600  1
