# generated using pymatgen
data_Zn3H36C62(NO3)4
_symmetry_space_group_name_H-M   'P 1'
_cell_length_a   21.96493000
_cell_length_b   21.96493000
_cell_length_c   23.83310000
_cell_angle_alpha   90.00000000
_cell_angle_beta   90.00000000
_cell_angle_gamma   90.00000000
_symmetry_Int_Tables_number   1
_chemical_formula_structural   Zn3H36C62(NO3)4
_chemical_formula_sum   'Zn12 H144 C248 N16 O48'
_cell_volume   11498.47333250
_cell_formula_units_Z   4
loop_
 _symmetry_equiv_pos_site_id
 _symmetry_equiv_pos_as_xyz
  1  'x, y, z'
loop_
 _atom_site_type_symbol
 _atom_site_label
 _atom_site_symmetry_multiplicity
 _atom_site_fract_x
 _atom_site_fract_y
 _atom_site_fract_z
 _atom_site_occupancy
  Zn  Zn1  1  0.49969400  0.06912700  0.49976100  1
  Zn  Zn2  1  0.93135000  0.49992900  0.50062800  1
  Zn  Zn3  1  0.49987200  0.93140400  0.49938800  1
  Zn  Zn4  1  0.06907300  0.49975000  0.50025300  1
  Zn  Zn5  1  0.00030500  0.56865500  0.00029600  1
  Zn  Zn6  1  0.43088400  0.00013200  0.99942900  1
  Zn  Zn7  1  0.00008300  0.43093100  0.00058700  1
  Zn  Zn8  1  0.56860700  0.00035300  0.99971800  1
  Zn  Zn9  1  0.00000100  0.00001600  0.56363200  1
  Zn  Zn10  1  0.99995800  0.00005600  0.43638300  1
  Zn  Zn11  1  0.49998200  0.50006400  0.06363300  1
  Zn  Zn12  1  0.50001500  0.50003000  0.93638300  1
  H  H1  1  0.30258800  0.16822900  0.61273100  1
  H  H2  1  0.83347900  0.30315900  0.61240800  1
  H  H3  1  0.69722700  0.83379100  0.61377800  1
  H  H4  1  0.16575800  0.69650700  0.61467200  1
  H  H5  1  0.69644700  0.16580800  0.38534100  1
  H  H6  1  0.16817300  0.30264300  0.38727900  1
  H  H7  1  0.30309900  0.83353000  0.38760900  1
  H  H8  1  0.83373500  0.69728300  0.38624000  1
  H  H9  1  0.80342100  0.66522600  0.11409000  1
  H  H10  1  0.33320600  0.80289600  0.11441800  1
  H  H11  1  0.19671800  0.33287800  0.11302700  1
  H  H12  1  0.66757200  0.19758800  0.11205600  1
  H  H13  1  0.19753800  0.66761700  0.88795700  1
  H  H14  1  0.66517900  0.80346800  0.88592400  1
  H  H15  1  0.80284500  0.33325000  0.88559900  1
  H  H16  1  0.33283000  0.19676500  0.88699100  1
  H  H17  1  0.35662300  0.91929300  0.42312500  1
  H  H18  1  0.08275800  0.35657400  0.42302800  1
  H  H19  1  0.64316100  0.08003700  0.42117200  1
  H  H20  1  0.91920500  0.64361700  0.42221400  1
  H  H21  1  0.64356100  0.91926000  0.57780300  1
  H  H22  1  0.91924300  0.35668100  0.57689000  1
  H  H23  1  0.35651800  0.08281200  0.57698400  1
  H  H24  1  0.07998700  0.64321900  0.57884200  1
  H  H25  1  0.85653700  0.41870200  0.92159600  1
  H  H26  1  0.57939200  0.85672600  0.92173700  1
  H  H27  1  0.14360900  0.58217000  0.92363600  1
  H  H28  1  0.41856400  0.14323600  0.92257200  1
  H  H29  1  0.14318800  0.41861100  0.07744400  1
  H  H30  1  0.41865800  0.85658600  0.07842000  1
  H  H31  1  0.85667900  0.57943800  0.07827600  1
  H  H32  1  0.58212500  0.14365800  0.07637800  1
  H  H33  1  0.13845200  0.89800100  0.45729500  1
  H  H34  1  0.10258300  0.13808800  0.45631900  1
  H  H35  1  0.86087100  0.10296000  0.45668400  1
  H  H36  1  0.89738500  0.86147500  0.45729000  1
  H  H37  1  0.86141900  0.89744100  0.54273000  1
  H  H38  1  0.89794400  0.13851100  0.54272000  1
  H  H39  1  0.13803400  0.10264100  0.54369000  1
  H  H40  1  0.10290500  0.86092900  0.54333100  1
  H  H41  1  0.63860600  0.39705100  0.95653600  1
  H  H42  1  0.60252200  0.63910500  0.95743400  1
  H  H43  1  0.36201000  0.60214100  0.95715100  1
  H  H44  1  0.39745300  0.36150600  0.95646800  1
  H  H45  1  0.36145900  0.39750200  0.04355000  1
  H  H46  1  0.39700400  0.63865600  0.04348000  1
  H  H47  1  0.63905700  0.60257000  0.04257900  1
  H  H48  1  0.60209200  0.36206000  0.04286400  1
  H  H49  1  0.21522200  0.77576200  0.38480700  1
  H  H50  1  0.08659200  0.74216800  0.40640400  1
  H  H51  1  0.99558100  0.75710100  0.34798200  1
  H  H52  1  0.99267100  0.84028000  0.27900200  1
  H  H53  1  0.07999900  0.90887000  0.26895000  1
  H  H54  1  0.17125600  0.89366800  0.32573600  1
  H  H55  1  0.22531900  0.21436500  0.38401300  1
  H  H56  1  0.25853800  0.08576400  0.40544700  1
  H  H57  1  0.24303900  0.99464700  0.34729400  1
  H  H58  1  0.15950900  0.99181500  0.27867400  1
  H  H59  1  0.09116400  0.07936600  0.26868300  1
  H  H60  1  0.10692300  0.17070600  0.32521600  1
  H  H61  1  0.78402600  0.22396500  0.38256700  1
  H  H62  1  0.91268900  0.25800700  0.40579200  1
  H  H63  1  0.00449400  0.24282200  0.34847300  1
  H  H64  1  0.00828900  0.15941900  0.27976600  1
  H  H65  1  0.92099700  0.09094600  0.26877900  1
  H  H66  1  0.82894700  0.10644700  0.32443600  1
  H  H67  1  0.77574800  0.78513400  0.38373900  1
  H  H68  1  0.74148500  0.91326500  0.40471500  1
  H  H69  1  0.75686100  0.00447300  0.34665000  1
  H  H70  1  0.84119300  0.00801600  0.27890100  1
  H  H71  1  0.91046900  0.92111900  0.26970400  1
  H  H72  1  0.89481800  0.82966000  0.32605200  1
  H  H73  1  0.78507900  0.77580500  0.61628300  1
  H  H74  1  0.91321200  0.74154700  0.59530100  1
  H  H75  1  0.00442000  0.75692400  0.65336400  1
  H  H76  1  0.00796100  0.84125300  0.72111800  1
  H  H77  1  0.92106100  0.91052400  0.73032000  1
  H  H78  1  0.82960200  0.89487200  0.67397300  1
  H  H79  1  0.77571100  0.21528200  0.61521300  1
  H  H80  1  0.74212300  0.08664800  0.59360900  1
  H  H81  1  0.75705700  0.99563700  0.65202900  1
  H  H82  1  0.84023300  0.99273100  0.72101400  1
  H  H83  1  0.90881600  0.08006400  0.73107200  1
  H  H84  1  0.89361300  0.17132100  0.67428900  1
  H  H85  1  0.21431200  0.22537900  0.61599200  1
  H  H86  1  0.08571600  0.25860300  0.59456400  1
  H  H87  1  0.99459800  0.24310900  0.65271700  1
  H  H88  1  0.99176100  0.15957500  0.72133400  1
  H  H89  1  0.07930600  0.09122300  0.73132200  1
  H  H90  1  0.17064600  0.10697800  0.67479000  1
  H  H91  1  0.22391500  0.78408800  0.61744200  1
  H  H92  1  0.25796400  0.91274400  0.59422700  1
  H  H93  1  0.24278100  0.00454900  0.65154600  1
  H  H94  1  0.15937300  0.00835100  0.72024700  1
  H  H95  1  0.09088900  0.92106500  0.73122500  1
  H  H96  1  0.10638800  0.82901400  0.67556900  1
  H  H97  1  0.71493300  0.27546700  0.88279300  1
  H  H98  1  0.58658100  0.24146000  0.90479500  1
  H  H99  1  0.49501100  0.25699200  0.84724500  1
  H  H100  1  0.49134000  0.34105100  0.77921700  1
  H  H101  1  0.57851100  0.40986000  0.76917300  1
  H  H102  1  0.67031700  0.39403900  0.82504100  1
  H  H103  1  0.72354700  0.71596300  0.88345900  1
  H  H104  1  0.75781200  0.58747500  0.90572100  1
  H  H105  1  0.74276000  0.49602700  0.84789500  1
  H  H106  1  0.65911000  0.49239800  0.77943500  1
  H  H107  1  0.59021200  0.57945900  0.76925500  1
  H  H108  1  0.60556800  0.67116700  0.82538700  1
  H  H109  1  0.28576200  0.72500200  0.88511300  1
  H  H110  1  0.41401100  0.75861000  0.90538300  1
  H  H111  1  0.50476900  0.74336700  0.84670600  1
  H  H112  1  0.50760000  0.65948800  0.77844800  1
  H  H113  1  0.42045100  0.59049500  0.76939800  1
  H  H114  1  0.32945400  0.60598400  0.82641000  1
  H  H115  1  0.27530500  0.28470900  0.88376600  1
  H  H116  1  0.24206500  0.41363800  0.90645600  1
  H  H117  1  0.25722600  0.50500300  0.84855000  1
  H  H118  1  0.34008500  0.50796000  0.77924500  1
  H  H119  1  0.40807600  0.42027800  0.76829500  1
  H  H120  1  0.39263300  0.32868200  0.82460700  1
  H  H121  1  0.28466300  0.27535500  0.11625400  1
  H  H122  1  0.41359500  0.24212000  0.09356100  1
  H  H123  1  0.50496000  0.25728500  0.15146700  1
  H  H124  1  0.50791300  0.34014200  0.22077400  1
  H  H125  1  0.42022700  0.40812800  0.23172600  1
  H  H126  1  0.32863200  0.39268100  0.17541400  1
  H  H127  1  0.27542400  0.71498500  0.11722800  1
  H  H128  1  0.24142700  0.58662500  0.09521500  1
  H  H129  1  0.25696200  0.49505600  0.15276500  1
  H  H130  1  0.34101400  0.49139400  0.22080300  1
  H  H131  1  0.40981100  0.57857200  0.23085500  1
  H  H132  1  0.39398600  0.67037800  0.17498600  1
  H  H133  1  0.71591700  0.72359400  0.11655600  1
  H  H134  1  0.58742700  0.75786200  0.09429300  1
  H  H135  1  0.49598000  0.74280800  0.15212000  1
  H  H136  1  0.49235100  0.65915900  0.22058000  1
  H  H137  1  0.57941200  0.59026000  0.23075800  1
  H  H138  1  0.67112100  0.60561800  0.17462400  1
  H  H139  1  0.72495700  0.28581100  0.11489800  1
  H  H140  1  0.75857100  0.41405700  0.09463400  1
  H  H141  1  0.74333000  0.50481600  0.15331200  1
  H  H142  1  0.65944900  0.50765000  0.22156700  1
  H  H143  1  0.59045000  0.42050600  0.23061200  1
  H  H144  1  0.60593600  0.32950800  0.17359900  1
  C  C1  1  0.38014500  0.00121800  0.49994200  1
  C  C2  1  0.00116500  0.38020100  0.50007000  1
  C  C3  1  0.61950300  0.99931500  0.49930100  1
  C  C4  1  0.99926100  0.61956000  0.50071600  1
  C  C5  1  0.88047300  0.49888100  0.00006600  1
  C  C6  1  0.49883400  0.88052200  0.99994700  1
  C  C7  1  0.11983200  0.50071300  0.00072000  1
  C  C8  1  0.50066600  0.11988100  0.99929600  1
  C  C9  1  0.49944700  0.00138900  0.38987100  1
  C  C10  1  0.99908000  0.50014400  0.39081200  1
  C  C11  1  0.50008500  0.99913700  0.60920300  1
  C  C12  1  0.00133900  0.49950100  0.61014400  1
  C  C13  1  0.00064000  0.49874400  0.89081200  1
  C  C14  1  0.50078800  0.99983200  0.88987000  1
  C  C15  1  0.99978100  0.50083700  0.11014500  1
  C  C16  1  0.49869800  0.00068700  0.10920300  1
  C  C17  1  0.49922500  0.00138100  0.32969800  1
  C  C18  1  0.99909200  0.50033700  0.33063900  1
  C  C19  1  0.50028000  0.99915000  0.66937600  1
  C  C20  1  0.00133100  0.49927700  0.67031700  1
  C  C21  1  0.00089700  0.49879300  0.83063900  1
  C  C22  1  0.50073700  0.99959400  0.82969800  1
  C  C23  1  0.99954100  0.50078800  0.17031700  1
  C  C24  1  0.49874800  0.00094400  0.16937600  1
  C  C25  1  0.49904300  0.00129800  0.27915100  1
  C  C26  1  0.99918200  0.50050500  0.28009200  1
  C  C27  1  0.50044900  0.99923800  0.71992300  1
  C  C28  1  0.00124900  0.49909200  0.72086400  1
  C  C29  1  0.00108300  0.49890500  0.78009200  1
  C  C30  1  0.50062800  0.99941100  0.77915100  1
  C  C31  1  0.99935600  0.50068100  0.22086400  1
  C  C32  1  0.49885800  0.00113000  0.21992300  1
  C  C33  1  0.30951300  0.91518000  0.43490500  1
  C  C34  1  0.08653000  0.30935800  0.43455200  1
  C  C35  1  0.69016200  0.08453400  0.43319900  1
  C  C36  1  0.91488900  0.69063700  0.43424100  1
  C  C37  1  0.69058100  0.91494400  0.56577700  1
  C  C38  1  0.91512800  0.30957000  0.56511000  1
  C  C39  1  0.30930300  0.08658500  0.56546000  1
  C  C40  1  0.08448200  0.69022100  0.56681500  1
  C  C41  1  0.80947800  0.41446000  0.93351700  1
  C  C42  1  0.58397600  0.80977000  0.93388500  1
  C  C43  1  0.19078400  0.58600900  0.93528100  1
  C  C44  1  0.41452900  0.19039400  0.93421400  1
  C  C45  1  0.19034600  0.41457700  0.06580200  1
  C  C46  1  0.41441400  0.80952700  0.06649800  1
  C  C47  1  0.80972300  0.58402300  0.06612900  1
  C  C48  1  0.58596300  0.19083300  0.06473400  1
  C  C49  1  0.27863100  0.86645800  0.41264700  1
  C  C50  1  0.13504800  0.27826200  0.41217000  1
  C  C51  1  0.72092500  0.13322500  0.41075200  1
  C  C52  1  0.86639200  0.72160900  0.41169500  1
  C  C53  1  0.72155400  0.86644700  0.58832400  1
  C  C54  1  0.86640600  0.27869000  0.58736900  1
  C  C55  1  0.27820700  0.13510500  0.58784100  1
  C  C56  1  0.13317400  0.72098400  0.58926100  1
  C  C57  1  0.77849500  0.36596600  0.91096900  1
  C  C58  1  0.63266800  0.77901800  0.91143500  1
  C  C59  1  0.22188300  0.63453800  0.91292900  1
  C  C60  1  0.36581500  0.22127200  0.91193200  1
  C  C61  1  0.22122500  0.36586300  0.08808500  1
  C  C62  1  0.36592100  0.77854600  0.08904800  1
  C  C63  1  0.77897000  0.63271500  0.08857900  1
  C  C64  1  0.63449200  0.22193200  0.08708600  1
  C  C65  1  0.21746600  0.85973600  0.42241100  1
  C  C66  1  0.14136600  0.21700600  0.42168600  1
  C  C67  1  0.78195500  0.14041700  0.42092100  1
  C  C68  1  0.85952400  0.78268600  0.42176400  1
  C  C69  1  0.78263100  0.85958100  0.57825500  1
  C  C70  1  0.85968200  0.21752500  0.57760500  1
  C  C71  1  0.21695200  0.14142400  0.57832300  1
  C  C72  1  0.14036400  0.78201500  0.57909200  1
  C  C73  1  0.71740000  0.35913400  0.92099200  1
  C  C74  1  0.63990700  0.71801100  0.92166600  1
  C  C75  1  0.28311600  0.64088400  0.92252000  1
  C  C76  1  0.35913300  0.28246400  0.92160700  1
  C  C77  1  0.28241700  0.35918100  0.07841100  1
  C  C78  1  0.35908900  0.71745000  0.07902500  1
  C  C79  1  0.71796400  0.63995400  0.07834800  1
  C  C80  1  0.64083700  0.28316500  0.07749500  1
  C  C81  1  0.18663100  0.90431700  0.45140800  1
  C  C82  1  0.09655100  0.18632000  0.45052000  1
  C  C83  1  0.81283800  0.09618500  0.45032400  1
  C  C84  1  0.90386600  0.81337400  0.45119300  1
  C  C85  1  0.81331800  0.90392300  0.54882600  1
  C  C86  1  0.90426200  0.18668900  0.54860700  1
  C  C87  1  0.18626500  0.09660800  0.54949000  1
  C  C88  1  0.09613100  0.81289700  0.54969000  1
  C  C89  1  0.68669800  0.40354000  0.95033300  1
  C  C90  1  0.59574900  0.68714500  0.95117100  1
  C  C91  1  0.31377300  0.59611700  0.95143300  1
  C  C92  1  0.40377100  0.31333100  0.95051000  1
  C  C93  1  0.31328300  0.40382000  0.04950800  1
  C  C94  1  0.40349300  0.68674800  0.04968300  1
  C  C95  1  0.68709700  0.59579600  0.04884300  1
  C  C96  1  0.59606900  0.31382200  0.04858200  1
  C  C97  1  0.21744500  0.95393200  0.47400700  1
  C  C98  1  0.04706900  0.21733800  0.47312100  1
  C  C99  1  0.78221900  0.04638100  0.47280600  1
  C  C100  1  0.95340600  0.78252000  0.47390400  1
  C  C101  1  0.78246400  0.95346100  0.52611400  1
  C  C102  1  0.95387800  0.21750200  0.52600700  1
  C  C103  1  0.21728300  0.04712500  0.52689000  1
  C  C104  1  0.04632700  0.78227600  0.52721000  1
  C  C105  1  0.71754500  0.45314900  0.97291700  1
  C  C106  1  0.54601600  0.71777200  0.97378400  1
  C  C107  1  0.28273800  0.54669100  0.97412700  1
  C  C108  1  0.45344600  0.28253500  0.97301100  1
  C  C109  1  0.28248700  0.45349400  0.02700500  1
  C  C110  1  0.45310200  0.71759400  0.02709900  1
  C  C111  1  0.71772400  0.54606400  0.02623000  1
  C  C112  1  0.54664400  0.28278700  0.02588800  1
  C  C113  1  0.28034000  0.95668900  0.46996000  1
  C  C114  1  0.04478200  0.28026700  0.46941900  1
  C  C115  1  0.71933000  0.04347000  0.46870200  1
  C  C116  1  0.95599800  0.71961700  0.46983600  1
  C  C117  1  0.71956000  0.95605300  0.53018100  1
  C  C118  1  0.95663600  0.28039700  0.53005300  1
  C  C119  1  0.28021200  0.04483600  0.53059300  1
  C  C120  1  0.04341700  0.71938800  0.53131300  1
  C  C121  1  0.78045800  0.45566000  0.96899100  1
  C  C122  1  0.54301900  0.78065000  0.96953100  1
  C  C123  1  0.21982000  0.54433600  0.97027000  1
  C  C124  1  0.45613200  0.21962900  0.96912700  1
  C  C125  1  0.21958100  0.45617900  0.03089000  1
  C  C126  1  0.45561300  0.78050700  0.03102400  1
  C  C127  1  0.78060200  0.54306600  0.03048300  1
  C  C128  1  0.54428900  0.21986800  0.02974500  1
  C  C129  1  0.18577400  0.00037300  0.50060700  1
  C  C130  1  0.00031700  0.18583100  0.49940600  1
  C  C131  1  0.81401500  0.99995200  0.49937400  1
  C  C132  1  0.99989600  0.81407200  0.50064300  1
  C  C133  1  0.68596200  0.49977200  0.99941200  1
  C  C134  1  0.49972400  0.68601000  0.00060200  1
  C  C135  1  0.31420300  0.50005400  0.00064300  1
  C  C136  1  0.50000600  0.31425200  0.99937200  1
  C  C137  1  0.31262100  0.00088300  0.50019300  1
  C  C138  1  0.00082900  0.31267700  0.49982000  1
  C  C139  1  0.68706800  0.99962400  0.49937900  1
  C  C140  1  0.99957000  0.68712500  0.50063800  1
  C  C141  1  0.81290800  0.49923600  0.99981900  1
  C  C142  1  0.49918900  0.81295700  0.00019500  1
  C  C143  1  0.18735600  0.50039300  0.00063600  1
  C  C144  1  0.50034500  0.18740500  0.99938000  1
  C  C145  1  0.00004900  0.11911500  0.49913500  1
  C  C146  1  0.88082100  0.99999900  0.49912800  1
  C  C147  1  0.99994300  0.88087800  0.50088800  1
  C  C148  1  0.11905900  0.00010600  0.50087800  1
  C  C149  1  0.49999700  0.61920500  0.00088000  1
  C  C150  1  0.38091900  0.50001100  0.00088400  1
  C  C151  1  0.49996300  0.38096800  0.99913100  1
  C  C152  1  0.61915700  0.50004600  0.99913500  1
  C  C153  1  0.13402600  0.81802500  0.37153000  1
  C  C154  1  0.08492600  0.77930800  0.37670800  1
  C  C155  1  0.03391200  0.78761300  0.34394400  1
  C  C156  1  0.03211900  0.83434300  0.30545200  1
  C  C157  1  0.08123200  0.87278700  0.29974500  1
  C  C158  1  0.13237100  0.86447000  0.33234700  1
  C  C159  1  0.18266100  0.13334000  0.37079300  1
  C  C160  1  0.22125900  0.08414000  0.37590000  1
  C  C161  1  0.21263600  0.03307000  0.34328300  1
  C  C162  1  0.16570900  0.03132500  0.30499300  1
  C  C163  1  0.12740600  0.08055600  0.29932200  1
  C  C164  1  0.13604100  0.13174900  0.33178100  1
  C  C165  1  0.86564800  0.18213100  0.37049400  1
  C  C166  1  0.91471700  0.22080600  0.37618100  1
  C  C167  1  0.96617800  0.21235200  0.34404300  1
  C  C168  1  0.96846500  0.16550000  0.30569900  1
  C  C169  1  0.91937500  0.12712100  0.29946900  1
  C  C170  1  0.86778600  0.13560500  0.33142300  1
  C  C171  1  0.81819100  0.86633500  0.37085300  1
  C  C172  1  0.77910000  0.91519700  0.37554400  1
  C  C173  1  0.78766000  0.96632600  0.34298700  1
  C  C174  1  0.83503700  0.96848100  0.30519200  1
  C  C175  1  0.87386300  0.91960900  0.29996000  1
  C  C176  1  0.86528300  0.86834900  0.33233800  1
  C  C177  1  0.86628000  0.81824900  0.62916700  1
  C  C178  1  0.91514300  0.77916100  0.62447300  1
  C  C179  1  0.96627200  0.78772100  0.65703000  1
  C  C180  1  0.96842500  0.83509700  0.69482800  1
  C  C181  1  0.91955200  0.87392000  0.70006100  1
  C  C182  1  0.86829100  0.86533900  0.66768400  1
  C  C183  1  0.81797300  0.13408700  0.62848800  1
  C  C184  1  0.77926100  0.08498300  0.62330700  1
  C  C185  1  0.78756800  0.03397000  0.65607000  1
  C  C186  1  0.83429600  0.03217900  0.69456400  1
  C  C187  1  0.87273500  0.08129500  0.70027400  1
  C  C188  1  0.86441600  0.13243400  0.66767300  1
  C  C189  1  0.13328600  0.18272200  0.62921500  1
  C  C190  1  0.08408900  0.22132400  0.62411000  1
  C  C191  1  0.03301900  0.21270200  0.65672700  1
  C  C192  1  0.03127100  0.16577300  0.69501500  1
  C  C193  1  0.08049900  0.12746700  0.70068400  1
  C  C194  1  0.13169200  0.13610100  0.66822500  1
  C  C195  1  0.18208000  0.86570900  0.62951800  1
  C  C196  1  0.22076000  0.91477500  0.62383500  1
  C  C197  1  0.21230800  0.96623500  0.65597300  1
  C  C198  1  0.16545200  0.96852600  0.69431300  1
  C  C199  1  0.12706700  0.91944000  0.70053900  1
  C  C200  1  0.13555000  0.86785100  0.66858500  1
  C  C201  1  0.63360100  0.31780000  0.87034300  1
  C  C202  1  0.58460400  0.27894700  0.87548900  1
  C  C203  1  0.53327500  0.28759400  0.84321900  1
  C  C204  1  0.53105400  0.33481700  0.80526200  1
  C  C205  1  0.58007400  0.37338100  0.79955800  1
  C  C206  1  0.63153200  0.36470900  0.83164900  1
  C  C207  1  0.68160400  0.63446700  0.87097600  1
  C  C208  1  0.72049200  0.58550900  0.87623200  1
  C  C209  1  0.71211300  0.53424600  0.84381100  1
  C  C210  1  0.66512000  0.53204700  0.80561000  1
  C  C211  1  0.62650400  0.58101100  0.79982900  1
  C  C212  1  0.63490900  0.63240500  0.83206700  1
  C  C213  1  0.36665000  0.68223800  0.87140700  1
  C  C214  1  0.41564600  0.72117100  0.87600800  1
  C  C215  1  0.46651800  0.71269000  0.84309900  1
  C  C216  1  0.46826900  0.66556600  0.80501800  1
  C  C217  1  0.41925800  0.62690000  0.79987200  1
  C  C218  1  0.36825900  0.63538900  0.83262100  1
  C  C219  1  0.31746300  0.36603500  0.87094500  1
  C  C220  1  0.27905400  0.41531300  0.87660400  1
  C  C221  1  0.28748800  0.46652200  0.84412700  1
  C  C222  1  0.33403600  0.46833400  0.80544700  1
  C  C223  1  0.37214400  0.41902800  0.79924000  1
  C  C224  1  0.36369400  0.36769700  0.83155600  1
  C  C225  1  0.36598800  0.31751400  0.12907500  1
  C  C226  1  0.41526800  0.27910800  0.12341400  1
  C  C227  1  0.46647700  0.28754400  0.15589100  1
  C  C228  1  0.46828700  0.33409100  0.19457200  1
  C  C229  1  0.41897900  0.37219700  0.20078000  1
  C  C230  1  0.36764800  0.36374400  0.16846400  1
  C  C231  1  0.31775700  0.63365200  0.12967500  1
  C  C232  1  0.27891000  0.58465100  0.12452500  1
  C  C233  1  0.28756000  0.53332300  0.15679500  1
  C  C234  1  0.33477900  0.53110700  0.19475700  1
  C  C235  1  0.37333500  0.58013200  0.20046500  1
  C  C236  1  0.36466100  0.63158900  0.16837400  1
  C  C237  1  0.63441900  0.68165200  0.12903800  1
  C  C238  1  0.58546200  0.72054000  0.12378200  1
  C  C239  1  0.53419900  0.71216300  0.15620300  1
  C  C240  1  0.53199900  0.66516900  0.19440300  1
  C  C241  1  0.58096300  0.62655200  0.20018400  1
  C  C242  1  0.63235700  0.63495700  0.16794700  1
  C  C243  1  0.68219300  0.36670000  0.12860700  1
  C  C244  1  0.72113000  0.41569300  0.12400800  1
  C  C245  1  0.71265100  0.46656600  0.15691700  1
  C  C246  1  0.66552500  0.46832000  0.19499600  1
  C  C247  1  0.62685700  0.41931100  0.20014000  1
  C  C248  1  0.63534300  0.36831200  0.16739100  1
  N  N1  1  0.18686500  0.80689800  0.40367500  1
  N  N2  1  0.19403800  0.18616800  0.40288000  1
  N  N3  1  0.81239900  0.19329100  0.40204700  1
  N  N4  1  0.80684400  0.81338800  0.40279200  1
  N  N5  1  0.81333300  0.80690100  0.59722800  1
  N  N6  1  0.80684500  0.18692500  0.59634300  1
  N  N7  1  0.18611400  0.19409600  0.59712700  1
  N  N8  1  0.19323800  0.81246000  0.59796500  1
  N  N9  1  0.68670300  0.30643500  0.90205200  1
  N  N10  1  0.69275900  0.68756200  0.90275200  1
  N  N11  1  0.31396900  0.69355000  0.90372600  1
  N  N12  1  0.30628600  0.31305200  0.90286600  1
  N  N13  1  0.31300600  0.30633600  0.09715400  1
  N  N14  1  0.30639000  0.68675400  0.09796600  1
  N  N15  1  0.68751600  0.69280700  0.09726200  1
  N  N16  1  0.69350400  0.31401800  0.09628800  1
  O  O1  1  0.40878900  0.05360700  0.49709400  1
  O  O2  1  0.94904300  0.40941500  0.49752400  1
  O  O3  1  0.59081400  0.94687800  0.49791900  1
  O  O4  1  0.05143200  0.59033000  0.49932300  1
  O  O5  1  0.59027400  0.05148600  0.50069400  1
  O  O6  1  0.05355400  0.40884600  0.50291800  1
  O  O7  1  0.40935800  0.94909700  0.50249000  1
  O  O8  1  0.94682400  0.59087000  0.50209800  1
  O  O9  1  0.90972800  0.55104000  0.99883700  1
  O  O10  1  0.44638500  0.90918600  0.99846100  1
  O  O11  1  0.09062300  0.44859800  0.99800500  1
  O  O12  1  0.55305800  0.09123300  0.99655600  1
  O  O13  1  0.09118400  0.55310600  0.00346000  1
  O  O14  1  0.55099300  0.90977700  0.00117600  1
  O  O15  1  0.90913800  0.44643200  0.00155300  1
  O  O16  1  0.44855000  0.09067100  0.00201200  1
  O  O17  1  0.50019000  0.05391100  0.41593600  1
  O  O18  1  0.94664300  0.50342000  0.41687600  1
  O  O19  1  0.49890700  0.94883800  0.41592200  1
  O  O20  1  0.05155200  0.49680300  0.41684100  1
  O  O21  1  0.49674500  0.05160900  0.58317300  1
  O  O22  1  0.05386000  0.50024400  0.58407800  1
  O  O23  1  0.50336200  0.94669900  0.58314000  1
  O  O24  1  0.94878700  0.49896200  0.58409400  1
  O  O25  1  0.00380800  0.55119800  0.91689100  1
  O  O26  1  0.44825500  0.00054800  0.91594800  1
  O  O27  1  0.99716000  0.44629000  0.91682600  1
  O  O28  1  0.55332800  0.99929500  0.91590800  1
  O  O29  1  0.99924500  0.55337700  0.08410600  1
  O  O30  1  0.55115100  0.00385500  0.08312300  1
  O  O31  1  0.00049800  0.44830400  0.08406800  1
  O  O32  1  0.44624400  0.99720700  0.08318900  1
  O  O33  1  0.00184800  0.09055100  0.54750200  1
  O  O34  1  0.90944700  0.99933800  0.54750000  1
  O  O35  1  0.00068500  0.90909600  0.54944600  1
  O  O36  1  0.09090300  0.99820700  0.54943700  1
  O  O37  1  0.99815000  0.09095900  0.45057700  1
  O  O38  1  0.09049400  0.00190400  0.45251200  1
  O  O39  1  0.99928100  0.90950300  0.45251600  1
  O  O40  1  0.90903900  0.00074100  0.45057000  1
  O  O41  1  0.49929900  0.59098400  0.04944100  1
  O  O42  1  0.40908000  0.50187600  0.04943700  1
  O  O43  1  0.49814200  0.40952700  0.04750400  1
  O  O44  1  0.59053500  0.50073700  0.04750400  1
  O  O45  1  0.50068800  0.59058300  0.95251100  1
  O  O46  1  0.59093500  0.49934700  0.95057400  1
  O  O47  1  0.50182600  0.40912900  0.95057800  1
  O  O48  1  0.40947800  0.49819100  0.95251200  1
