# generated using pymatgen
data_V4H28C53O22
_symmetry_space_group_name_H-M   'P 1'
_cell_length_a   6.32397800
_cell_length_b   12.81400500
_cell_length_c   17.04979600
_cell_angle_alpha   111.42297900
_cell_angle_beta   95.25339300
_cell_angle_gamma   90.01654800
_symmetry_Int_Tables_number   1
_chemical_formula_structural   V4H28C53O22
_chemical_formula_sum   'V4 H28 C53 O22'
_cell_volume   1279.92948577
_cell_formula_units_Z   1
loop_
 _symmetry_equiv_pos_site_id
 _symmetry_equiv_pos_as_xyz
  1  'x, y, z'
loop_
 _atom_site_type_symbol
 _atom_site_label
 _atom_site_symmetry_multiplicity
 _atom_site_fract_x
 _atom_site_fract_y
 _atom_site_fract_z
 _atom_site_occupancy
  V  V1  1  0.05732200  0.51366600  0.50324000  1
  V  V2  1  0.55749100  0.48872800  0.50369000  1
  V  V3  1  0.86809500  0.73613500  0.99922300  1
  V  V4  1  0.36787400  0.76165200  0.99893200  1
  H  H1  1  0.95482900  0.89942800  0.55415100  1
  H  H2  1  0.94653300  0.25462600  0.60670000  1
  H  H3  1  0.84796300  0.57375500  0.78860900  1
  H  H4  1  0.00847500  0.35387600  0.94892800  1
  H  H5  1  0.95533900  0.74785400  0.59993000  1
  H  H6  1  0.97793800  0.67392700  0.71460800  1
  H  H7  1  0.08662100  0.00164900  0.89643100  1
  H  H8  1  0.95250500  0.09641200  0.58204800  1
  H  H9  1  0.05636300  0.15884000  0.92104200  1
  H  H10  1  0.92716200  0.50198800  0.90321800  1
  H  H11  1  0.11299800  0.23665000  0.28976200  1
  H  H12  1  0.80189000  0.03520300  0.17548300  1
  H  H13  1  0.65742100  0.17505600  0.30674000  1
  H  H14  1  0.28286600  0.06334900  0.21910600  1
  H  H15  1  0.58136500  0.39053700  0.89830400  1
  H  H16  1  0.47799500  0.54276300  0.71681100  1
  H  H17  1  0.44420000  0.16193400  0.55571300  1
  H  H18  1  0.43905900  0.88504300  0.89964200  1
  H  H19  1  0.36096900  0.70734200  0.78497600  1
  H  H20  1  0.43680000  0.85646600  0.60575800  1
  H  H21  1  0.54300100  0.25629900  0.92113200  1
  H  H22  1  0.43764100  0.99150800  0.58237700  1
  H  H23  1  0.45078100  0.35770400  0.60206800  1
  H  H24  1  0.30343700  0.62995300  0.16922700  1
  H  H25  1  0.60913500  0.54739000  0.28938700  1
  H  H26  1  0.78061100  0.65680100  0.22328500  1
  H  H27  1  0.15081200  0.62195500  0.30033000  1
  H  H28  1  0.38442400  0.04801100  0.06174400  1
  C  C1  1  0.34938900  0.66502300  0.62016200  1
  C  C2  1  0.31913800  0.54418200  0.38403900  1
  C  C3  1  0.82364900  0.33686600  0.38673200  1
  C  C4  1  0.85177400  0.45741000  0.62269600  1
  C  C5  1  0.03627100  0.83568100  0.81173700  1
  C  C6  1  0.89513700  0.41628100  0.69139000  1
  C  C7  1  0.98307200  0.80461900  0.66511300  1
  C  C8  1  0.99545600  0.76315000  0.72917100  1
  C  C9  1  0.05672300  0.94949200  0.83067100  1
  C  C10  1  0.02899500  0.99279900  0.76692000  1
  C  C11  1  0.99822800  0.91871900  0.68394200  1
  C  C12  1  0.02263200  0.10800200  0.78456900  1
  C  C13  1  0.99336500  0.14747600  0.71849500  1
  C  C14  1  0.97596700  0.07123400  0.63567000  1
  C  C15  1  0.97672900  0.95799700  0.61892800  1
  C  C16  1  0.03440300  0.18403200  0.86739600  1
  C  C17  1  0.00680300  0.29612600  0.88414100  1
  C  C18  1  0.97071600  0.33475900  0.81912900  1
  C  C19  1  0.97124500  0.26199900  0.73615400  1
  C  C20  1  0.92939500  0.44650100  0.83798700  1
  C  C21  1  0.88486100  0.48669900  0.77397300  1
  C  C22  1  0.94160300  0.30526000  0.67244000  1
  C  C23  1  0.13402500  0.02424900  0.18378600  1
  C  C24  1  0.95399200  0.07608500  0.20547700  1
  C  C25  1  0.80135000  0.22654800  0.31815100  1
  C  C26  1  0.96495000  0.18743700  0.27324200  1
  C  C27  1  0.39335100  0.77368000  0.68882200  1
  C  C28  1  0.53397300  0.47537500  0.81395400  1
  C  C29  1  0.43043800  0.88354600  0.83606700  1
  C  C30  1  0.38938400  0.78171800  0.77111300  1
  C  C31  1  0.43371300  0.86822500  0.67129000  1
  C  C32  1  0.46053300  0.97335800  0.73613200  1
  C  C33  1  0.46040300  0.98018600  0.81932500  1
  C  C34  1  0.48145600  0.07149200  0.71899200  1
  C  C35  1  0.51275700  0.17495300  0.78526900  1
  C  C36  1  0.52312000  0.17870300  0.86765300  1
  C  C37  1  0.49132900  0.08354200  0.88494900  1
  C  C38  1  0.46329300  0.06821600  0.63639700  1
  C  C39  1  0.46631900  0.16566400  0.62032000  1
  C  C40  1  0.49076600  0.26785000  0.68563400  1
  C  C41  1  0.52139600  0.27383600  0.76844700  1
  C  C42  1  0.47847400  0.36395300  0.66717000  1
  C  C43  1  0.49352900  0.46760100  0.73134500  1
  C  C44  1  0.55148700  0.37929900  0.83261700  1
  C  C45  1  0.29493400  0.58300100  0.31351900  1
  C  C46  1  0.46094900  0.57791700  0.27024700  1
  C  C47  1  0.63417800  0.65763900  0.18515700  1
  C  C48  1  0.45354500  0.62216900  0.20247000  1
  C  C49  1  0.63721600  0.70151800  0.11762600  1
  C  C50  1  0.54666500  0.58560900  0.88210700  1
  C  C51  1  0.04796600  0.79341000  0.88040300  1
  C  C52  1  0.13635000  0.91335600  0.11648200  1
  C  C53  1  0.48373000  0.09881100  0.97433500  1
  O  O1  1  0.48994700  0.48664900  0.38818300  1
  O  O2  1  0.17306700  0.61121600  0.61847500  1
  O  O3  1  0.94733200  0.41173200  0.55430300  1
  O  O4  1  0.22236400  0.59941300  0.45228400  1
  O  O5  1  0.99136200  0.39973300  0.38905300  1
  O  O6  1  0.44771700  0.64087900  0.55187200  1
  O  O7  1  0.33158100  0.42054600  0.50317800  1
  O  O8  1  0.72211500  0.35255500  0.45494700  1
  O  O9  1  0.67451300  0.50810700  0.61980800  1
  O  O10  1  0.83125200  0.58029800  0.50065000  1
  O  O11  1  0.37869400  0.64795900  0.88467100  1
  O  O12  1  0.80996000  0.75436500  0.11519000  1
  O  O13  1  0.00107900  0.88838300  0.04893500  1
  O  O14  1  0.67843600  0.60021800  0.95090800  1
  O  O15  1  0.87862500  0.73534000  0.88400200  1
  O  O16  1  0.50246900  0.65918400  0.05032500  1
  O  O17  1  0.59320300  0.82808900  0.99701700  1
  O  O18  1  0.17689200  0.84851900  0.94926700  1
  O  O19  1  0.30966700  0.85830900  0.11439500  1
  O  O20  1  0.09356600  0.66793100  0.99824800  1
  O  O21  1  0.55556800  0.18610200  0.02894900  1
  O  O22  1  0.37922800  0.02104400  0.99789500  1
