# generated using pymatgen
data_Zn3H34C60(NO4)4
_symmetry_space_group_name_H-M   'P 1'
_cell_length_a   21.51628600
_cell_length_b   21.51586100
_cell_length_c   46.87131500
_cell_angle_alpha   90.00000000
_cell_angle_beta   90.00000000
_cell_angle_gamma   90.00000000
_symmetry_Int_Tables_number   1
_chemical_formula_structural   Zn3H34C60(NO4)4
_chemical_formula_sum   'Zn12 H136 C240 N16 O64'
_cell_volume   21698.67306770
_cell_formula_units_Z   4
loop_
 _symmetry_equiv_pos_site_id
 _symmetry_equiv_pos_as_xyz
  1  'x, y, z'
loop_
 _atom_site_type_symbol
 _atom_site_label
 _atom_site_symmetry_multiplicity
 _atom_site_fract_x
 _atom_site_fract_y
 _atom_site_fract_z
 _atom_site_occupancy
  Zn  Zn1  1  0.99955000  0.99956800  0.46681700  1
  Zn  Zn2  1  0.50047300  0.50078700  0.96680600  1
  Zn  Zn3  1  0.00004600  0.00027400  0.53152200  1
  Zn  Zn4  1  0.50014400  0.50053500  0.03151500  1
  Zn  Zn5  1  0.92914000  0.50187900  0.50426100  1
  Zn  Zn6  1  0.49797800  0.92880000  0.50452100  1
  Zn  Zn7  1  0.07006900  0.49803100  0.50457800  1
  Zn  Zn8  1  0.50170500  0.06972300  0.50429100  1
  Zn  Zn9  1  0.43001300  0.00255400  0.00457600  1
  Zn  Zn10  1  0.99839300  0.43020500  0.00456900  1
  Zn  Zn11  1  0.57093900  0.99870200  0.00424000  1
  Zn  Zn12  1  0.00214900  0.57113800  0.00426800  1
  H  H1  1  0.50139400  0.89879900  0.36165700  1
  H  H2  1  0.10056500  0.50166100  0.36176200  1
  H  H3  1  0.49884300  0.09713900  0.36183600  1
  H  H4  1  0.90222300  0.49953200  0.36176000  1
  H  H5  1  0.00110100  0.39980100  0.86173900  1
  H  H6  1  0.59785800  0.00232700  0.86176500  1
  H  H7  1  0.99895700  0.59814600  0.86178000  1
  H  H8  1  0.39951600  0.00019600  0.86173500  1
  H  H9  1  0.03987000  0.28360000  0.54636100  1
  H  H10  1  0.71665000  0.03899800  0.54653900  1
  H  H11  1  0.95738300  0.71688400  0.54605800  1
  H  H12  1  0.28337800  0.95626600  0.54587200  1
  H  H13  1  0.54243500  0.78370100  0.04584800  1
  H  H14  1  0.21663700  0.54230200  0.04630400  1
  H  H15  1  0.46001100  0.21698700  0.04655800  1
  H  H16  1  0.78334000  0.45956100  0.04611000  1
  H  H17  1  0.10173600  0.21285200  0.50349700  1
  H  H18  1  0.78674500  0.10180400  0.50372400  1
  H  H19  1  0.89750600  0.78711200  0.50241600  1
  H  H20  1  0.21246400  0.89726400  0.50222100  1
  H  H21  1  0.60255200  0.71347500  0.00227700  1
  H  H22  1  0.28737200  0.60296200  0.00306400  1
  H  H23  1  0.39836300  0.28775100  0.00363200  1
  H  H24  1  0.71311700  0.39845200  0.00283300  1
  H  H25  1  0.94961100  0.21524400  0.45609500  1
  H  H26  1  0.78409900  0.95046200  0.45578600  1
  H  H27  1  0.05177400  0.78406500  0.45650700  1
  H  H28  1  0.21527100  0.05222200  0.45680600  1
  H  H29  1  0.44855600  0.71654400  0.95617700  1
  H  H30  1  0.28498000  0.44950100  0.95658100  1
  H  H31  1  0.55073600  0.28536600  0.95639700  1
  H  H32  1  0.71617500  0.55141300  0.95600200  1
  H  H33  1  0.88807100  0.28699200  0.49869900  1
  H  H34  1  0.71297300  0.88805600  0.49830100  1
  H  H35  1  0.11131600  0.71283900  0.49986400  1
  H  H36  1  0.28712600  0.11095000  0.50021000  1
  H  H37  1  0.38876500  0.78776100  0.99947300  1
  H  H38  1  0.21325200  0.38916200  0.99955300  1
  H  H39  1  0.61204900  0.21359800  0.99905300  1
  H  H40  1  0.78738700  0.61217500  0.99900000  1
  H  H41  1  0.93547900  0.20569400  0.54022100  1
  H  H42  1  0.79475200  0.93489500  0.53979300  1
  H  H43  1  0.06208000  0.79465800  0.54071000  1
  H  H44  1  0.20583000  0.06122000  0.54110700  1
  H  H45  1  0.43776100  0.70595100  0.04037600  1
  H  H46  1  0.29447600  0.43773100  0.04078700  1
  H  H47  1  0.56443600  0.29490400  0.04053000  1
  H  H48  1  0.70550800  0.56408100  0.04013200  1
  H  H49  1  0.49930900  0.89825500  0.41342200  1
  H  H50  1  0.10087700  0.49951300  0.41352600  1
  H  H51  1  0.50030400  0.09723400  0.41359100  1
  H  H52  1  0.90190400  0.50093100  0.41351700  1
  H  H53  1  0.99955800  0.39944300  0.91350800  1
  H  H54  1  0.59814700  0.00042800  0.91351500  1
  H  H55  1  0.00096000  0.59842000  0.91353200  1
  H  H56  1  0.39917500  0.00184400  0.91350600  1
  H  H57  1  0.37504700  0.90828700  0.27978200  1
  H  H58  1  0.09097800  0.37518800  0.27988200  1
  H  H59  1  0.62698500  0.08823300  0.28050800  1
  H  H60  1  0.91154700  0.62749700  0.28043700  1
  H  H61  1  0.87307600  0.40956100  0.78034700  1
  H  H62  1  0.58866700  0.87502200  0.78025700  1
  H  H63  1  0.12538200  0.58899600  0.77997100  1
  H  H64  1  0.40923000  0.12732900  0.78003900  1
  H  H65  1  0.87335200  0.40866900  0.72886600  1
  H  H66  1  0.59008500  0.87582300  0.72878200  1
  H  H67  1  0.12398700  0.59043000  0.72849700  1
  H  H68  1  0.40831700  0.12645500  0.72855700  1
  H  H69  1  0.37645300  0.90732400  0.22830300  1
  H  H70  1  0.09196500  0.37643800  0.22840500  1
  H  H71  1  0.62672400  0.08958000  0.22903100  1
  H  H72  1  0.91020500  0.62707300  0.22895800  1
  H  H73  1  0.09166800  0.46690300  0.64697700  1
  H  H74  1  0.53233500  0.09467100  0.64703400  1
  H  H75  1  0.90439100  0.53244900  0.64711900  1
  H  H76  1  0.46684000  0.90737300  0.64703600  1
  H  H77  1  0.59583600  0.96661900  0.14699600  1
  H  H78  1  0.03335300  0.59589300  0.14706900  1
  H  H79  1  0.40846100  0.03187700  0.14707600  1
  H  H80  1  0.96784200  0.40860000  0.14702500  1
  H  H81  1  0.09219100  0.46837600  0.59510500  1
  H  H82  1  0.53114300  0.09526700  0.59515200  1
  H  H83  1  0.90353900  0.53104300  0.59522600  1
  H  H84  1  0.46853300  0.90659400  0.59515300  1
  H  H85  1  0.59664600  0.96874200  0.09511000  1
  H  H86  1  0.03164600  0.59672600  0.09518200  1
  H  H87  1  0.40790000  0.03113200  0.09520000  1
  H  H88  1  0.96901700  0.40805800  0.09514700  1
  H  H89  1  0.10702900  0.28210100  0.45731700  1
  H  H90  1  0.11065600  0.26861400  0.40851000  1
  H  H91  1  0.06299900  0.28404800  0.36167400  1
  H  H92  1  0.95961700  0.33190800  0.35772900  1
  H  H93  1  0.90417700  0.36501400  0.40095600  1
  H  H94  1  0.95169600  0.35199700  0.44772600  1
  H  H95  1  0.71663400  0.10772800  0.45779000  1
  H  H96  1  0.73212400  0.11176400  0.40910300  1
  H  H97  1  0.71837200  0.06448900  0.36206800  1
  H  H98  1  0.67066600  0.96113100  0.35758300  1
  H  H99  1  0.63588300  0.90539500  0.40044700  1
  H  H100  1  0.64724500  0.95256400  0.44740700  1
  H  H101  1  0.89406100  0.71677200  0.45661200  1
  H  H102  1  0.89217200  0.73143900  0.40786600  1
  H  H103  1  0.94150000  0.71697000  0.36133100  1
  H  H104  1  0.04510400  0.66938000  0.35796500  1
  H  H105  1  0.09911000  0.63561200  0.40147000  1
  H  H106  1  0.04991200  0.64774700  0.44794800  1
  H  H107  1  0.28194600  0.89436800  0.45618500  1
  H  H108  1  0.26909600  0.89282000  0.40733800  1
  H  H109  1  0.28506200  0.94246800  0.36098300  1
  H  H110  1  0.33276600  0.04608200  0.35809300  1
  H  H111  1  0.36506500  0.09981000  0.40190800  1
  H  H112  1  0.35147000  0.05031500  0.44821200  1
  H  H113  1  0.60620900  0.78369800  0.95642000  1
  H  H114  1  0.60827100  0.76965900  0.90763400  1
  H  H115  1  0.55913200  0.78471200  0.86109600  1
  H  H116  1  0.45558500  0.83244000  0.85776500  1
  H  H117  1  0.40144800  0.86575100  0.90130900  1
  H  H118  1  0.45044100  0.85303000  0.94778900  1
  H  H119  1  0.21784200  0.60705700  0.95697800  1
  H  H120  1  0.23169300  0.60966800  0.90818400  1
  H  H121  1  0.21662400  0.56100300  0.86154200  1
  H  H122  1  0.16902000  0.45743300  0.85799600  1
  H  H123  1  0.13583300  0.40280200  0.90142800  1
  H  H124  1  0.14853800  0.45131300  0.94800600  1
  H  H125  1  0.39324900  0.21839500  0.95749900  1
  H  H126  1  0.38977800  0.23249800  0.90872800  1
  H  H127  1  0.43760400  0.21763600  0.86188900  1
  H  H128  1  0.54103900  0.16990600  0.85790200  1
  H  H129  1  0.59636000  0.13634500  0.90108900  1
  H  H130  1  0.54865200  0.14878500  0.94786100  1
  H  H131  1  0.78319800  0.39383300  0.95693400  1
  H  H132  1  0.76886500  0.39095800  0.90817000  1
  H  H133  1  0.78366900  0.43931200  0.86144100  1
  H  H134  1  0.83150200  0.54274200  0.85768400  1
  H  H135  1  0.86521200  0.59753500  0.90098900  1
  H  H136  1  0.85279600  0.54929300  0.94765900  1
  C  C1  1  0.12116500  0.00246500  0.49957000  1
  C  C2  1  0.99714800  0.12127700  0.49951300  1
  C  C3  1  0.87844700  0.99738400  0.49882400  1
  C  C4  1  0.00244900  0.87855700  0.49888200  1
  C  C5  1  0.62165900  0.50320900  0.99874000  1
  C  C6  1  0.49763200  0.62202300  0.99869900  1
  C  C7  1  0.37894300  0.49808600  0.99963800  1
  C  C8  1  0.50298100  0.37931100  0.99967900  1
  C  C9  1  0.99805300  0.49969700  0.65061800  1
  C  C10  1  0.49956500  0.00103200  0.65060500  1
  C  C11  1  0.50212800  0.99917700  0.15060500  1
  C  C12  1  0.00063300  0.50222800  0.15061800  1
  C  C13  1  0.50017800  0.94251400  0.37300100  1
  C  C14  1  0.05679800  0.50053500  0.37306600  1
  C  C15  1  0.49988500  0.05332200  0.37310100  1
  C  C16  1  0.94599200  0.50047700  0.37306600  1
  C  C17  1  0.00013300  0.44355800  0.87305500  1
  C  C18  1  0.55408100  0.00127500  0.87306200  1
  C  C19  1  0.00006600  0.55436600  0.87307500  1
  C  C20  1  0.44327500  0.00121600  0.87304700  1
  C  C21  1  0.49976600  0.99772400  0.41729900  1
  C  C22  1  0.00139300  0.50020100  0.41731400  1
  C  C23  1  0.00025300  0.49892600  0.91731300  1
  C  C24  1  0.49865600  0.00111900  0.91730300  1
  C  C25  1  0.50015000  0.99798600  0.35818400  1
  C  C26  1  0.00139300  0.50063600  0.35819900  1
  C  C27  1  0.00000700  0.49897800  0.85819800  1
  C  C28  1  0.49869100  0.00125800  0.85818800  1
  C  C29  1  0.05322500  0.23020500  0.50290100  1
  C  C30  1  0.76947700  0.05327000  0.50298600  1
  C  C31  1  0.94602000  0.76971800  0.50232400  1
  C  C32  1  0.22994900  0.94574600  0.50225200  1
  C  C33  1  0.55403900  0.73086800  0.00212800  1
  C  C34  1  0.27001700  0.55443700  0.00275700  1
  C  C35  1  0.44687500  0.27039100  0.00308500  1
  C  C36  1  0.73050300  0.44696300  0.00245400  1
  C  C37  1  0.01981900  0.26764100  0.52583700  1
  C  C38  1  0.73239600  0.01935300  0.52589900  1
  C  C39  1  0.97837500  0.73256600  0.52568900  1
  C  C40  1  0.26747700  0.97762400  0.52561900  1
  C  C41  1  0.52155700  0.76802100  0.02545300  1
  C  C42  1  0.23258500  0.52167100  0.02590000  1
  C  C43  1  0.48016600  0.23294800  0.02605700  1
  C  C44  1  0.76765400  0.47997100  0.02561700  1
  C  C45  1  0.99383400  0.30973200  0.50301800  1
  C  C46  1  0.69006900  0.99369500  0.50308700  1
  C  C47  1  0.00537200  0.69017400  0.50323300  1
  C  C48  1  0.30962400  0.00491000  0.50314600  1
  C  C49  1  0.49469200  0.81041600  0.00296700  1
  C  C50  1  0.19049400  0.49503900  0.00323900  1
  C  C51  1  0.50626400  0.19085900  0.00326200  1
  C  C52  1  0.81004900  0.50633300  0.00300300  1
  C  C53  1  0.02596400  0.27259300  0.48055600  1
  C  C54  1  0.72686500  0.02631700  0.48065900  1
  C  C55  1  0.97425900  0.72701800  0.48037600  1
  C  C56  1  0.27242600  0.97425300  0.48027600  1
  C  C57  1  0.52592600  0.77357200  0.98014400  1
  C  C58  1  0.22761100  0.52654800  0.98058800  1
  C  C59  1  0.47424300  0.22800500  0.98077000  1
  C  C60  1  0.77319400  0.47458700  0.98033100  1
  C  C61  1  0.96966700  0.23178500  0.47652600  1
  C  C62  1  0.76770400  0.97017400  0.47631300  1
  C  C63  1  0.03076300  0.76772400  0.47677000  1
  C  C64  1  0.23176100  0.03089800  0.47697400  1
  C  C65  1  0.46944000  0.73286100  0.97647200  1
  C  C66  1  0.26841200  0.47012400  0.97688800  1
  C  C67  1  0.53056300  0.26880200  0.97680000  1
  C  C68  1  0.73248000  0.53096800  0.97639200  1
  C  C69  1  0.93652900  0.26958400  0.49963700  1
  C  C70  1  0.73028800  0.93653400  0.49938700  1
  C  C71  1  0.06282800  0.73026100  0.50029200  1
  C  C72  1  0.26961400  0.06249000  0.50051100  1
  C  C73  1  0.43724800  0.77033400  0.99995600  1
  C  C74  1  0.23064300  0.43765000  0.00019500  1
  C  C75  1  0.56358700  0.23100600  0.99994400  1
  C  C76  1  0.76995900  0.56370600  0.99972300  1
  C  C77  1  0.96255400  0.22664300  0.52253800  1
  C  C78  1  0.77348700  0.96222500  0.52227200  1
  C  C79  1  0.03578800  0.77352600  0.52282400  1
  C  C80  1  0.22661900  0.03515700  0.52306700  1
  C  C81  1  0.46415900  0.72707300  0.02252000  1
  C  C82  1  0.27358700  0.46433100  0.02293700  1
  C  C83  1  0.53745100  0.27395200  0.02281800  1
  C  C84  1  0.72669600  0.53731000  0.02241000  1
  C  C85  1  0.99585300  0.19022100  0.49963600  1
  C  C86  1  0.80952000  0.99602800  0.49940000  1
  C  C87  1  0.00355800  0.80962300  0.49949800  1
  C  C88  1  0.19011700  0.00340100  0.49973200  1
  C  C89  1  0.49651600  0.69096300  0.99923500  1
  C  C90  1  0.30999500  0.49697200  0.99983000  1
  C  C91  1  0.50426700  0.31036800  0.99988000  1
  C  C92  1  0.69059200  0.50441100  0.99928600  1
  C  C93  1  0.49936800  0.94232900  0.40238800  1
  C  C94  1  0.05685100  0.49969400  0.40245300  1
  C  C95  1  0.50033000  0.05324500  0.40248500  1
  C  C96  1  0.94593900  0.50088900  0.40245100  1
  C  C97  1  0.99963400  0.44348000  0.90244300  1
  C  C98  1  0.55411700  0.00057400  0.90244500  1
  C  C99  1  0.00081800  0.55439400  0.90245800  1
  C  C100  1  0.44320500  0.00176800  0.90243600  1
  C  C101  1  0.99785100  0.49982800  0.56025800  1
  C  C102  1  0.49992000  0.00091500  0.56024600  1
  C  C103  1  0.50226600  0.00028100  0.06024600  1
  C  C104  1  0.00027600  0.50240700  0.06025700  1
  C  C105  1  0.99525800  0.37858900  0.50416900  1
  C  C106  1  0.62121400  0.99497400  0.50429400  1
  C  C107  1  0.00400400  0.62132300  0.50440600  1
  C  C108  1  0.37847600  0.00349200  0.50425500  1
  C  C109  1  0.49606400  0.87926300  0.00419100  1
  C  C110  1  0.12163800  0.49636200  0.00434300  1
  C  C111  1  0.50483600  0.12199700  0.00436200  1
  C  C112  1  0.87890100  0.50493100  0.00422900  1
  C  C113  1  0.00136100  0.50007100  0.44855500  1
  C  C114  1  0.49973500  0.99763000  0.44854000  1
  C  C115  1  0.49868500  0.00096800  0.94854400  1
  C  C116  1  0.00027200  0.49893600  0.94855400  1
  C  C117  1  0.54551800  0.02904700  0.31351900  1
  C  C118  1  0.97057900  0.54602200  0.31350500  1
  C  C119  1  0.45571600  0.96731800  0.31326700  1
  C  C120  1  0.03211400  0.45608600  0.31331100  1
  C  C121  1  0.04456500  0.52986300  0.81333800  1
  C  C122  1  0.46802400  0.04616500  0.81336200  1
  C  C123  1  0.95463100  0.46832300  0.81347600  1
  C  C124  1  0.52956100  0.95622900  0.81343100  1
  C  C125  1  0.45594600  0.96632800  0.28377600  1
  C  C126  1  0.03310300  0.45622000  0.28382100  1
  C  C127  1  0.54599100  0.03017500  0.28403300  1
  C  C128  1  0.96944300  0.54639900  0.28401700  1
  C  C129  1  0.95418700  0.46741900  0.78398600  1
  C  C130  1  0.53075600  0.95608600  0.78394400  1
  C  C131  1  0.04436500  0.53108100  0.78385100  1
  C  C132  1  0.46709400  0.04626400  0.78387000  1
  C  C133  1  0.50114600  0.99828800  0.26911800  1
  C  C134  1  0.00122900  0.50143400  0.26913200  1
  C  C135  1  0.99911100  0.49933200  0.76913200  1
  C  C136  1  0.49899500  0.00116500  0.76912100  1
  C  C137  1  0.41107200  0.93387700  0.26884000  1
  C  C138  1  0.06546300  0.41123100  0.26891600  1
  C  C139  1  0.59121200  0.06271400  0.26935900  1
  C  C140  1  0.93699300  0.59163600  0.26931200  1
  C  C141  1  0.90890800  0.43509900  0.76924800  1
  C  C142  1  0.56323700  0.91096400  0.76918100  1
  C  C143  1  0.08931100  0.56357200  0.76897900  1
  C  C144  1  0.43476200  0.09136800  0.76902400  1
  C  C145  1  0.90910900  0.43453100  0.73985700  1
  C  C146  1  0.56411000  0.91146800  0.73979400  1
  C  C147  1  0.08846700  0.56445600  0.73959300  1
  C  C148  1  0.43418000  0.09082400  0.73963300  1
  C  C149  1  0.41192300  0.93326100  0.23945100  1
  C  C150  1  0.06608900  0.41199100  0.23952800  1
  C  C151  1  0.59102100  0.06354100  0.23997100  1
  C  C152  1  0.93616500  0.59135000  0.23992300  1
  C  C153  1  0.95407500  0.46699300  0.72498200  1
  C  C154  1  0.53179100  0.95657900  0.72494700  1
  C  C155  1  0.04318500  0.53214000  0.72485300  1
  C  C156  1  0.46664000  0.04568700  0.72486500  1
  C  C157  1  0.45713700  0.96580900  0.22477400  1
  C  C158  1  0.03364400  0.45723000  0.22481900  1
  C  C159  1  0.54611800  0.03113100  0.22503300  1
  C  C160  1  0.96849600  0.54633900  0.22501600  1
  C  C161  1  0.99878800  0.49949100  0.73970400  1
  C  C162  1  0.49914000  0.00114400  0.73969200  1
  C  C163  1  0.50147400  0.99839800  0.23969000  1
  C  C164  1  0.00112700  0.50167100  0.23970400  1
  C  C165  1  0.95486500  0.46684200  0.69548500  1
  C  C166  1  0.53220700  0.95763500  0.69545500  1
  C  C167  1  0.04180900  0.53253100  0.69536300  1
  C  C168  1  0.46651100  0.04457600  0.69537000  1
  C  C169  1  0.45849300  0.96573100  0.19528300  1
  C  C170  1  0.03378100  0.45852600  0.19532800  1
  C  C171  1  0.54531200  0.03158400  0.19553800  1
  C  C172  1  0.96809000  0.54546900  0.19552100  1
  C  C173  1  0.05049000  0.48189800  0.63569900  1
  C  C174  1  0.51741500  0.05350800  0.63572500  1
  C  C175  1  0.94548900  0.51746600  0.63577700  1
  C  C176  1  0.48187700  0.94849400  0.63572600  1
  C  C177  1  0.55470600  0.98169300  0.13570400  1
  C  C178  1  0.01830500  0.55478800  0.13575000  1
  C  C179  1  0.44965100  0.01710200  0.13574700  1
  C  C180  1  0.98275700  0.44977800  0.13572500  1
  C  C181  1  0.05065300  0.48258500  0.60629900  1
  C  C182  1  0.51689200  0.05371100  0.60632200  1
  C  C183  1  0.94513300  0.51681500  0.60637100  1
  C  C184  1  0.48269500  0.94817800  0.60632300  1
  C  C185  1  0.55503900  0.98275800  0.10630100  1
  C  C186  1  0.01748200  0.55513300  0.10634600  1
  C  C187  1  0.44946800  0.01683500  0.10634600  1
  C  C188  1  0.98327500  0.44960300  0.10632300  1
  C  C189  1  0.99785500  0.49972800  0.59149100  1
  C  C190  1  0.49986400  0.00091900  0.59147900  1
  C  C191  1  0.50228400  0.99998600  0.09147900  1
  C  C192  1  0.00032100  0.50240100  0.09149000  1
  C  C193  1  0.03377900  0.30721900  0.43156800  1
  C  C194  1  0.06502900  0.28941700  0.40714100  1
  C  C195  1  0.03834500  0.29811600  0.38069900  1
  C  C196  1  0.98042300  0.32490000  0.37847100  1
  C  C197  1  0.94933700  0.34336000  0.40270200  1
  C  C198  1  0.97614400  0.33534000  0.42914700  1
  C  C199  1  0.69258600  0.03472900  0.43171500  1
  C  C200  1  0.71128900  0.06618900  0.40748900  1
  C  C201  1  0.70356000  0.03971000  0.38093900  1
  C  C202  1  0.67685100  0.98180500  0.37840800  1
  C  C203  1  0.65744000  0.95055300  0.40243500  1
  C  C204  1  0.66450000  0.97715100  0.42898100  1
  C  C205  1  0.96833000  0.69257900  0.43133400  1
  C  C206  1  0.93788500  0.71075300  0.40675200  1
  C  C207  1  0.96551500  0.70260000  0.38048000  1
  C  C208  1  0.02356600  0.67597200  0.37857800  1
  C  C209  1  0.05384700  0.65714000  0.40296500  1
  C  C210  1  0.02610000  0.66463600  0.42923700  1
  C  C211  1  0.30712800  0.96882700  0.43119200  1
  C  C212  1  0.28975700  0.93856700  0.40643800  1
  C  C213  1  0.29877200  0.96636900  0.38026400  1
  C  C214  1  0.32545700  0.02442700  0.37863000  1
  C  C215  1  0.34345300  0.05455400  0.40319000  1
  C  C216  1  0.33511000  0.02663000  0.42937100  1
  C  C217  1  0.53206200  0.80831000  0.93113900  1
  C  C218  1  0.56257900  0.79039400  0.90653600  1
  C  C219  1  0.53505600  0.79887900  0.88026100  1
  C  C220  1  0.47703900  0.82558600  0.87837900  1
  C  C221  1  0.44668500  0.84416200  0.90278700  1
  C  C222  1  0.47432100  0.83632700  0.92906300  1
  C  C223  1  0.19316500  0.53316900  0.93153400  1
  C  C224  1  0.21101600  0.56396000  0.90699200  1
  C  C225  1  0.20251900  0.53670700  0.88065800  1
  C  C226  1  0.17587800  0.47868000  0.87865400  1
  C  C227  1  0.15737200  0.44804800  0.90300000  1
  C  C228  1  0.16520800  0.47541600  0.92933600  1
  C  C229  1  0.46660800  0.19368000  0.93174400  1
  C  C230  1  0.43542200  0.21173800  0.90734000  1
  C  C231  1  0.46220300  0.20336500  0.88089700  1
  C  C232  1  0.52015600  0.17665600  0.87864600  1
  C  C233  1  0.55117600  0.15794100  0.90285400  1
  C  C234  1  0.52426700  0.16562800  0.92929900  1
  C  C235  1  0.80781300  0.46748700  0.93135200  1
  C  C236  1  0.78967500  0.43659300  0.90688200  1
  C  C237  1  0.79801300  0.46367600  0.88050200  1
  C  C238  1  0.82477600  0.52162900  0.87838000  1
  C  C239  1  0.84357600  0.55235100  0.90265500  1
  C  C240  1  0.83591500  0.52514400  0.92903700  1
  N  N1  1  0.50046500  0.99812300  0.32770300  1
  N  N2  1  0.00137700  0.50092700  0.32771800  1
  N  N3  1  0.99974900  0.49902500  0.82771700  1
  N  N4  1  0.49873700  0.00121000  0.82770600  1
  N  N5  1  0.99821200  0.49972600  0.68111100  1
  N  N6  1  0.49942200  0.00108400  0.68109900  1
  N  N7  1  0.50201400  0.99877700  0.18109700  1
  N  N8  1  0.00085800  0.50209100  0.18111100  1
  N  N9  1  0.06306700  0.30070700  0.45843200  1
  N  N10  1  0.69836900  0.06360100  0.45870500  1
  N  N11  1  0.93814100  0.69854000  0.45800900  1
  N  N12  1  0.30050800  0.93828300  0.45775200  1
  N  N13  1  0.56217500  0.80203900  0.95781900  1
  N  N14  1  0.19941300  0.56304400  0.95827500  1
  N  N15  1  0.43725400  0.19988900  0.95860600  1
  N  N16  1  0.80159800  0.43787000  0.95815000  1
  O  O1  1  0.09205700  0.00025900  0.47497400  1
  O  O2  1  0.99589000  0.09202200  0.47493900  1
  O  O3  1  0.90678500  0.99590500  0.47405000  1
  O  O4  1  0.00026600  0.90674500  0.47408500  1
  O  O5  1  0.59326000  0.50449100  0.97397900  1
  O  O6  1  0.49975000  0.59366100  0.97394100  1
  O  O7  1  0.40799100  0.50009800  0.97502300  1
  O  O8  1  0.50417400  0.40839200  0.97506100  1
  O  O9  1  0.09271400  0.00341200  0.52428200  1
  O  O10  1  0.99980000  0.09297800  0.52423500  1
  O  O11  1  0.90766000  0.00003100  0.52334300  1
  O  O12  1  0.00320300  0.90792000  0.52339100  1
  O  O13  1  0.59250300  0.50074900  0.02327700  1
  O  O14  1  0.49695400  0.59283000  0.02325100  1
  O  O15  1  0.40745400  0.49735100  0.02433700  1
  O  O16  1  0.50038400  0.40777900  0.02436200  1
  O  O17  1  0.94425300  0.50029500  0.54691200  1
  O  O18  1  0.49949600  0.94728000  0.54690300  1
  O  O19  1  0.05151500  0.49941100  0.54695100  1
  O  O20  1  0.50029000  0.05454100  0.54693400  1
  O  O21  1  0.44859500  0.00081500  0.04694400  1
  O  O22  1  0.99985400  0.44874800  0.04694300  1
  O  O23  1  0.55585700  0.99994400  0.04689500  1
  O  O24  1  0.00067800  0.55601100  0.04691800  1
  O  O25  1  0.94229200  0.40866500  0.50480400  1
  O  O26  1  0.59117600  0.94198500  0.50377000  1
  O  O27  1  0.05696800  0.59124300  0.50391800  1
  O  O28  1  0.40851000  0.05648300  0.50492800  1
  O  O29  1  0.44310000  0.90934600  0.00375200  1
  O  O30  1  0.09159300  0.44337600  0.00386000  1
  O  O31  1  0.55780100  0.09191300  0.00494600  1
  O  O32  1  0.90894800  0.55791500  0.00486000  1
  O  O33  1  0.04964400  0.40601600  0.50371700  1
  O  O34  1  0.59374200  0.04933800  0.50489500  1
  O  O35  1  0.94961500  0.59389600  0.50492000  1
  O  O36  1  0.40593900  0.94912500  0.50372100  1
  O  O37  1  0.55045400  0.90668300  0.00474800  1
  O  O38  1  0.09418100  0.55073400  0.00488800  1
  O  O39  1  0.45045000  0.09457300  0.00386800  1
  O  O40  1  0.90636200  0.45056100  0.00374900  1
  O  O41  1  0.94768600  0.50038500  0.46186800  1
  O  O42  1  0.49949700  0.94398400  0.46185600  1
  O  O43  1  0.05496100  0.49973300  0.46190900  1
  O  O44  1  0.50006400  0.05125400  0.46189100  1
  O  O45  1  0.44509000  0.00119100  0.96190200  1
  O  O46  1  0.99998600  0.44532700  0.96190000  1
  O  O47  1  0.55236400  0.00054700  0.96185200  1
  O  O48  1  0.00057900  0.55260200  0.96187400  1
  O  O49  1  0.59096700  0.05776700  0.32810700  1
  O  O50  1  0.94200000  0.59160200  0.32806600  1
  O  O51  1  0.40987100  0.93862700  0.32760600  1
  O  O52  1  0.06074300  0.41024300  0.32767800  1
  O  O53  1  0.09042900  0.55839600  0.82773000  1
  O  O54  1  0.43936000  0.09188800  0.82779500  1
  O  O55  1  0.90907700  0.43964400  0.82801200  1
  O  O56  1  0.55810500  0.91052800  0.82792600  1
  O  O57  1  0.91315100  0.43255900  0.68107300  1
  O  O58  1  0.56662500  0.91605200  0.68103000  1
  O  O59  1  0.08325000  0.56692100  0.68083800  1
  O  O60  1  0.43224800  0.08614200  0.68085700  1
  O  O61  1  0.41710100  0.93142700  0.18068500  1
  O  O62  1  0.06805100  0.41705000  0.18076400  1
  O  O63  1  0.58694800  0.06610300  0.18119600  1
  O  O64  1  0.93368200  0.58714500  0.18114700  1
