# generated using pymatgen
data_CoH7C14(NO2)2
_symmetry_space_group_name_H-M   'P 1'
_cell_length_a   13.04962100
_cell_length_b   13.38762200
_cell_length_c   8.51558000
_cell_angle_alpha   90.00000000
_cell_angle_beta   93.38967600
_cell_angle_gamma   90.00000000
_symmetry_Int_Tables_number   1
_chemical_formula_structural   CoH7C14(NO2)2
_chemical_formula_sum   'Co2 H14 C28 N4 O8'
_cell_volume   1485.09798561
_cell_formula_units_Z   2
loop_
 _symmetry_equiv_pos_site_id
 _symmetry_equiv_pos_as_xyz
  1  'x, y, z'
loop_
 _atom_site_type_symbol
 _atom_site_label
 _atom_site_symmetry_multiplicity
 _atom_site_fract_x
 _atom_site_fract_y
 _atom_site_fract_z
 _atom_site_occupancy
  Co  Co1  1  0.99885400  0.90055700  0.00027500  1
  Co  Co2  1  0.99884900  0.09944300  0.00027500  1
  H  H1  1  0.15921100  0.75410200  0.00795900  1
  H  H2  1  0.15920500  0.24589400  0.00795800  1
  H  H3  1  0.83745000  0.25434900  0.99129700  1
  H  H4  1  0.83745700  0.74565400  0.99129800  1
  H  H5  1  0.74811700  0.40890500  0.98639100  1
  H  H6  1  0.74811900  0.59110100  0.98639200  1
  H  H7  1  0.16930000  0.57660500  0.00806600  1
  H  H8  1  0.16929800  0.42339200  0.00806600  1
  H  H9  1  0.35005800  0.99998500  0.78839800  1
  H  H10  1  0.36050800  0.99998700  0.28395300  1
  H  H11  1  0.64827600  0.00001500  0.21342000  1
  H  H12  1  0.63832400  0.00001300  0.71792900  1
  H  H13  1  0.07741100  0.00004700  0.49559700  1
  H  H14  1  0.92120000  0.99995300  0.50551300  1
  C  C1  1  0.85671000  0.99999600  0.21159900  1
  C  C2  1  0.14160000  0.00000300  0.78959800  1
  C  C3  1  0.84780100  0.99999600  0.77521900  1
  C  C4  1  0.15125000  0.00000400  0.22611200  1
  C  C5  1  0.90994800  0.70640800  0.99488000  1
  C  C6  1  0.90994200  0.29359400  0.99487900  1
  C  C7  1  0.08887200  0.71132700  0.00414200  1
  C  C8  1  0.08886600  0.28867100  0.00414000  1
  C  C9  1  0.09377100  0.60862800  0.00419700  1
  C  C10  1  0.09376800  0.39137000  0.00419600  1
  C  C11  1  0.00427300  0.55230800  0.99952400  1
  C  C12  1  0.00427200  0.44769200  0.99952400  1
  C  C13  1  0.91171100  0.60311000  0.99480600  1
  C  C14  1  0.91170800  0.39689200  0.99480500  1
  C  C15  1  0.82031400  0.44867100  0.99007300  1
  C  C16  1  0.82031600  0.55133200  0.99007400  1
  C  C17  1  0.20631100  0.00000600  0.65566200  1
  C  C18  1  0.31176800  0.99999200  0.67230700  1
  C  C19  1  0.36892500  0.99999300  0.54037900  1
  C  C20  1  0.31904400  0.99999400  0.39014800  1
  C  C21  1  0.21272300  0.00000700  0.37599600  1
  C  C22  1  0.15884500  0.00002200  0.50849800  1
  C  C23  1  0.68669800  0.00000800  0.32941800  1
  C  C24  1  0.79215200  0.99999400  0.34575900  1
  C  C25  1  0.83975900  0.99997700  0.49284000  1
  C  C26  1  0.78604600  0.99999300  0.62554400  1
  C  C27  1  0.67970900  0.00000600  0.61165700  1
  C  C28  1  0.62969200  0.00000700  0.46151100  1
  N  N1  1  0.99803400  0.75872600  0.99953800  1
  N  N2  1  0.99802700  0.24127400  0.99953600  1
  N  N3  1  0.47726200  0.99999200  0.56372100  1
  N  N4  1  0.52135200  0.00000800  0.43833100  1
  O  O1  1  0.89284700  0.91481400  0.16209400  1
  O  O2  1  0.89284200  0.08518100  0.16209200  1
  O  O3  1  0.10507500  0.91519600  0.83897700  1
  O  O4  1  0.10506900  0.08480800  0.83897500  1
  O  O5  1  0.88644300  0.91461200  0.82774800  1
  O  O6  1  0.88643800  0.08538200  0.82774800  1
  O  O7  1  0.11155200  0.91568200  0.17307900  1
  O  O8  1  0.11154700  0.08432300  0.17307900  1
