# generated using pymatgen
data_ZnH13C15NO4
_symmetry_space_group_name_H-M   'P 1'
_cell_length_a   7.06671200
_cell_length_b   10.21420500
_cell_length_c   12.41291700
_cell_angle_alpha   90.00000000
_cell_angle_beta   79.66460500
_cell_angle_gamma   90.00000000
_symmetry_Int_Tables_number   1
_chemical_formula_structural   ZnH13C15NO4
_chemical_formula_sum   'Zn2 H26 C30 N2 O8'
_cell_volume   881.43710333
_cell_formula_units_Z   2
loop_
 _symmetry_equiv_pos_site_id
 _symmetry_equiv_pos_as_xyz
  1  'x, y, z'
loop_
 _atom_site_type_symbol
 _atom_site_label
 _atom_site_symmetry_multiplicity
 _atom_site_fract_x
 _atom_site_fract_y
 _atom_site_fract_z
 _atom_site_occupancy
  Zn  Zn1  1  0.50000700  0.82168900  0.49999000  1
  Zn  Zn2  1  0.50000800  0.11308900  0.49999800  1
  H  H1  1  0.58679300  0.06222200  0.83914200  1
  H  H2  1  0.41321200  0.06226100  0.16083900  1
  H  H3  1  0.59812400  0.11483700  0.03923100  1
  H  H4  1  0.45874100  0.93238700  0.93478900  1
  H  H5  1  0.40193400  0.11477900  0.96076300  1
  H  H6  1  0.54125600  0.93245100  0.06519300  1
  H  H7  1  0.94102100  0.16119700  0.27594100  1
  H  H8  1  0.96149300  0.22090500  0.13748600  1
  H  H9  1  0.84157700  0.31835500  0.25089700  1
  H  H10  1  0.60580900  0.22374400  0.15969300  1
  H  H11  1  0.57795400  0.15244800  0.28786600  1
  H  H12  1  0.30995000  0.73850600  0.84983200  1
  H  H13  1  0.14869800  0.79716200  0.76508600  1
  H  H14  1  0.37430200  0.72159900  0.70363300  1
  H  H15  1  0.43680600  0.96214400  0.68455200  1
  H  H16  1  0.54948900  0.89075500  0.78369800  1
  H  H17  1  0.05900600  0.16118900  0.72406600  1
  H  H18  1  0.03853400  0.22088500  0.86252500  1
  H  H19  1  0.15845200  0.31834300  0.74911900  1
  H  H20  1  0.39421900  0.22371400  0.84032000  1
  H  H21  1  0.42206200  0.15243400  0.71213700  1
  H  H22  1  0.69006800  0.73853300  0.15013900  1
  H  H23  1  0.85131800  0.79717900  0.23489000  1
  H  H24  1  0.62571500  0.72161300  0.29633700  1
  H  H25  1  0.56321200  0.96215500  0.31543400  1
  H  H26  1  0.45053000  0.89078400  0.21627900  1
  C  C1  1  0.82577000  0.97458500  0.74755300  1
  C  C2  1  0.17424700  0.97460400  0.25243500  1
  C  C3  1  0.71797800  0.01308600  0.84606000  1
  C  C4  1  0.28203100  0.01311000  0.15392600  1
  C  C5  1  0.77775800  0.99322900  0.94618300  1
  C  C6  1  0.22225800  0.99321700  0.05380700  1
  C  C7  1  0.64310300  0.01461500  0.05037000  1
  C  C8  1  0.35692100  0.01456900  0.94961800  1
  C  C9  1  0.70922600  0.01659900  0.15900800  1
  C  C10  1  0.29079400  0.01657400  0.84098300  1
  C  C11  1  0.02483600  0.96832200  0.74655200  1
  C  C12  1  0.97518200  0.96833400  0.25343700  1
  C  C13  1  0.08844100  0.98230000  0.84669200  1
  C  C14  1  0.91157600  0.98231700  0.15329800  1
  C  C15  1  0.96640200  0.97812000  0.94710500  1
  C  C16  1  0.03361200  0.97812400  0.05288500  1
  C  C17  1  0.50000700  0.53650400  0.49999100  1
  C  C18  1  0.50000900  0.39827200  0.49999600  1
  C  C19  1  0.72034500  0.96893700  0.65179100  1
  C  C20  1  0.27967400  0.96894800  0.34819600  1
  C  C21  1  0.17867300  0.96712800  0.64706100  1
  C  C22  1  0.82134400  0.96713200  0.35292800  1
  C  C23  1  0.67677500  0.15494500  0.20855000  1
  C  C24  1  0.86760400  0.21719600  0.21924100  1
  C  C25  1  0.40746000  0.91650200  0.76554000  1
  C  C26  1  0.30215700  0.78611800  0.77045600  1
  C  C27  1  0.32324900  0.15492500  0.79145500  1
  C  C28  1  0.13242300  0.21718100  0.78076900  1
  C  C29  1  0.59255800  0.91652200  0.23444200  1
  C  C30  1  0.69786000  0.78613600  0.22951700  1
  N  N1  1  0.50000600  0.64977500  0.49998800  1
  N  N2  1  0.50001000  0.28500100  0.50000000  1
  O  O1  1  0.65507300  0.07959100  0.61873100  1
  O  O2  1  0.34176900  0.85571700  0.38209400  1
  O  O3  1  0.34494300  0.07959800  0.38126400  1
  O  O4  1  0.65824900  0.85571000  0.61788700  1
  O  O5  1  0.26372200  0.85496700  0.61496100  1
  O  O6  1  0.73753700  0.07913700  0.38621500  1
  O  O7  1  0.73629300  0.85496900  0.38502000  1
  O  O8  1  0.26248200  0.07913500  0.61378000  1
