# generated using pymatgen
data_Fe2H20(C5O2)11
_symmetry_space_group_name_H-M   'P 1'
_cell_length_a   17.41908700
_cell_length_b   9.83149000
_cell_length_c   19.36561200
_cell_angle_alpha   85.11213600
_cell_angle_beta   78.15406300
_cell_angle_gamma   105.40882600
_symmetry_Int_Tables_number   1
_chemical_formula_structural   Fe2H20(C5O2)11
_chemical_formula_sum   'Fe2 H20 C55 O22'
_cell_volume   3094.65107460
_cell_formula_units_Z   1
loop_
 _symmetry_equiv_pos_site_id
 _symmetry_equiv_pos_as_xyz
  1  'x, y, z'
loop_
 _atom_site_type_symbol
 _atom_site_label
 _atom_site_symmetry_multiplicity
 _atom_site_fract_x
 _atom_site_fract_y
 _atom_site_fract_z
 _atom_site_occupancy
  Fe  Fe1  1  0.49005000  0.99417000  0.15866300  1
  Fe  Fe2  1  0.51214200  0.01005800  0.84039200  1
  H  H1  1  0.24260000  0.97509200  0.16136300  1
  H  H2  1  0.10446500  0.96067800  0.20365800  1
  H  H3  1  0.24986100  0.98288500  0.85723000  1
  H  H4  1  0.97541900  0.96281800  0.18490600  1
  H  H5  1  0.12513300  0.98328300  0.83508000  1
  H  H6  1  0.88046400  0.03071900  0.16240700  1
  H  H7  1  0.02498400  0.03252200  0.81357900  1
  H  H8  1  0.75524900  0.03168300  0.14077700  1
  H  H9  1  0.89580000  0.03357300  0.79557500  1
  H  H10  1  0.75825600  0.02205100  0.83826100  1
  H  H11  1  0.52574200  0.31708100  0.65969400  1
  H  H12  1  0.51339500  0.74408100  0.64131900  1
  H  H13  1  0.60496700  0.42095900  0.54033200  1
  H  H14  1  0.58515900  0.39703600  0.42094700  1
  H  H15  1  0.38990100  0.58754900  0.46248400  1
  H  H16  1  0.41184400  0.61650400  0.58146100  1
  H  H17  1  0.47384500  0.68604800  0.34116000  1
  H  H18  1  0.65989500  0.56232300  0.90058700  1
  H  H19  1  0.42313400  0.09156200  0.47585000  1
  H  H20  1  0.36657800  0.44102800  0.08633900  1
  C  C1  1  0.23628800  0.98237300  0.10691000  1
  C  C2  1  0.09754100  0.97322600  0.14947000  1
  C  C3  1  0.30375800  0.00010800  0.05196300  1
  C  C4  1  0.29577300  0.01123600  0.98197400  1
  C  C5  1  0.16222200  0.98442100  0.09332700  1
  C  C6  1  0.15249800  0.99570900  0.02456300  1
  C  C7  1  0.21849700  0.00302100  0.96894300  1
  C  C8  1  0.20469700  0.99500900  0.90154300  1
  C  C9  1  0.02332500  0.97767000  0.13766200  1
  C  C10  1  0.01216400  0.99444900  0.06858800  1
  C  C11  1  0.07668100  0.99782600  0.01193100  1
  C  C12  1  0.06571100  0.00230100  0.94292200  1
  C  C13  1  0.12997800  0.99424500  0.88881200  1
  C  C14  1  0.87418900  0.01562100  0.10933600  1
  C  C15  1  0.93733100  0.00320200  0.05547300  1
  C  C16  1  0.92599500  0.00626100  0.98664300  1
  C  C17  1  0.99028100  0.00849200  0.92994400  1
  C  C18  1  0.97804700  0.02117100  0.86106700  1
  C  C19  1  0.79948300  0.01569200  0.09686200  1
  C  C20  1  0.78464200  0.00369900  0.02999500  1
  C  C21  1  0.85000200  0.00805300  0.97431900  1
  C  C22  1  0.83945600  0.01601700  0.90581400  1
  C  C23  1  0.70707300  0.99485900  0.01742600  1
  C  C24  1  0.69824800  0.00238400  0.94762700  1
  C  C25  1  0.90348800  0.02429500  0.84960500  1
  C  C26  1  0.76517700  0.01736600  0.89253600  1
  C  C27  1  0.63504200  0.97556500  0.07685100  1
  C  C28  1  0.46354100  0.71311800  0.20636400  1
  C  C29  1  0.38245900  0.01419200  0.07089700  1
  C  C30  1  0.45367200  0.20217700  0.23557500  1
  C  C31  1  0.54729700  0.80071800  0.76485900  1
  C  C32  1  0.61945200  0.98854200  0.92887900  1
  C  C33  1  0.54342000  0.29263300  0.79246900  1
  C  C34  1  0.36834000  0.03227700  0.92291500  1
  C  C35  1  0.54580900  0.42463800  0.74888800  1
  C  C36  1  0.53160800  0.41586200  0.68143300  1
  C  C37  1  0.52095900  0.53015400  0.64203600  1
  C  C38  1  0.52168400  0.65343100  0.67135200  1
  C  C39  1  0.53951300  0.66570100  0.73716100  1
  C  C40  1  0.55431800  0.55367600  0.77529500  1
  C  C41  1  0.55678200  0.45619400  0.52405700  1
  C  C42  1  0.54523500  0.44177500  0.45646400  1
  C  C43  1  0.48418300  0.48600400  0.43417600  1
  C  C44  1  0.43766500  0.55155500  0.47913500  1
  C  C45  1  0.45021700  0.56832700  0.54643500  1
  C  C46  1  0.50902000  0.51857000  0.56965900  1
  C  C47  1  0.46773400  0.34246500  0.33493500  1
  C  C48  1  0.46124100  0.33589000  0.26497600  1
  C  C49  1  0.45450300  0.45214100  0.22359600  1
  C  C50  1  0.45951100  0.58021300  0.25056300  1
  C  C51  1  0.46756800  0.58671300  0.31990200  1
  C  C52  1  0.47125500  0.46950400  0.36229700  1
  C  C53  1  0.58062200  0.57563000  0.84198500  1
  C  C54  1  0.46384900  0.21240100  0.38112900  1
  C  C55  1  0.43827200  0.43333200  0.15297000  1
  O  O1  1  0.57891800  0.03980000  0.07069300  1
  O  O2  1  0.46710400  0.71881500  0.13782100  1
  O  O3  1  0.62520600  0.88972200  0.13568400  1
  O  O4  1  0.47418500  0.83259800  0.23366000  1
  O  O5  1  0.38345300  0.93649700  0.12917700  1
  O  O6  1  0.44762500  0.11811400  0.03737500  1
  O  O7  1  0.51984100  0.17321800  0.20218100  1
  O  O8  1  0.38088900  0.11927900  0.23574800  1
  O  O9  1  0.48119200  0.83195800  0.79629000  1
  O  O10  1  0.61975000  0.87910900  0.76846700  1
  O  O11  1  0.61880200  0.06485400  0.87004400  1
  O  O12  1  0.55388700  0.88620100  0.96317400  1
  O  O13  1  0.37968800  0.12202700  0.86510300  1
  O  O14  1  0.52914600  0.17278600  0.76573500  1
  O  O15  1  0.42321600  0.96480200  0.92837600  1
  O  O16  1  0.54110300  0.28727000  0.86081100  1
  O  O17  1  0.54337500  0.62833900  0.88747100  1
  O  O18  1  0.64976300  0.53941300  0.85268700  1
  O  O19  1  0.49842700  0.12736700  0.35774500  1
  O  O20  1  0.41978300  0.18475900  0.45195800  1
  O  O21  1  0.48378600  0.39018000  0.10933200  1
  O  O22  1  0.36922300  0.46067100  0.13638000  1
