# generated using pymatgen
data_ZnH11C20N(ClO2)2
_symmetry_space_group_name_H-M   'P 1'
_cell_length_a   9.76834300
_cell_length_b   10.97764000
_cell_length_c   17.48329500
_cell_angle_alpha   90.00956200
_cell_angle_beta   86.24947800
_cell_angle_gamma   90.00395300
_symmetry_Int_Tables_number   1
_chemical_formula_structural   ZnH11C20N(ClO2)2
_chemical_formula_sum   'Zn2 H22 C40 N2 Cl4 O8'
_cell_volume   1870.77712099
_cell_formula_units_Z   2
loop_
 _symmetry_equiv_pos_site_id
 _symmetry_equiv_pos_as_xyz
  1  'x, y, z'
loop_
 _atom_site_type_symbol
 _atom_site_label
 _atom_site_symmetry_multiplicity
 _atom_site_fract_x
 _atom_site_fract_y
 _atom_site_fract_z
 _atom_site_occupancy
  Zn  Zn1  1  0.34252100  0.50056200  0.50103900  1
  Zn  Zn2  1  0.65382900  0.50272900  0.49959700  1
  H  H1  1  0.69264200  0.51541900  0.74253500  1
  H  H2  1  0.30365900  0.48724000  0.25814600  1
  H  H3  1  0.74218300  0.49227900  0.25351100  1
  H  H4  1  0.25409800  0.51000300  0.74707400  1
  H  H5  1  0.64595500  0.45366600  0.99633600  1
  H  H6  1  0.35018600  0.54835900  0.00430000  1
  H  H7  1  0.24344800  0.51400600  0.88623000  1
  H  H8  1  0.75275800  0.48790200  0.11436900  1
  H  H9  1  0.31421200  0.48005300  0.12073400  1
  H  H10  1  0.68198600  0.52221800  0.87996000  1
  H  H11  1  0.69234400  0.88574100  0.54448500  1
  H  H12  1  0.30421100  0.11778900  0.45513200  1
  H  H13  1  0.88352500  0.37415200  0.41020800  1
  H  H14  1  0.11283500  0.62930600  0.59036800  1
  H  H15  1  0.13475700  0.37267300  0.41155100  1
  H  H16  1  0.86160000  0.63077500  0.58902600  1
  H  H17  1  0.05769900  0.18494900  0.53112700  1
  H  H18  1  0.79610400  0.25007500  0.73155800  1
  H  H19  1  0.60334800  0.15737700  0.66897700  1
  H  H20  1  0.20890500  0.72623400  0.27496400  1
  H  H21  1  0.93886300  0.82027900  0.46692500  1
  H  H22  1  0.12738800  0.92620400  0.52568400  1
  C  C1  1  0.49792000  0.74051800  0.49570100  1
  C  C2  1  0.49844900  0.26278900  0.50480600  1
  C  C3  1  0.48182200  0.50795100  0.65040500  1
  C  C4  1  0.51452000  0.49524000  0.35022900  1
  C  C5  1  0.47423000  0.51097900  0.73449300  1
  C  C6  1  0.52207400  0.49180700  0.26614300  1
  C  C7  1  0.59304100  0.51401100  0.77327900  1
  C  C8  1  0.40323800  0.48860000  0.22738300  1
  C  C9  1  0.58673600  0.51623000  0.85229000  1
  C  C10  1  0.40948600  0.48610000  0.14837500  1
  C  C11  1  0.46096300  0.51460700  0.89381200  1
  C  C12  1  0.53523300  0.48754600  0.10682600  1
  C  C13  1  0.34250000  0.51391800  0.85480200  1
  C  C14  1  0.65372100  0.48821100  0.14581300  1
  C  C15  1  0.34872700  0.51149200  0.77578500  1
  C  C16  1  0.64754300  0.49091400  0.22482400  1
  C  C17  1  0.44762400  0.51784600  0.97832800  1
  C  C18  1  0.54852200  0.48418500  0.02231100  1
  C  C19  1  0.60765000  0.93594600  0.52317200  1
  C  C20  1  0.38895600  0.06746100  0.47628900  1
  C  C21  1  0.60866900  0.06135500  0.52844700  1
  C  C22  1  0.38844100  0.94200000  0.47045800  1
  C  C23  1  0.49881900  0.12851200  0.50451100  1
  C  C24  1  0.49773700  0.87485400  0.49522100  1
  C  C25  1  0.93369000  0.43119100  0.45029700  1
  C  C26  1  0.06266600  0.57220700  0.55031000  1
  C  C27  1  0.07480200  0.43018200  0.45117100  1
  C  C28  1  0.92155300  0.57322900  0.54942800  1
  C  C29  1  0.72261200  0.11849200  0.56502700  1
  C  C30  1  0.84987400  0.12672400  0.52630600  1
  C  C31  1  0.95800400  0.17843200  0.56150300  1
  C  C32  1  0.93882100  0.22234700  0.63531900  1
  C  C33  1  0.81125400  0.21531200  0.67377200  1
  C  C34  1  0.70311000  0.16356900  0.63860200  1
  C  C35  1  0.27488300  0.88394700  0.43385200  1
  C  C36  1  0.29762600  0.82750600  0.36352100  1
  C  C37  1  0.19116100  0.76994500  0.33012500  1
  C  C38  1  0.06234100  0.76737900  0.36728400  1
  C  C39  1  0.03962500  0.82335300  0.43753800  1
  C  C40  1  0.14535800  0.88293300  0.47039300  1
  N  N1  1  0.13769400  0.50048500  0.50127500  1
  N  N2  1  0.85865500  0.50284100  0.49936900  1
  Cl  Cl1  1  0.87246000  0.07683400  0.43121700  1
  Cl  Cl2  1  0.07619000  0.28792700  0.67998900  1
  Cl  Cl3  1  0.46109300  0.82983300  0.31594800  1
  Cl  Cl4  1  0.92760800  0.69290700  0.32532200  1
  O  O1  1  0.38048700  0.68198400  0.49810500  1
  O  O2  1  0.61587800  0.32130800  0.50261600  1
  O  O3  1  0.61639600  0.68416700  0.49649400  1
  O  O4  1  0.37994000  0.31911600  0.50406900  1
  O  O5  1  0.36726400  0.50522600  0.61517700  1
  O  O6  1  0.62909500  0.49792300  0.38545800  1
  O  O7  1  0.60334700  0.50764400  0.61379100  1
  O  O8  1  0.39299200  0.49571800  0.38684200  1
