# generated using pymatgen
data_CuH8C17INO4
_symmetry_space_group_name_H-M   'P 1'
_cell_length_a   15.89647200
_cell_length_b   10.89810300
_cell_length_c   9.46178300
_cell_angle_alpha   89.98645500
_cell_angle_beta   90.00209800
_cell_angle_gamma   90.00442300
_symmetry_Int_Tables_number   1
_chemical_formula_structural   CuH8C17INO4
_chemical_formula_sum   'Cu2 H16 C34 I2 N2 O8'
_cell_volume   1639.17237937
_cell_formula_units_Z   2
loop_
 _symmetry_equiv_pos_site_id
 _symmetry_equiv_pos_as_xyz
  1  'x, y, z'
loop_
 _atom_site_type_symbol
 _atom_site_label
 _atom_site_symmetry_multiplicity
 _atom_site_fract_x
 _atom_site_fract_y
 _atom_site_fract_z
 _atom_site_occupancy
  Cu  Cu1  1  0.49596700  0.49874200  0.64050800  1
  Cu  Cu2  1  0.49446400  0.50159800  0.35781800  1
  H  H1  1  0.04574300  0.31126000  0.37931900  1
  H  H2  1  0.93914600  0.31490400  0.61832300  1
  H  H3  1  0.94474700  0.49638100  0.25664300  1
  H  H4  1  0.05169100  0.67388100  0.37955600  1
  H  H5  1  0.94514300  0.67752200  0.61852700  1
  H  H6  1  0.04611200  0.49242800  0.74122000  1
  H  H7  1  0.47454000  0.11020600  0.27932800  1
  H  H8  1  0.59536700  0.20299700  0.72987300  1
  H  H9  1  0.51217500  0.91307200  0.98909200  1
  H  H10  1  0.45360400  0.81006500  0.78948300  1
  H  H11  1  0.46761300  0.88869200  0.28417300  1
  H  H12  1  0.40540200  0.36534400  0.12867200  1
  H  H13  1  0.60168400  0.67959900  0.25259700  1
  H  H14  1  0.69249500  0.80719900  0.12788600  1
  H  H15  1  0.61133100  0.66643200  0.74517400  1
  H  H16  1  0.40744600  0.36173500  0.87058400  1
  C  C1  1  0.50264400  0.26414500  0.49637200  1
  C  C2  1  0.33406400  0.49101900  0.50195800  1
  C  C3  1  0.48615300  0.73712700  0.50388100  1
  C  C4  1  0.65682400  0.50437500  0.49635200  1
  C  C5  1  0.96593600  0.39628000  0.56419500  1
  C  C6  1  0.02168800  0.39438000  0.43349800  1
  C  C7  1  0.24380400  0.48910200  0.50261600  1
  C  C8  1  0.74708700  0.50274300  0.49545000  1
  C  C9  1  0.02188700  0.49340200  0.63130900  1
  C  C10  1  0.07598400  0.49154700  0.50060300  1
  C  C11  1  0.96919600  0.59439800  0.56435300  1
  C  C12  1  0.91487700  0.49725400  0.49726100  1
  C  C13  1  0.02490400  0.59250000  0.43368000  1
  C  C14  1  0.96897300  0.49539600  0.36655300  1
  C  C15  1  0.16800200  0.48937800  0.50211600  1
  C  C16  1  0.82287500  0.50051400  0.49581900  1
  C  C17  1  0.56106400  0.11797900  0.73879800  1
  C  C18  1  0.56032200  0.06220400  0.86880800  1
  C  C19  1  0.51903200  0.95301800  0.88516700  1
  C  C20  1  0.48892700  0.89210600  0.76846000  1
  C  C21  1  0.49831500  0.94118400  0.63311500  1
  C  C22  1  0.52186600  0.06355300  0.62312100  1
  C  C23  1  0.50675800  0.12829900  0.49827300  1
  C  C24  1  0.48551500  0.06326600  0.37821900  1
  C  C25  1  0.47941100  0.93696100  0.38190300  1
  C  C26  1  0.48448500  0.87364300  0.50852200  1
  C  C27  1  0.59938500  0.66748900  0.14173100  1
  C  C28  1  0.65296400  0.74369700  0.07051600  1
  C  C29  1  0.65560400  0.73986600  0.92741400  1
  C  C30  1  0.60453400  0.66010100  0.85610700  1
  C  C31  1  0.54953900  0.57976900  0.92534900  1
  C  C32  1  0.54727400  0.58326300  0.07256000  1
  C  C33  1  0.44649200  0.42764800  0.07271200  1
  C  C34  1  0.44804400  0.42502200  0.92606800  1
  I  I1  1  0.73682800  0.85736200  0.81552000  1
  I  I2  1  0.61587500  0.14923900  0.04396400  1
  N  N1  1  0.49472800  0.50733400  0.14575000  1
  N  N2  1  0.49988500  0.49929200  0.85248800  1
  O  O1  1  0.49508400  0.32083700  0.61822400  1
  O  O2  1  0.49819400  0.32274800  0.37425500  1
  O  O3  1  0.37357500  0.49200600  0.62402500  1
  O  O4  1  0.37260000  0.48829600  0.37909600  1
  O  O5  1  0.49089000  0.67673600  0.62158700  1
  O  O6  1  0.48469800  0.67937500  0.38229000  1
  O  O7  1  0.61801900  0.49628300  0.61695500  1
  O  O8  1  0.61682100  0.50530300  0.37644800  1
