# generated using pymatgen
data_Zn2H21C40(NO3)3
_symmetry_space_group_name_H-M   'P 1'
_cell_length_a   8.47734300
_cell_length_b   13.39592800
_cell_length_c   15.06919700
_cell_angle_alpha   98.83330400
_cell_angle_beta   89.84791000
_cell_angle_gamma   89.71600600
_symmetry_Int_Tables_number   1
_chemical_formula_structural   Zn2H21C40(NO3)3
_chemical_formula_sum   'Zn2 H21 C40 N3 O9'
_cell_volume   1690.95834199
_cell_formula_units_Z   1
loop_
 _symmetry_equiv_pos_site_id
 _symmetry_equiv_pos_as_xyz
  1  'x, y, z'
loop_
 _atom_site_type_symbol
 _atom_site_label
 _atom_site_symmetry_multiplicity
 _atom_site_fract_x
 _atom_site_fract_y
 _atom_site_fract_z
 _atom_site_occupancy
  Zn  Zn1  1  0.50552800  0.88743100  0.49711400  1
  Zn  Zn2  1  0.50909200  0.10915200  0.49225100  1
  H  H1  1  0.00630300  0.05487400  0.56232300  1
  H  H2  1  0.75399400  0.00139500  0.79406900  1
  H  H3  1  0.25768300  0.01312300  0.79755300  1
  H  H4  1  0.17941800  0.11639000  0.93490800  1
  H  H5  1  0.16870800  0.11217700  0.09503700  1
  H  H6  1  0.82455700  0.87835000  0.05247100  1
  H  H7  1  0.82271000  0.89121500  0.89223000  1
  H  H8  1  0.75522300  0.97592100  0.19156100  1
  H  H9  1  0.00930900  0.94739600  0.42832200  1
  H  H10  1  0.75798900  0.24327500  0.49139100  1
  H  H11  1  0.25845100  0.74228500  0.49637000  1
  H  H12  1  0.12497000  0.58586500  0.49389300  1
  H  H13  1  0.77318000  0.42189700  0.49395500  1
  H  H14  1  0.77171600  0.57569700  0.49931500  1
  H  H15  1  0.26320300  0.25367400  0.48977700  1
  H  H16  1  0.75288100  0.75398700  0.50136000  1
  H  H17  1  0.56864700  0.03084500  0.10041700  1
  H  H18  1  0.72297600  0.18653700  0.12928600  1
  H  H19  1  0.62867300  0.32965600  0.23884800  1
  H  H20  1  0.37762200  0.31715200  0.31825400  1
  H  H21  1  0.22287200  0.16198100  0.29030800  1
  C  C1  1  0.86550700  0.03022800  0.67375100  1
  C  C2  1  0.86480300  0.01196100  0.76125700  1
  C  C3  1  0.00541700  0.01180300  0.80749600  1
  C  C4  1  0.14720300  0.02065800  0.76349300  1
  C  C5  1  0.14735100  0.03537100  0.67482300  1
  C  C6  1  0.00622000  0.04493000  0.63201900  1
  C  C7  1  0.10371800  0.06246500  0.96029300  1
  C  C8  1  0.10036100  0.05813400  0.05097500  1
  C  C9  1  0.00360600  0.98989600  0.08451100  1
  C  C10  1  0.90180500  0.93146800  0.02711800  1
  C  C11  1  0.90108800  0.93853900  0.93664500  1
  C  C12  1  0.00470300  0.00256900  0.90282500  1
  C  C13  1  0.86619600  0.97122500  0.22527000  1
  C  C14  1  0.86731500  0.96092000  0.31484700  1
  C  C15  1  0.00873400  0.95453400  0.35799100  1
  C  C16  1  0.14900900  0.96702300  0.31509300  1
  C  C17  1  0.14853700  0.98109500  0.22604400  1
  C  C18  1  0.00668500  0.97958000  0.18004100  1
  C  C19  1  0.72278700  0.02099100  0.61944700  1
  C  C20  1  0.29104200  0.02493200  0.62013000  1
  C  C21  1  0.29220400  0.97570200  0.36943800  1
  C  C22  1  0.72360500  0.97159300  0.36933800  1
  C  C23  1  0.37490900  0.29231600  0.49023700  1
  C  C24  1  0.65007800  0.28656100  0.49113900  1
  C  C25  1  0.65745500  0.38955400  0.49295400  1
  C  C26  1  0.51963000  0.44606700  0.49372000  1
  C  C27  1  0.37738600  0.39564000  0.49198000  1
  C  C28  1  0.65534000  0.60756900  0.49872500  1
  C  C29  1  0.51878400  0.55064300  0.49619400  1
  C  C30  1  0.37571600  0.60041600  0.49601800  1
  C  C31  1  0.23699500  0.54697700  0.49397400  1
  C  C32  1  0.64572100  0.71044300  0.50027700  1
  C  C33  1  0.37066400  0.70381900  0.49746800  1
  C  C34  1  0.29753000  0.99049500  0.17893700  1
  C  C35  1  0.39101200  0.08323800  0.19796800  1
  C  C36  1  0.52867600  0.09214500  0.15067600  1
  C  C37  1  0.61472900  0.18014600  0.16602500  1
  C  C38  1  0.56175200  0.26042000  0.22727100  1
  C  C39  1  0.42139700  0.25319700  0.27211100  1
  C  C40  1  0.33553800  0.16506600  0.25716600  1
  N  N1  1  0.51032700  0.23955700  0.48980100  1
  N  N2  1  0.24002000  0.44639100  0.49218800  1
  N  N3  1  0.50507100  0.75701300  0.49957200  1
  O  O1  1  0.67027200  0.10148600  0.58905500  1
  O  O2  1  0.67203400  0.92962600  0.59029600  1
  O  O3  1  0.34476600  0.93298200  0.59381800  1
  O  O4  1  0.34096400  0.10384000  0.58626200  1
  O  O5  1  0.34435800  0.89506700  0.40018900  1
  O  O6  1  0.34263100  0.06700900  0.39909400  1
  O  O7  1  0.66985700  0.06349600  0.39557700  1
  O  O8  1  0.67365600  0.89282500  0.40316400  1
  O  O9  1  0.33538000  0.92517300  0.11693400  1
