# generated using pymatgen
data_FeH9C22(NO5)2
_symmetry_space_group_name_H-M   'P 1'
_cell_length_a   14.30484600
_cell_length_b   16.50580900
_cell_length_c   13.24088200
_cell_angle_alpha   103.71172700
_cell_angle_beta   86.78751800
_cell_angle_gamma   65.19687600
_symmetry_Int_Tables_number   1
_chemical_formula_structural   FeH9C22(NO5)2
_chemical_formula_sum   'Fe2 H18 C44 N4 O20'
_cell_volume   2713.88864631
_cell_formula_units_Z   2
loop_
 _symmetry_equiv_pos_site_id
 _symmetry_equiv_pos_as_xyz
  1  'x, y, z'
loop_
 _atom_site_type_symbol
 _atom_site_label
 _atom_site_symmetry_multiplicity
 _atom_site_fract_x
 _atom_site_fract_y
 _atom_site_fract_z
 _atom_site_occupancy
  Fe  Fe1  1  0.49200700  0.02582000  0.32512400  1
  Fe  Fe2  1  0.50181300  0.98848000  0.75925200  1
  H  H1  1  0.84757400  0.96825800  0.75598100  1
  H  H2  1  0.40788800  0.96683200  0.04516800  1
  H  H3  1  0.97643900  0.05159300  0.16791500  1
  H  H4  1  0.17667500  0.93999000  0.81098000  1
  H  H5  1  0.84114000  0.03718100  0.18298300  1
  H  H6  1  0.58031700  0.05959800  0.03706600  1
  H  H7  1  0.23187700  0.28663800  0.47415100  1
  H  H8  1  0.07740700  0.44988500  0.78938500  1
  H  H9  1  0.19323000  0.32666400  0.85555400  1
  H  H10  1  0.94735900  0.58373900  0.30004800  1
  H  H11  1  0.82850800  0.70423400  0.23252400  1
  H  H12  1  0.77541300  0.73716700  0.61204100  1
  H  H13  1  0.15270800  0.86867000  0.51506400  1
  H  H14  1  0.03438000  0.90065700  0.45848500  1
  H  H15  1  0.07439600  0.80696700  0.51960200  1
  H  H16  1  0.99565300  0.09557700  0.45774000  1
  H  H17  1  0.08985200  0.14232600  0.47198700  1
  H  H18  1  0.11358800  0.03742100  0.50829700  1
  C  C1  1  0.86641300  0.02161300  0.01424900  1
  C  C2  1  0.82132400  0.01033100  0.92459100  1
  C  C3  1  0.88077700  0.98139700  0.82540600  1
  C  C4  1  0.98429300  0.96471900  0.81366900  1
  C  C5  1  0.02853100  0.98000500  0.90222600  1
  C  C6  1  0.97046800  0.00927200  0.00257900  1
  C  C7  1  0.13159700  0.96626700  0.88937200  1
  C  C8  1  0.17884900  0.98194800  0.97541100  1
  C  C9  1  0.12241800  0.00877700  0.07577600  1
  C  C10  1  0.01865000  0.02507600  0.08869000  1
  C  C11  1  0.28156000  0.97081600  0.96346400  1
  C  C12  1  0.32930400  0.97335700  0.05120000  1
  C  C13  1  0.27396200  0.99921100  0.15088400  1
  C  C14  1  0.16866700  0.02079100  0.16420300  1
  C  C15  1  0.80813800  0.03891800  0.11223800  1
  C  C16  1  0.70575400  0.05244500  0.12083900  1
  C  C17  1  0.65926900  0.05201900  0.03275600  1
  C  C18  1  0.71696600  0.02670400  0.93468500  1
  C  C19  1  0.64905400  0.05410700  0.21794800  1
  C  C20  1  0.66154900  0.86270200  0.33706700  1
  C  C21  1  0.32341700  0.02513200  0.23823500  1
  C  C22  1  0.36201300  0.14041800  0.51295900  1
  C  C23  1  0.64001000  0.88103300  0.57186700  1
  C  C24  1  0.66860300  0.00163300  0.84535700  1
  C  C25  1  0.34857700  0.16098200  0.74842300  1
  C  C26  1  0.33794300  0.97117300  0.86657100  1
  C  C27  1  0.28820200  0.22433100  0.59449300  1
  C  C28  1  0.22359100  0.29651200  0.55832100  1
  C  C29  1  0.14657500  0.37740300  0.62653200  1
  C  C30  1  0.13671800  0.38714700  0.73362100  1
  C  C31  1  0.20293400  0.31638500  0.77125800  1
  C  C32  1  0.27902900  0.23368400  0.70290600  1
  C  C33  1  0.94229600  0.57980800  0.50441900  1
  C  C34  1  0.07492400  0.45010800  0.58397300  1
  C  C35  1  0.88349100  0.64373500  0.35481400  1
  C  C36  1  0.81568800  0.71305400  0.31642000  1
  C  C37  1  0.73324100  0.79204400  0.38346400  1
  C  C38  1  0.71991600  0.79970100  0.49140900  1
  C  C39  1  0.78686500  0.72899100  0.52827300  1
  C  C40  1  0.86955900  0.65149900  0.46133900  1
  C  C41  1  0.01026600  0.94362900  0.62684200  1
  C  C42  1  0.07187200  0.87571300  0.52338200  1
  C  C43  1  0.13565700  0.02054200  0.34260900  1
  C  C44  1  0.08006700  0.07750300  0.45213700  1
  N  N1  1  0.99468200  0.52675300  0.64851700  1
  N  N2  1  0.92932200  0.59074700  0.60915000  1
  N  N3  1  0.02268900  0.50328500  0.43994000  1
  N  N4  1  0.08796900  0.43926700  0.47928500  1
  O  O1  1  0.55457600  0.06082400  0.21584500  1
  O  O2  1  0.68021500  0.85266500  0.23557500  1
  O  O3  1  0.69668100  0.03368100  0.29680200  1
  O  O4  1  0.57782700  0.93458200  0.39644500  1
  O  O5  1  0.41106800  0.96201900  0.25338800  1
  O  O6  1  0.29740200  0.11375300  0.27979000  1
  O  O7  1  0.41642700  0.14885100  0.43632000  1
  O  O8  1  0.35681600  0.06141900  0.50291000  1
  O  O9  1  0.58850200  0.86801400  0.64683400  1
  O  O10  1  0.63533400  0.96379400  0.58200400  1
  O  O11  1  0.57169600  0.05837700  0.84243100  1
  O  O12  1  0.70800900  0.91371900  0.79044100  1
  O  O13  1  0.28639900  0.01746000  0.80360700  1
  O  O14  1  0.41633900  0.07897000  0.68689400  1
  O  O15  1  0.43894500  0.94559900  0.85962000  1
  O  O16  1  0.34173400  0.17797500  0.85123200  1
  O  O17  1  0.04475400  0.92879900  0.71684000  1
  O  O18  1  0.93336600  0.01480600  0.62892800  1
  O  O19  1  0.10944900  0.05734700  0.26160300  1
  O  O20  1  0.20225900  0.94044200  0.32642500  1
