# generated using pymatgen
data_Cu3H73C90(N2O3)4
_symmetry_space_group_name_H-M   'P 1'
_cell_length_a   27.39353400
_cell_length_b   27.44294900
_cell_length_c   27.50741900
_cell_angle_alpha   109.40081300
_cell_angle_beta   109.46261300
_cell_angle_gamma   109.37649100
_symmetry_Int_Tables_number   1
_chemical_formula_structural   Cu3H73C90(N2O3)4
_chemical_formula_sum   'Cu6 H146 C180 N16 O24'
_cell_volume   15952.70557166
_cell_formula_units_Z   2
loop_
 _symmetry_equiv_pos_site_id
 _symmetry_equiv_pos_as_xyz
  1  'x, y, z'
loop_
 _atom_site_type_symbol
 _atom_site_label
 _atom_site_symmetry_multiplicity
 _atom_site_fract_x
 _atom_site_fract_y
 _atom_site_fract_z
 _atom_site_occupancy
  Cu  Cu1  1  0.00219800  0.03475600  0.53835600  1
  Cu  Cu2  1  0.00246500  0.95090300  0.45455700  1
  Cu  Cu3  1  0.46460400  0.96182000  0.00415900  1
  Cu  Cu4  1  0.54616300  0.04633200  0.00209300  1
  Cu  Cu5  1  0.53691700  0.50083500  0.53819300  1
  Cu  Cu6  1  0.45146800  0.49995300  0.45460800  1
  H  H1  1  0.73269300  0.89820700  0.21951100  1
  H  H2  1  0.66021300  0.94896000  0.23652300  1
  H  H3  1  0.78322900  0.10516200  0.27861400  1
  H  H4  1  0.76163800  0.04663700  0.34333000  1
  H  H5  1  0.75835900  0.76731800  0.58684700  1
  H  H6  1  0.81558500  0.84704300  0.58381400  1
  H  H7  1  0.82149700  0.72469100  0.47642700  1
  H  H8  1  0.84193500  0.76622300  0.55327200  1
  H  H9  1  0.76585300  0.68302100  0.53426000  1
  H  H10  1  0.73519500  0.65068200  0.45518500  1
  H  H11  1  0.72180900  0.78097000  0.41967600  1
  H  H12  1  0.74049400  0.72307600  0.40025700  1
  H  H13  1  0.65340400  0.73506800  0.43825600  1
  H  H14  1  0.75218000  0.84011900  0.52714000  1
  H  H15  1  0.35067900  0.08564400  0.81020900  1
  H  H16  1  0.21439500  0.92391400  0.64303700  1
  H  H17  1  0.27171300  0.99601000  0.66641300  1
  H  H18  1  0.27505100  0.91699500  0.71395000  1
  H  H19  1  0.15644000  0.97376800  0.74180600  1
  H  H20  1  0.15680400  0.91120500  0.69266200  1
  H  H21  1  0.23300200  0.99136400  0.82232900  1
  H  H22  1  0.23280500  0.07509200  0.77684400  1
  H  H23  1  0.30957400  0.08024000  0.84853500  1
  H  H24  1  0.23218800  0.32687200  0.47962100  1
  H  H25  1  0.23128600  0.15074900  0.44507000  1
  H  H26  1  0.17239000  0.15755400  0.40392800  1
  H  H27  1  0.29459300  0.22156100  0.44145300  1
  H  H28  1  0.34737500  0.32694200  0.59202800  1
  H  H29  1  0.26942800  0.34732300  0.55403300  1
  H  H30  1  0.34899900  0.26622500  0.54355400  1
  H  H31  1  0.40999200  0.21843500  0.25516800  1
  H  H32  1  0.42240600  0.14548500  0.20095300  1
  H  H33  1  0.48587800  0.25413600  0.15509300  1
  H  H34  1  0.41842900  0.20342300  0.14764400  1
  H  H35  1  0.42241900  0.27935700  0.21340200  1
  H  H36  1  0.58922000  0.24214800  0.27154400  1
  H  H37  1  0.58141400  0.28644300  0.23689700  1
  H  H38  1  0.56809100  0.28392800  0.34029700  1
  H  H39  1  0.49333700  0.17098700  0.26269700  1
  H  H40  1  0.47015600  0.23103800  0.31945100  1
  H  H41  1  0.53266200  0.68571500  0.77155300  1
  H  H42  1  0.54613300  0.76440300  0.84671000  1
  H  H43  1  0.59627000  0.83542400  0.82770800  1
  H  H44  1  0.59366800  0.76475800  0.75604800  1
  H  H45  1  0.55619000  0.78151100  0.70167900  1
  H  H46  1  0.44113200  0.80019600  0.72237200  1
  H  H47  1  0.40311900  0.67705700  0.65485200  1
  H  H48  1  0.46686100  0.72835200  0.81649300  1
  H  H49  1  0.45265600  0.65450000  0.73502500  1
  H  H50  1  0.44984700  0.73884900  0.65286300  1
  H  H51  1  0.64516400  0.75527500  0.52009900  1
  H  H52  1  0.60483300  0.72009800  0.57119500  1
  H  H53  1  0.61164900  0.73699000  0.66666667  1
  H  H54  1  0.70076100  0.82181400  0.75997600  1
  H  H55  1  0.78424900  0.88900400  0.75719700  1
  H  H56  1  0.77866900  0.87166100  0.66160700  1
  H  H57  1  0.66337100  0.63880100  0.36325400  1
  H  H58  1  0.59505300  0.60861200  0.26869500  1
  H  H59  1  0.49512700  0.58248300  0.19895100  1
  H  H60  1  0.42763900  0.59791300  0.23497500  1
  H  H61  1  0.46025700  0.63875900  0.34142900  1
  H  H62  1  0.55922900  0.66387000  0.41157300  1
  H  H63  1  0.27166500  0.08281700  0.69511200  1
  H  H64  1  0.31955700  0.17518300  0.70432900  1
  H  H65  1  0.35623900  0.28212400  0.75636700  1
  H  H66  1  0.36730600  0.33040100  0.85524600  1
  H  H67  1  0.34234400  0.27104900  0.90216700  1
  H  H68  1  0.30610300  0.16559300  0.85209900  1
  H  H69  1  0.38276500  0.02658200  0.77444000  1
  H  H70  1  0.44426300  0.98751100  0.79602900  1
  H  H71  1  0.47556600  0.91633900  0.75845600  1
  H  H72  1  0.41611000  0.83741300  0.65341900  1
  H  H73  1  0.32469300  0.82958500  0.58619200  1
  H  H74  1  0.29302400  0.90078800  0.62298000  1
  H  H75  1  0.78504000  0.98440100  0.13969500  1
  H  H76  1  0.72419100  0.96439700  0.04782400  1
  H  H77  1  0.62693800  0.90322600  0.95740400  1
  H  H78  1  0.54589800  0.82050400  0.94839600  1
  H  H79  1  0.56359000  0.79822000  0.02997100  1
  H  H80  1  0.66076500  0.85739100  0.11977500  1
  H  H81  1  0.24498700  0.89015800  0.76986800  1
  H  H82  1  0.27217100  0.87695600  0.85084600  1
  H  H83  1  0.24939200  0.86313300  0.92563300  1
  H  H84  1  0.16746900  0.87493100  0.93551200  1
  H  H85  1  0.10757300  0.89988900  0.86950000  1
  H  H86  1  0.12953500  0.91343600  0.79409200  1
  H  H87  1  0.11224300  0.18478600  0.41734700  1
  H  H88  1  0.08767500  0.19046600  0.32994400  1
  H  H89  1  0.05992900  0.24189900  0.27756700  1
  H  H90  1  0.07687400  0.34241400  0.33324200  1
  H  H91  1  0.12137400  0.39119900  0.44187200  1
  H  H92  1  0.15052000  0.34144600  0.49487000  1
  H  H93  1  0.22920200  0.27330200  0.39817400  1
  H  H94  1  0.28518600  0.30460800  0.35718400  1
  H  H95  1  0.32164900  0.27783000  0.28795200  1
  H  H96  1  0.30683100  0.17681300  0.24080300  1
  H  H97  1  0.25549700  0.10245300  0.26330000  1
  H  H98  1  0.21883100  0.12865500  0.33264100  1
  H  H99  1  0.29283000  0.31328500  0.63183100  1
  H  H100  1  0.23973700  0.32201300  0.67963300  1
  H  H101  1  0.18244400  0.28300800  0.72214700  1
  H  H102  1  0.15225100  0.18145500  0.70579900  1
  H  H103  1  0.18120700  0.11978300  0.64719000  1
  H  H104  1  0.23671200  0.15626200  0.60390200  1
  H  H105  1  0.25884500  0.14836300  0.52805400  1
  H  H106  1  0.31146600  0.10927600  0.56769900  1
  H  H107  1  0.39505000  0.12079800  0.64839400  1
  H  H108  1  0.47332300  0.22028300  0.73302000  1
  H  H109  1  0.46753600  0.30850400  0.73596400  1
  H  H110  1  0.38618200  0.29911100  0.65731700  1
  H  H111  1  0.87154200  0.04027800  0.22623200  1
  H  H112  1  0.89779200  0.12265100  0.21295400  1
  H  H113  1  0.94352000  0.23104500  0.25821300  1
  H  H114  1  0.96742800  0.29179800  0.36037800  1
  H  H115  1  0.94551800  0.24381600  0.41739300  1
  H  H116  1  0.89968700  0.13515200  0.37253500  1
  H  H117  1  0.21123800  0.31930900  0.58363000  1
  H  H118  1  0.15777300  0.36047400  0.60230800  1
  H  H119  1  0.06293500  0.34868300  0.59408300  1
  H  H120  1  0.97207600  0.25047200  0.52931800  1
  H  H121  1  0.97714100  0.16361400  0.47249200  1
  H  H122  1  0.06986100  0.17410000  0.47824200  1
  H  H123  1  0.54399100  0.35527400  0.23602700  1
  H  H124  1  0.58886600  0.45193400  0.31484300  1
  H  H125  1  0.57835500  0.53619700  0.36603300  1
  H  H126  1  0.47873900  0.52620800  0.33607700  1
  H  H127  1  0.38976900  0.43200000  0.25345600  1
  H  H128  1  0.39930100  0.34728700  0.20170100  1
  H  H129  1  0.62235700  0.37274600  0.31327600  1
  H  H130  1  0.72031200  0.41813500  0.37859800  1
  H  H131  1  0.79950300  0.46061800  0.47973400  1
  H  H132  1  0.77487900  0.45361300  0.55616300  1
  H  H133  1  0.66995400  0.40407100  0.53087200  1
  H  H134  1  0.59018600  0.36138300  0.43043900  1
  H  H135  1  0.52862600  0.85409000  0.73236100  1
  H  H136  1  0.58704800  0.88070300  0.69212100  1
  H  H137  1  0.68553900  0.94213300  0.70877100  1
  H  H138  1  0.77333300  0.99961400  0.80890400  1
  H  H139  1  0.76202400  0.99651700  0.89299700  1
  H  H140  1  0.66358800  0.93619300  0.87734400  1
  H  H141  1  0.37405400  0.69193300  0.71872500  1
  H  H142  1  0.29836800  0.67806600  0.63070200  1
  H  H143  1  0.22369700  0.70707200  0.59573800  1
  H  H144  1  0.23283100  0.79925700  0.66310400  1
  H  H145  1  0.31708100  0.86231300  0.76587700  1
  H  H146  1  0.39075900  0.83323600  0.80105700  1
  C  C1  1  0.92081000  0.91200200  0.49602900  1
  C  C2  1  0.92185300  0.99379700  0.41624000  1
  C  C3  1  0.08349200  0.07362200  0.49664300  1
  C  C4  1  0.08286400  0.99190300  0.57673300  1
  C  C5  1  0.70520100  0.97263300  0.24255700  1
  C  C6  1  0.74322600  0.94467600  0.23175000  1
  C  C7  1  0.87832600  0.99553800  0.37138400  1
  C  C8  1  0.63502300  0.00757000  0.12865300  1
  C  C9  1  0.75964900  0.02661500  0.29996500  1
  C  C10  1  0.79696000  0.99895500  0.28854900  1
  C  C11  1  0.77309600  0.05872300  0.26608400  1
  C  C12  1  0.71907000  0.00450500  0.20917200  1
  C  C13  1  0.80985000  0.03004800  0.25516000  1
  C  C14  1  0.75625300  0.97699100  0.19861000  1
  C  C15  1  0.84169500  0.99713500  0.33385200  1
  C  C16  1  0.67344300  0.00687100  0.16528300  1
  C  C17  1  0.77357800  0.81537200  0.54066600  1
  C  C18  1  0.80553100  0.74246800  0.50652900  1
  C  C19  1  0.75207700  0.69159500  0.49663200  1
  C  C20  1  0.61862700  0.62461200  0.49273000  1
  C  C21  1  0.78699500  0.78494100  0.49368300  1
  C  C22  1  0.73200500  0.76869100  0.54728900  1
  C  C23  1  0.70365300  0.70806800  0.49277800  1
  C  C24  1  0.67931200  0.71177700  0.43627500  1
  C  C25  1  0.73163800  0.74980300  0.43285400  1
  C  C26  1  0.65667700  0.66214700  0.49230600  1
  C  C27  1  0.83507200  0.82971700  0.49442000  1
  C  C28  1  0.87440800  0.86698300  0.49508000  1
  C  C29  1  0.25875500  0.05990800  0.75857600  1
  C  C30  1  0.24746500  0.96921600  0.68167200  1
  C  C31  1  0.29103000  0.96470600  0.72862100  1
  C  C32  1  0.37589600  0.99788900  0.87484600  1
  C  C33  1  0.21524900  0.99624300  0.70681500  1
  C  C34  1  0.30700800  0.05903300  0.80506700  1
  C  C35  1  0.29261100  0.99515800  0.78761300  1
  C  C36  1  0.23168100  0.96337800  0.78164600  1
  C  C37  1  0.18505400  0.95838800  0.72870400  1
  C  C38  1  0.33784000  0.99621800  0.83551800  1
  C  C39  1  0.16857600  0.99489900  0.66005500  1
  C  C40  1  0.12947400  0.99338300  0.62182500  1
  C  C41  1  0.19052000  0.25642400  0.50066600  1
  C  C42  1  0.21561000  0.18307700  0.44560000  1
  C  C43  1  0.25901600  0.23165400  0.44303000  1
  C  C44  1  0.37019800  0.37525100  0.49945200  1
  C  C45  1  0.21081400  0.20944500  0.50165900  1
  C  C46  1  0.24376700  0.30840100  0.50871000  1
  C  C47  1  0.28793600  0.28988000  0.49989500  1
  C  C48  1  0.31886500  0.28249100  0.55150300  1
  C  C49  1  0.27358000  0.23742900  0.55754800  1
  C  C50  1  0.33306700  0.33693600  0.49991400  1
  C  C51  1  0.16547600  0.15981700  0.49873300  1
  C  C52  1  0.12821500  0.11924800  0.49669000  1
  C  C53  1  0.50359200  0.08400300  0.08311800  1
  C  C54  1  0.58870900  0.00712900  0.08443800  1
  C  C55  1  0.50780600  0.92421400  0.92382400  1
  C  C56  1  0.42211500  0.00052500  0.92129700  1
  C  C57  1  0.49488500  0.58163200  0.57755700  1
  C  C58  1  0.57389700  0.58016600  0.49401300  1
  C  C59  1  0.49252700  0.41820300  0.41525400  1
  C  C60  1  0.41454700  0.42043600  0.49862300  1
  C  C61  1  0.46650300  0.18501100  0.23639500  1
  C  C62  1  0.46580500  0.23828800  0.17960400  1
  C  C63  1  0.46895800  0.28954600  0.22674800  1
  C  C64  1  0.49289400  0.37329600  0.37003700  1
  C  C65  1  0.49876600  0.21230600  0.20873000  1
  C  C66  1  0.45759500  0.23059700  0.27652300  1
  C  C67  1  0.49607400  0.29142700  0.28674700  1
  C  C68  1  0.55932600  0.30064800  0.30866600  1
  C  C69  1  0.56189300  0.26170100  0.25639300  1
  C  C70  1  0.49405100  0.33613500  0.33235600  1
  C  C71  1  0.50049600  0.16651100  0.16399900  1
  C  C72  1  0.50193600  0.12888200  0.12710300  1
  C  C73  1  0.50293800  0.74548600  0.80658700  1
  C  C74  1  0.55688500  0.81911700  0.78518400  1
  C  C75  1  0.55472100  0.77025400  0.73646400  1
  C  C76  1  0.49529700  0.62730100  0.62285400  1
  C  C77  1  0.50180600  0.79323100  0.79078800  1
  C  C78  1  0.49591900  0.69507300  0.75506800  1
  C  C79  1  0.49772700  0.71239200  0.70842400  1
  C  C80  1  0.44484600  0.72071500  0.68249000  1
  C  C81  1  0.44415100  0.76540200  0.73277900  1
  C  C82  1  0.49597100  0.66560000  0.66121400  1
  C  C83  1  0.50494500  0.84046200  0.83861200  1
  C  C84  1  0.50702100  0.87912200  0.87782500  1
  C  C85  1  0.69180400  0.79418300  0.61004700  1
  C  C86  1  0.64452900  0.75730600  0.61177200  1
  C  C87  1  0.64815000  0.76684200  0.66557100  1
  C  C88  1  0.69826400  0.81409900  0.71782100  1
  C  C89  1  0.74506500  0.85169500  0.71624700  1
  C  C90  1  0.74190400  0.84180600  0.66248300  1
  C  C91  1  0.58520100  0.64010700  0.34541400  1
  C  C92  1  0.56606000  0.61596900  0.28533300  1
  C  C93  1  0.50970600  0.60110200  0.24584900  1
  C  C94  1  0.47187300  0.60973200  0.26600700  1
  C  C95  1  0.49024100  0.63281900  0.32567900  1
  C  C96  1  0.54646300  0.64749000  0.36525800  1
  C  C97  1  0.30811900  0.16133500  0.77261200  1
  C  C98  1  0.32396900  0.19569300  0.74762600  1
  C  C99  1  0.34486200  0.25604200  0.77692900  1
  C  C100  1  0.35099500  0.28306200  0.83222500  1
  C  C101  1  0.33687500  0.24971300  0.85839700  1
  C  C102  1  0.31586400  0.18925100  0.82918400  1
  C  C103  1  0.36595800  0.94847400  0.71224500  1
  C  C104  1  0.41762100  0.95298600  0.74982800  1
  C  C105  1  0.43540900  0.91294600  0.72878900  1
  C  C106  1  0.40205300  0.86864800  0.67002000  1
  C  C107  1  0.35077700  0.86425600  0.63230600  1
  C  C108  1  0.33280400  0.90414100  0.65323800  1
  C  C109  1  0.69929400  0.91651500  0.09123800  1
  C  C110  1  0.68929300  0.92807900  0.04461900  1
  C  C111  1  0.63434200  0.89374900  0.99351200  1
  C  C112  1  0.58901600  0.84744700  0.98843900  1
  C  C113  1  0.59892400  0.83504800  0.03425000  1
  C  C114  1  0.65392700  0.86909800  0.08533600  1
  C  C115  1  0.20319200  0.89742800  0.81823400  1
  C  C116  1  0.23598100  0.88224400  0.85463600  1
  C  C117  1  0.22330800  0.87448300  0.89687000  1
  C  C118  1  0.17741000  0.88111300  0.90242700  1
  C  C119  1  0.14391200  0.89520200  0.86549500  1
  C  C120  1  0.15655600  0.90311100  0.82329800  1
  C  C121  1  0.12213900  0.26235100  0.41623100  1
  C  C122  1  0.09556300  0.23473600  0.35502900  1
  C  C123  1  0.08001900  0.26364400  0.32539800  1
  C  C124  1  0.08944200  0.31991000  0.35655000  1
  C  C125  1  0.11427100  0.34716100  0.41738300  1
  C  C126  1  0.13030800  0.31854600  0.44719600  1
  C  C127  1  0.25020100  0.21858100  0.35016500  1
  C  C128  1  0.27836000  0.26003100  0.33676500  1
  C  C129  1  0.29906200  0.24513600  0.29786900  1
  C  C130  1  0.29092500  0.18858400  0.27155900  1
  C  C131  1  0.26213500  0.14689300  0.28417700  1
  C  C132  1  0.24170400  0.16176400  0.32331800  1
  C  C133  1  0.24078100  0.24182700  0.63568400  1
  C  C134  1  0.22620400  0.27689500  0.67094400  1
  C  C135  1  0.19397800  0.25516900  0.69535400  1
  C  C136  1  0.17708000  0.19843100  0.68626500  1
  C  C137  1  0.19295000  0.16378100  0.65311900  1
  C  C138  1  0.22492400  0.18521600  0.62836400  1
  C  C139  1  0.34106100  0.20264700  0.60547200  1
  C  C140  1  0.34543400  0.15349500  0.60437400  1
  C  C141  1  0.39262200  0.15973100  0.64984100  1
  C  C142  1  0.43641800  0.21536000  0.69720600  1
  C  C143  1  0.43308700  0.26472800  0.69879000  1
  C  C144  1  0.38602500  0.25878700  0.65337100  1
  C  C145  1  0.89485200  0.12169800  0.28952000  1
  C  C146  1  0.90808800  0.14889200  0.25790700  1
  C  C147  1  0.93369700  0.20988000  0.28322300  1
  C  C148  1  0.94712600  0.24395200  0.34049300  1
  C  C149  1  0.93493200  0.21703500  0.37249800  1
  C  C150  1  0.90903300  0.15602400  0.34717800  1
  C  C151  1  0.12175700  0.26872300  0.53958400  1
  C  C152  1  0.11841000  0.31688900  0.57270300  1
  C  C153  1  0.06484400  0.31050600  0.56843300  1
  C  C154  1  0.01400700  0.25556500  0.53232800  1
  C  C155  1  0.01683100  0.20703200  0.50035200  1
  C  C156  1  0.07014500  0.21335100  0.50396400  1
  C  C157  1  0.49473500  0.39294000  0.25623100  1
  C  C158  1  0.54486200  0.44694500  0.30108200  1
  C  C159  1  0.53909900  0.49459000  0.32999100  1
  C  C160  1  0.48337900  0.48905800  0.31320800  1
  C  C161  1  0.43341800  0.43604700  0.26711700  1
  C  C162  1  0.43896200  0.38810600  0.23849900  1
  C  C163  1  0.64924300  0.38550500  0.39651400  1
  C  C164  1  0.70844500  0.41435600  0.41144700  1
  C  C165  1  0.75336500  0.43847400  0.46854300  1
  C  C166  1  0.73960400  0.43459700  0.51139000  1
  C  C167  1  0.68082100  0.40678300  0.49717700  1
  C  C168  1  0.63576800  0.38255700  0.44013400  1
  C  C169  1  0.61878800  0.90291300  0.78333900  1
  C  C170  1  0.62516900  0.90597100  0.73648200  1
  C  C171  1  0.68062000  0.94052400  0.74568600  1
  C  C172  1  0.72984300  0.97267100  0.80178500  1
  C  C173  1  0.72352300  0.97074400  0.84885300  1
  C  C174  1  0.66810900  0.93628000  0.83980300  1
  C  C175  1  0.35009300  0.75421400  0.71804500  1
  C  C176  1  0.30256600  0.71852200  0.66062000  1
  C  C177  1  0.26058900  0.73480200  0.64087900  1
  C  C178  1  0.26564200  0.78642000  0.67861200  1
  C  C179  1  0.31271200  0.82174200  0.73610600  1
  C  C180  1  0.35470500  0.80561600  0.75578000  1
  N  N1  1  0.68819400  0.78376400  0.55480800  1
  N  N2  1  0.64225500  0.65260100  0.38484600  1
  N  N3  1  0.28647500  0.09925000  0.73978000  1
  N  N4  1  0.34905300  0.99085300  0.73357400  1
  N  N5  1  0.75621000  0.95232800  0.14324900  1
  N  N6  1  0.21608700  0.90476300  0.77469800  1
  N  N7  1  0.13597200  0.23014700  0.44463900  1
  N  N8  1  0.22929600  0.23408900  0.39022600  1
  N  N9  1  0.27668300  0.26824200  0.61424800  1
  N  N10  1  0.29079200  0.19243900  0.55670800  1
  N  N11  1  0.86899400  0.05929500  0.26370200  1
  N  N12  1  0.17920600  0.27686000  0.54989200  1
  N  N13  1  0.50128700  0.34405500  0.22766200  1
  N  N14  1  0.60390600  0.36274100  0.33797100  1
  N  N15  1  0.56166800  0.86769200  0.77359200  1
  N  N16  1  0.39292300  0.73744900  0.73833500  1
  O  O1  1  0.93875200  0.96784400  0.53059500  1
  O  O2  1  0.94257600  0.89537400  0.46182200  1
  O  O3  1  0.94287100  0.03162700  0.47193800  1
  O  O4  1  0.94300000  0.95891200  0.39945200  1
  O  O5  1  0.06215300  0.09037200  0.53129200  1
  O  O6  1  0.06577100  0.01774400  0.46203000  1
  O  O7  1  0.06477600  0.02983700  0.59345800  1
  O  O8  1  0.06522300  0.95745000  0.52102000  1
  O  O9  1  0.46677300  0.02794000  0.06273500  1
  O  O10  1  0.53740300  0.10096800  0.06101700  1
  O  O11  1  0.53329900  0.97180400  0.06757100  1
  O  O12  1  0.60387100  0.04128500  0.06226700  1
  O  O13  1  0.47020400  0.90707100  0.94216600  1
  O  O14  1  0.54063800  0.98009600  0.94021000  1
  O  O15  1  0.40682700  0.96663400  0.94378700  1
  O  O16  1  0.47758300  0.03649400  0.93868500  1
  O  O17  1  0.53365800  0.56425000  0.59404400  1
  O  O18  1  0.45972500  0.56339200  0.52173000  1
  O  O19  1  0.59157700  0.56304000  0.53257300  1
  O  O20  1  0.51755900  0.55883500  0.45677400  1
  O  O21  1  0.53166900  0.44042800  0.47097500  1
  O  O22  1  0.45783100  0.43965600  0.39866900  1
  O  O23  1  0.47078200  0.44200900  0.53598500  1
  O  O24  1  0.39688300  0.43767100  0.46021600  1
