# generated using pymatgen
data_CuH22C28NO4
_symmetry_space_group_name_H-M   'P 1'
_cell_length_a   10.88512800
_cell_length_b   17.74633200
_cell_length_c   16.21165500
_cell_angle_alpha   89.97492300
_cell_angle_beta   89.99792800
_cell_angle_gamma   89.99846600
_symmetry_Int_Tables_number   1
_chemical_formula_structural   CuH22C28NO4
_chemical_formula_sum   'Cu2 H44 C56 N2 O8'
_cell_volume   3131.62285068
_cell_formula_units_Z   2
loop_
 _symmetry_equiv_pos_site_id
 _symmetry_equiv_pos_as_xyz
  1  'x, y, z'
loop_
 _atom_site_type_symbol
 _atom_site_label
 _atom_site_symmetry_multiplicity
 _atom_site_fract_x
 _atom_site_fract_y
 _atom_site_fract_z
 _atom_site_occupancy
  Cu  Cu1  1  0.50513900  0.50368800  0.58108300  1
  Cu  Cu2  1  0.50841900  0.49597400  0.41662000  1
  H  H1  1  0.25762200  0.66785000  0.16827400  1
  H  H2  1  0.76624900  0.33594200  0.83372000  1
  H  H3  1  0.30185000  0.71517200  0.30771000  1
  H  H4  1  0.72056200  0.28556800  0.69582000  1
  H  H5  1  0.21210200  0.65291700  0.42850800  1
  H  H6  1  0.80436600  0.34736500  0.57257400  1
  H  H7  1  0.03516200  0.49393600  0.27026700  1
  H  H8  1  0.98006100  0.51087700  0.72568300  1
  H  H9  1  0.12348600  0.55762000  0.14985100  1
  H  H10  1  0.89725200  0.44801800  0.84843400  1
  H  H11  1  0.88532900  0.54484900  0.38111500  1
  H  H12  1  0.12831200  0.45593100  0.61618200  1
  H  H13  1  0.41649700  0.87138200  0.60891700  1
  H  H14  1  0.58314200  0.12809000  0.38471700  1
  H  H15  1  0.42002000  0.73479400  0.60383700  1
  H  H16  1  0.57851800  0.26443100  0.38943000  1
  H  H17  1  0.60078100  0.88522800  0.38104100  1
  H  H18  1  0.42299600  0.11390600  0.62041600  1
  H  H19  1  0.66613500  0.57512000  0.86349300  1
  H  H20  1  0.34670900  0.42836200  0.13303500  1
  H  H21  1  0.66044400  0.57801400  0.71201500  1
  H  H22  1  0.34909100  0.42559900  0.28437900  1
  H  H23  1  0.35003400  0.43657000  0.71186100  1
  H  H24  1  0.66842800  0.55938500  0.28676200  1
  H  H25  1  0.35070800  0.43334100  0.86296300  1
  H  H26  1  0.67133700  0.56179300  0.13574400  1
  H  H27  1  0.55949500  0.70147200  0.31539700  1
  H  H28  1  0.69783300  0.69082000  0.37665500  1
  H  H29  1  0.76918900  0.81639100  0.32711800  1
  H  H30  1  0.63269000  0.82200800  0.26193900  1
  H  H31  1  0.69362300  0.70308700  0.19331400  1
  H  H32  1  0.83111600  0.69942000  0.25573300  1
  H  H33  1  0.75887900  0.82727000  0.13707700  1
  H  H34  1  0.87143700  0.75462900  0.11751500  1
  H  H35  1  0.89762600  0.82271800  0.19858100  1
  H  H36  1  0.32588100  0.30740900  0.63124800  1
  H  H37  1  0.47186700  0.29804700  0.68440900  1
  H  H38  1  0.40867900  0.17639300  0.74137300  1
  H  H39  1  0.26396900  0.18145900  0.68506200  1
  H  H40  1  0.21193700  0.29886700  0.76060900  1
  H  H41  1  0.35618900  0.29314900  0.81562700  1
  H  H42  1  0.15001700  0.17478000  0.81856300  1
  H  H43  1  0.18555100  0.24188200  0.89890700  1
  H  H44  1  0.29480500  0.16890400  0.87328600  1
  C  C1  1  0.49791400  0.35462300  0.50684400  1
  C  C2  1  0.51503800  0.64497500  0.49096800  1
  C  C3  1  0.27034500  0.50523300  0.49660600  1
  C  C4  1  0.74333600  0.49472800  0.50105300  1
  C  C5  1  0.24368200  0.66632200  0.29970800  1
  C  C6  1  0.77676600  0.33547800  0.70217500  1
  C  C7  1  0.19372200  0.63085700  0.36759600  1
  C  C8  1  0.82325400  0.37061300  0.63294100  1
  C  C9  1  0.12032900  0.56781200  0.35768600  1
  C  C10  1  0.89471600  0.43467800  0.64087400  1
  C  C11  1  0.09381600  0.54246300  0.27902100  1
  C  C12  1  0.92252300  0.46161200  0.71866200  1
  C  C13  1  0.14362900  0.57814500  0.21119400  1
  C  C14  1  0.87601300  0.42639100  0.78774600  1
  C  C15  1  0.21882000  0.63991200  0.22152600  1
  C  C16  1  0.80273300  0.36351400  0.77953100  1
  C  C17  1  0.93867300  0.52348600  0.43226500  1
  C  C18  1  0.07515900  0.47741000  0.56507600  1
  C  C19  1  0.87895900  0.49481100  0.50086900  1
  C  C20  1  0.13487700  0.50593200  0.49660300  1
  C  C21  1  0.94873800  0.47096800  0.56794600  1
  C  C22  1  0.06529600  0.53037000  0.42968300  1
  C  C23  1  0.45910500  0.84329200  0.55713100  1
  C  C24  1  0.54581200  0.15614400  0.43836900  1
  C  C25  1  0.46218900  0.76585600  0.55397500  1
  C  C26  1  0.54238800  0.23351900  0.44148100  1
  C  C27  1  0.51542400  0.72840800  0.48792500  1
  C  C28  1  0.49667300  0.27105500  0.50996800  1
  C  C29  1  0.56791600  0.77062600  0.42357900  1
  C  C30  1  0.45144300  0.22873900  0.57686500  1
  C  C31  1  0.56346600  0.84911100  0.42819300  1
  C  C32  1  0.45539600  0.15025900  0.57183800  1
  C  C33  1  0.50977200  0.88483400  0.49435600  1
  C  C34  1  0.50241000  0.11461400  0.50345500  1
  C  C35  1  0.50720700  0.96576600  0.49758600  1
  C  C36  1  0.50517200  0.03369300  0.50023400  1
  C  C37  1  0.59499900  0.54499300  0.83059700  1
  C  C38  1  0.41942200  0.45640000  0.16642200  1
  C  C39  1  0.59145600  0.54659200  0.74550500  1
  C  C40  1  0.42087200  0.45513100  0.25156500  1
  C  C41  1  0.41865500  0.46807200  0.74538300  1
  C  C42  1  0.59863200  0.52928200  0.25283800  1
  C  C43  1  0.41916900  0.46582500  0.83027600  1
  C  C44  1  0.60036300  0.53099100  0.16793200  1
  C  C45  1  0.50808900  0.50420600  0.87327000  1
  C  C46  1  0.51030400  0.49430000  0.12429500  1
  C  C47  1  0.50982500  0.50081400  0.96167300  1
  C  C48  1  0.50992900  0.49757300  0.03589800  1
  C  C49  1  0.63012100  0.73169300  0.35190100  1
  C  C50  1  0.69869900  0.78374400  0.29295900  1
  C  C51  1  0.76246100  0.73733100  0.22692100  1
  C  C52  1  0.82677900  0.78899200  0.16615900  1
  C  C53  1  0.39759900  0.26722500  0.65200000  1
  C  C54  1  0.33824100  0.21449200  0.71482000  1
  C  C55  1  0.28301800  0.26001200  0.78494300  1
  C  C56  1  0.22462200  0.20783100  0.84789200  1
  N  N1  1  0.50277200  0.50921900  0.70428900  1
  N  N2  1  0.51117700  0.49035700  0.29345400  1
  O  O1  1  0.49534500  0.39390900  0.57525100  1
  O  O2  1  0.51836200  0.60574000  0.42249300  1
  O  O3  1  0.50654500  0.38706100  0.43425600  1
  O  O4  1  0.50653300  0.61258800  0.56355600  1
  O  O5  1  0.32703700  0.50918200  0.56778800  1
  O  O6  1  0.68649900  0.49033100  0.43003800  1
  O  O7  1  0.32963100  0.49749400  0.42674600  1
  O  O8  1  0.68393900  0.50238300  0.57088000  1
