# generated using pymatgen
data_Zn2H15C27N3(O4F)2
_symmetry_space_group_name_H-M   'P 1'
_cell_length_a   8.50941500
_cell_length_b   10.67468600
_cell_length_c   14.23245800
_cell_angle_alpha   97.80141400
_cell_angle_beta   90.10265800
_cell_angle_gamma   90.00840500
_symmetry_Int_Tables_number   1
_chemical_formula_structural   Zn2H15C27N3(O4F)2
_chemical_formula_sum   'Zn2 H15 C27 N3 O8 F2'
_cell_volume   1280.84229375
_cell_formula_units_Z   1
loop_
 _symmetry_equiv_pos_site_id
 _symmetry_equiv_pos_as_xyz
  1  'x, y, z'
loop_
 _atom_site_type_symbol
 _atom_site_label
 _atom_site_symmetry_multiplicity
 _atom_site_fract_x
 _atom_site_fract_y
 _atom_site_fract_z
 _atom_site_occupancy
  Zn  Zn1  1  0.49941000  0.49129100  0.10379200  1
  Zn  Zn2  1  0.49863800  0.51016200  0.89624900  1
  H  H1  1  0.99506200  0.40455000  0.93405500  1
  H  H2  1  0.25370000  0.90362900  0.99258100  1
  H  H3  1  0.25354100  0.09781400  0.00766600  1
  H  H4  1  0.60927300  0.10371600  0.98341100  1
  H  H5  1  0.69049000  0.64320100  0.59563200  1
  H  H6  1  0.72563100  0.58147400  0.43741500  1
  H  H7  1  0.47987200  0.29383500  0.42219100  1
  H  H8  1  0.67823900  0.34739500  0.40471200  1
  H  H9  1  0.71713700  0.40848100  0.56267800  1
  H  H10  1  0.55017800  0.30877600  0.57827200  1
  H  H11  1  0.29236300  0.60758800  0.43673400  1
  H  H12  1  0.25400100  0.43989400  0.40881400  1
  H  H13  1  0.25910300  0.57652900  0.59043900  1
  H  H14  1  0.56658900  0.68943800  0.42219200  1
  H  H15  1  0.49793500  0.70843000  0.57820000  1
  C  C1  1  0.99782000  0.69342000  0.05267800  1
  C  C2  1  0.13826800  0.74946300  0.03602100  1
  C  C3  1  0.14101700  0.86940100  0.01170200  1
  C  C4  1  0.85892100  0.75283800  0.03690900  1
  C  C5  1  0.86055600  0.87670700  0.01757400  1
  C  C6  1  0.00258000  0.93781500  0.00866100  1
  C  C7  1  0.00243300  0.06313700  0.99118600  1
  C  C8  1  0.14073600  0.13187300  0.98842200  1
  C  C9  1  0.13771200  0.25179700  0.96412400  1
  C  C10  1  0.72133300  0.05858700  0.99108000  1
  C  C11  1  0.86000900  0.12342400  0.98187200  1
  C  C12  1  0.85794600  0.24778700  0.96286400  1
  C  C13  1  0.99690500  0.30745600  0.94751300  1
  C  C14  1  0.27892300  0.67156600  0.02497000  1
  C  C15  1  0.27848900  0.32993400  0.97508200  1
  C  C16  1  0.71722600  0.32720400  0.97460100  1
  C  C17  1  0.71740300  0.67434500  0.02545100  1
  C  C18  1  0.60019200  0.60326000  0.45304000  1
  C  C19  1  0.56488400  0.37202800  0.44090800  1
  C  C20  1  0.59030000  0.39305800  0.54720300  1
  C  C21  1  0.49966000  0.49236800  0.41074200  1
  C  C22  1  0.57557800  0.62542700  0.55936900  1
  C  C23  1  0.49887000  0.50917600  0.58930300  1
  C  C24  1  0.33160800  0.49970400  0.55216200  1
  C  C25  1  0.33319700  0.51187100  0.44740300  1
  C  C26  1  0.49849200  0.51756900  0.69275000  1
  C  C27  1  0.50018900  0.48390900  0.30729100  1
  N  N1  1  0.72405200  0.93743500  0.00792500  1
  N  N2  1  0.49827800  0.52147000  0.77438200  1
  N  N3  1  0.50038800  0.47997400  0.22565700  1
  O  O1  1  0.32966800  0.63746400  0.93832000  1
  O  O2  1  0.33423800  0.62562700  0.09933700  1
  O  O3  1  0.33014300  0.36398500  0.06166900  1
  O  O4  1  0.33329800  0.37590800  0.90068300  1
  O  O5  1  0.66802400  0.36360200  0.06136700  1
  O  O6  1  0.66304600  0.37514400  0.90080800  1
  O  O7  1  0.66750400  0.63788100  0.93872400  1
  O  O8  1  0.66394300  0.62624900  0.09926700  1
  F  F1  1  0.99585200  0.57211100  0.07065800  1
  F  F2  1  0.26830600  0.38413500  0.56533600  1
