# generated using pymatgen
data_Fe2H19C46Br(NO4)4
_symmetry_space_group_name_H-M   'P 1'
_cell_length_a   17.50467200
_cell_length_b   16.72238500
_cell_length_c   10.86003000
_cell_angle_alpha   108.28695200
_cell_angle_beta   109.69339800
_cell_angle_gamma   102.97151600
_symmetry_Int_Tables_number   1
_chemical_formula_structural   Fe2H19C46Br(NO4)4
_chemical_formula_sum   'Fe2 H19 C46 Br1 N4 O16'
_cell_volume   2640.87930791
_cell_formula_units_Z   1
loop_
 _symmetry_equiv_pos_site_id
 _symmetry_equiv_pos_as_xyz
  1  'x, y, z'
loop_
 _atom_site_type_symbol
 _atom_site_label
 _atom_site_symmetry_multiplicity
 _atom_site_fract_x
 _atom_site_fract_y
 _atom_site_fract_z
 _atom_site_occupancy
  Fe  Fe1  1  0.51811800  0.01326200  0.25274000  1
  Fe  Fe2  1  0.49654700  0.00080500  0.77899800  1
  H  H1  1  0.22811700  0.01183700  0.11104900  1
  H  H2  1  0.04363000  0.91869900  0.67325900  1
  H  H3  1  0.15760300  0.90814400  0.59648500  1
  H  H4  1  0.96082200  0.05202500  0.32769400  1
  H  H5  1  0.77168800  0.97093500  0.89866100  1
  H  H6  1  0.95677800  0.86070400  0.76956800  1
  H  H7  1  0.84901100  0.87743800  0.85957200  1
  H  H8  1  0.04237000  0.11600100  0.23036000  1
  H  H9  1  0.14942500  0.10034900  0.14009000  1
  H  H10  1  0.51694900  0.28238200  0.43359900  1
  H  H11  1  0.46198600  0.42511500  0.77489700  1
  H  H12  1  0.45212000  0.30081100  0.84555900  1
  H  H13  1  0.51423300  0.57137500  0.22729200  1
  H  H14  1  0.52702900  0.69455900  0.15569700  1
  H  H15  1  0.48436900  0.72808100  0.59079800  1
  H  H16  1  0.80336400  0.18350900  0.46637200  1
  H  H17  1  0.85120700  0.24327900  0.72776500  1
  H  H18  1  0.97775000  0.05493800  0.74990500  1
  H  H19  1  0.92861800  0.99319800  0.48796600  1
  C  C1  1  0.27667300  0.98270300  0.95522800  1
  C  C2  1  0.21194400  0.99005000  0.99767400  1
  C  C3  1  0.12794300  0.96754400  0.89833700  1
  C  C4  1  0.10868600  0.93567400  0.75342700  1
  C  C5  1  0.17377600  0.92998600  0.70992700  1
  C  C6  1  0.25875900  0.95453000  0.81010600  1
  C  C7  1  0.97593200  0.91781300  0.86977600  1
  C  C8  1  0.91477300  0.92725200  0.92120600  1
  C  C9  1  0.93820300  0.99741900  0.05232700  1
  C  C10  1  0.02317900  0.05878300  0.13025800  1
  C  C11  1  0.08409200  0.04970600  0.07860200  1
  C  C12  1  0.06125500  0.97866700  0.94875700  1
  C  C13  1  0.89508500  0.03725500  0.25228100  1
  C  C14  1  0.83361800  0.04778700  0.30303300  1
  C  C15  1  0.74866300  0.02888300  0.20719700  1
  C  C16  1  0.72822200  0.00299600  0.06152000  1
  C  C17  1  0.78954000  0.99102300  0.01232800  1
  C  C18  1  0.87310000  0.00792600  0.10666800  1
  C  C19  1  0.67933900  0.02602000  0.25616900  1
  C  C20  1  0.52235400  0.85644600  0.28352000  1
  C  C21  1  0.36369800  0.01119500  0.06995000  1
  C  C22  1  0.49780100  0.13246100  0.46700700  1
  C  C23  1  0.50793900  0.87751700  0.55810000  1
  C  C24  1  0.64131700  0.98327300  0.95392100  1
  C  C25  1  0.47267600  0.14628100  0.72729000  1
  C  C26  1  0.32859400  0.95794700  0.76221700  1
  C  C27  1  0.49652800  0.21545400  0.56324500  1
  C  C28  1  0.50464800  0.28769800  0.52629800  1
  C  C29  1  0.49139300  0.36305200  0.60016600  1
  C  C30  1  0.47255500  0.36695200  0.71508300  1
  C  C31  1  0.46612600  0.29581200  0.75441800  1
  C  C32  1  0.47778700  0.21951100  0.67917600  1
  C  C33  1  0.49447800  0.56756000  0.46145900  1
  C  C34  1  0.49356600  0.43614800  0.55244500  1
  C  C35  1  0.51002800  0.63263700  0.29218400  1
  C  C36  1  0.51789600  0.70328800  0.25195500  1
  C  C37  1  0.51504600  0.78388700  0.33353600  1
  C  C38  1  0.50224600  0.79200900  0.45631700  1
  C  C39  1  0.49191000  0.71978600  0.49335500  1
  C  C40  1  0.49754200  0.64066200  0.41369400  1
  C  C41  1  0.86119100  0.08297300  0.45913800  1
  C  C42  1  0.84007800  0.15357200  0.52736600  1
  C  C43  1  0.86771000  0.18796600  0.67472400  1
  C  C44  1  0.91690500  0.15237100  0.75459900  1
  C  C45  1  0.93894600  0.08268900  0.68721000  1
  C  C46  1  0.91157100  0.04834500  0.53991000  1
  Br  Br1  1  0.95517800  0.20009800  0.95830500  1
  N  N1  1  0.48080900  0.50981600  0.62393900  1
  N  N2  1  0.48150200  0.57485900  0.57919500  1
  N  N3  1  0.50710200  0.49384800  0.38994500  1
  N  N4  1  0.50654000  0.42891800  0.43478600  1
  O  O1  1  0.60846000  0.03684200  0.18398000  1
  O  O2  1  0.53792000  0.84627900  0.17059200  1
  O  O3  1  0.68439400  0.00430500  0.36400700  1
  O  O4  1  0.50845400  0.92907100  0.34532700  1
  O  O5  1  0.40216300  0.95276900  0.07786300  1
  O  O6  1  0.39918000  0.09319200  0.17416900  1
  O  O7  1  0.54897200  0.13728000  0.40241300  1
  O  O8  1  0.43690500  0.05434500  0.42475000  1
  O  O9  1  0.45428100  0.87743100  0.61858700  1
  O  O10  1  0.57661800  0.95120100  0.61010500  1
  O  O11  1  0.61480200  0.04984400  0.94636500  1
  O  O12  1  0.59493600  0.90060200  0.85277600  1
  O  O13  1  0.31106600  0.94329100  0.62790700  1
  O  O14  1  0.51163600  0.08962400  0.69583200  1
  O  O15  1  0.40968600  0.98295200  0.85625200  1
  O  O16  1  0.43459600  0.14155700  0.81157700  1
