# generated using pymatgen
data_ZnH11C19NClO4
_symmetry_space_group_name_H-M   'P 1'
_cell_length_a   9.99983200
_cell_length_b   11.25904200
_cell_length_c   15.04530900
_cell_angle_alpha   89.99560400
_cell_angle_beta   80.86641700
_cell_angle_gamma   92.44289800
_symmetry_Int_Tables_number   1
_chemical_formula_structural   ZnH11C19NClO4
_chemical_formula_sum   'Zn2 H22 C38 N2 Cl2 O8'
_cell_volume   1670.89163125
_cell_formula_units_Z   2
loop_
 _symmetry_equiv_pos_site_id
 _symmetry_equiv_pos_as_xyz
  1  'x, y, z'
loop_
 _atom_site_type_symbol
 _atom_site_label
 _atom_site_symmetry_multiplicity
 _atom_site_fract_x
 _atom_site_fract_y
 _atom_site_fract_z
 _atom_site_occupancy
  Zn  Zn1  1  0.34685500  0.51985600  0.51764000  1
  Zn  Zn2  1  0.64983500  0.48021300  0.48335100  1
  H  H1  1  0.30034800  0.41853400  0.24073300  1
  H  H2  1  0.69634500  0.58153900  0.76025600  1
  H  H3  1  0.69059500  0.59039700  0.20176500  1
  H  H4  1  0.30610000  0.40967600  0.79922600  1
  H  H5  1  0.79436300  0.64820200  0.88449800  1
  H  H6  1  0.20233900  0.35186200  0.11649300  1
  H  H7  1  0.62081800  0.09491500  0.48935400  1
  H  H8  1  0.37587300  0.90515100  0.51164400  1
  H  H9  1  0.31185400  0.10885900  0.51571700  1
  H  H10  1  0.68483200  0.89120900  0.48525700  1
  H  H11  1  0.11493100  0.42797700  0.44355700  1
  H  H12  1  0.88176000  0.57208900  0.55743500  1
  H  H13  1  0.10105900  0.60650300  0.58656300  1
  H  H14  1  0.89563100  0.39356500  0.41442600  1
  H  H15  1  0.67971800  0.80323600  0.13187700  1
  H  H16  1  0.85875800  0.93257800  0.17868500  1
  H  H17  1  0.15845000  0.72984600  0.02138900  1
  H  H18  1  0.98020900  0.59941000  0.97474700  1
  H  H19  1  0.01648300  0.40059100  0.02625200  1
  H  H20  1  0.83826900  0.27012300  0.97961100  1
  H  H21  1  0.13802000  0.06746400  0.82229300  1
  H  H22  1  0.31702200  0.19684200  0.86910600  1
  C  C1  1  0.55049800  0.72985500  0.49760400  1
  C  C2  1  0.44619300  0.27021100  0.50338800  1
  C  C3  1  0.50098800  0.49558600  0.67389500  1
  C  C4  1  0.49570300  0.50448500  0.32709700  1
  C  C5  1  0.38564900  0.45834400  0.19588100  1
  C  C6  1  0.61104100  0.54173200  0.80510800  1
  C  C7  1  0.49514200  0.50672800  0.23015500  1
  C  C8  1  0.50154900  0.49334400  0.77083700  1
  C  C9  1  0.60522200  0.55536300  0.17285400  1
  C  C10  1  0.39147000  0.44470900  0.82813800  1
  C  C11  1  0.60471700  0.55896900  0.08068600  1
  C  C12  1  0.39197800  0.44110300  0.92030500  1
  C  C13  1  0.49773100  0.50308000  0.04642200  1
  C  C14  1  0.49896300  0.49699600  0.95456700  1
  C  C15  1  0.38878300  0.45335500  0.10415000  1
  C  C16  1  0.60791100  0.54671900  0.89683900  1
  C  C17  1  0.71094900  0.61426700  0.02198300  1
  C  C18  1  0.28575100  0.38580000  0.97900900  1
  C  C19  1  0.71274400  0.60496200  0.93044800  1
  C  C20  1  0.28395200  0.39510800  0.07054300  1
  C  C21  1  0.57992700  0.85866800  0.49481800  1
  C  C22  1  0.41676100  0.14139900  0.50616800  1
  C  C23  1  0.48133400  0.93590600  0.50259400  1
  C  C24  1  0.51535600  0.06416200  0.49839600  1
  C  C25  1  0.92529100  0.50955600  0.50736300  1
  C  C26  1  0.07139800  0.49050900  0.49362700  1
  C  C27  1  0.81795800  0.68921500  0.05324100  1
  C  C28  1  0.78475600  0.78480900  0.10899300  1
  C  C29  1  0.88534000  0.85836100  0.13479400  1
  C  C30  1  0.01958600  0.83807100  0.10397000  1
  C  C31  1  0.05319300  0.74489600  0.04653700  1
  C  C32  1  0.95269300  0.67133500  0.02059300  1
  C  C33  1  0.17876000  0.31083300  0.94775000  1
  C  C34  1  0.04402000  0.32867900  0.98040300  1
  C  C35  1  0.94353500  0.25509900  0.95445900  1
  C  C36  1  0.97716800  0.16193400  0.89702100  1
  C  C37  1  0.11141900  0.14167800  0.86618800  1
  C  C38  1  0.21198400  0.21524600  0.89199700  1
  N  N1  1  0.84848200  0.45230200  0.46023200  1
  N  N2  1  0.14820700  0.54776500  0.54075700  1
  Cl  Cl1  1  0.14717400  0.93211600  0.13620400  1
  Cl  Cl2  1  0.84960200  0.06786700  0.86478300  1
  O  O1  1  0.42366500  0.68968600  0.51129700  1
  O  O2  1  0.57302600  0.31038000  0.48968900  1
  O  O3  1  0.65361500  0.66022300  0.48536700  1
  O  O4  1  0.34307600  0.33984300  0.51561800  1
  O  O5  1  0.38541500  0.51044600  0.64554300  1
  O  O6  1  0.61127500  0.48962300  0.35544900  1
  O  O7  1  0.61592300  0.48310400  0.61969800  1
  O  O8  1  0.38076900  0.51696600  0.38129300  1
