# generated using pymatgen
data_CuH6(C3O)4
_symmetry_space_group_name_H-M   'P 1'
_cell_length_a   21.28413000
_cell_length_b   19.98052900
_cell_length_c   53.29474300
_cell_angle_alpha   89.98240700
_cell_angle_beta   89.97496000
_cell_angle_gamma   122.18599500
_symmetry_Int_Tables_number   1
_chemical_formula_structural   CuH6(C3O)4
_chemical_formula_sum   'Cu18 H108 C216 O72'
_cell_volume   19181.54006192
_cell_formula_units_Z   18
loop_
 _symmetry_equiv_pos_site_id
 _symmetry_equiv_pos_as_xyz
  1  'x, y, z'
loop_
 _atom_site_type_symbol
 _atom_site_label
 _atom_site_symmetry_multiplicity
 _atom_site_fract_x
 _atom_site_fract_y
 _atom_site_fract_z
 _atom_site_occupancy
  Cu  Cu1  1  0.55190500  0.08861500  0.50007800  1
  Cu  Cu2  1  0.45304900  0.75567000  0.65853400  1
  Cu  Cu3  1  0.01012200  0.03482800  0.16002700  1
  Cu  Cu4  1  0.95823800  0.88436800  0.15298900  1
  Cu  Cu5  1  0.53810800  0.58736700  0.83179100  1
  Cu  Cu6  1  0.45964300  0.43523500  0.82795400  1
  Cu  Cu7  1  0.20043900  0.28120500  0.00052100  1
  Cu  Cu8  1  0.27222700  0.21818400  0.98261000  1
  Cu  Cu9  1  0.69348400  0.76649300  0.98578600  1
  Cu  Cu10  1  0.78052500  0.71825100  0.00053100  1
  Cu  Cu11  1  0.45977500  0.93575900  0.50496700  1
  Cu  Cu12  1  0.77108800  0.02334900  0.32834600  1
  Cu  Cu13  1  0.68686300  0.86938300  0.33368200  1
  Cu  Cu14  1  0.27711400  0.04813400  0.32711000  1
  Cu  Cu15  1  0.20406800  0.89338700  0.32977300  1
  Cu  Cu16  1  0.59330100  0.31629600  0.65922900  1
  Cu  Cu17  1  0.45763800  0.26248100  0.67499300  1
  Cu  Cu18  1  0.58766500  0.81177800  0.67557200  1
  H  H1  1  0.62447400  0.08289800  0.42927800  1
  H  H2  1  0.29757200  0.20711300  0.42302300  1
  H  H3  1  0.01778700  0.82555500  0.91630300  1
  H  H4  1  0.91363600  0.81537200  0.93832800  1
  H  H5  1  0.86914200  0.99856500  0.97768000  1
  H  H6  1  0.38098800  0.49631800  0.02310600  1
  H  H7  1  0.42592100  0.28936700  0.03457700  1
  H  H8  1  0.53392700  0.28489900  0.04467500  1
  H  H9  1  0.65522600  0.40757200  0.04985000  1
  H  H10  1  0.66825300  0.53374600  0.04471100  1
  H  H11  1  0.49941900  0.61564900  0.02551800  1
  H  H12  1  0.26380900  0.09712800  0.39577600  1
  H  H13  1  0.30255300  0.88258700  0.39742400  1
  H  H14  1  0.42999000  0.16043800  0.54495500  1
  H  H15  1  0.40128300  0.91481200  0.57210100  1
  H  H16  1  0.40291700  0.86265300  0.61214500  1
  H  H17  1  0.42007800  0.93779300  0.65060400  1
  H  H18  1  0.43681000  0.06674400  0.64857900  1
  H  H19  1  0.44887100  0.23335000  0.58342000  1
  H  H20  1  0.60560900  0.83676300  0.58551200  1
  H  H21  1  0.59781800  0.87535300  0.48146900  1
  H  H22  1  0.60428500  0.00933600  0.64564900  1
  H  H23  1  0.61297900  0.13504700  0.64391900  1
  H  H24  1  0.62744700  0.20054600  0.60357200  1
  H  H25  1  0.63357500  0.14180700  0.56524800  1
  H  H26  1  0.61746900  0.89898800  0.54526500  1
  H  H27  1  0.60051200  0.06583900  0.33385100  1
  H  H28  1  0.53576300  0.83938200  0.28426600  1
  H  H29  1  0.42759600  0.74659200  0.26050600  1
  H  H30  1  0.31931100  0.75926500  0.25863800  1
  H  H31  1  0.31917800  0.86445500  0.28060800  1
  H  H32  1  0.63009900  0.77735700  0.47706700  1
  H  H33  1  0.49241500  0.07603700  0.33305400  1
  H  H34  1  0.87028100  0.83548800  0.33152900  1
  H  H35  1  0.91583500  0.05681200  0.37981500  1
  H  H36  1  0.02386200  0.16574700  0.39954600  1
  H  H37  1  0.14466600  0.17843000  0.39637500  1
  H  H38  1  0.15726000  0.08280600  0.37345400  1
  H  H39  1  0.98847900  0.84763200  0.32803900  1
  H  H40  1  0.82384100  0.99719500  0.20433300  1
  H  H41  1  0.90130800  0.81307900  0.21742000  1
  H  H42  1  0.89772000  0.73664800  0.25206700  1
  H  H43  1  0.69037600  0.77092000  0.43874500  1
  H  H44  1  0.84310900  0.74042200  0.29205800  1
  H  H45  1  0.79305300  0.82141700  0.29699300  1
  H  H46  1  0.76982900  0.00036600  0.24401600  1
  H  H47  1  0.02974000  0.84973200  0.22139200  1
  H  H48  1  0.21025500  0.08882800  0.18115100  1
  H  H49  1  0.33655300  0.19111600  0.19050800  1
  H  H50  1  0.39677800  0.18454800  0.22882700  1
  H  H51  1  0.33039700  0.07656500  0.25783300  1
  H  H52  1  0.08453600  0.84813100  0.26076800  1
  H  H53  1  0.64353200  0.54386300  0.64153600  1
  H  H54  1  0.71808400  0.86224000  0.40485900  1
  H  H55  1  0.40155000  0.34435800  0.61602000  1
  H  H56  1  0.29468200  0.34416100  0.60056700  1
  H  H57  1  0.29825600  0.46844500  0.59675700  1
  H  H58  1  0.40740700  0.59186300  0.60874000  1
  H  H59  1  0.64539800  0.66428900  0.64091800  1
  H  H60  1  0.64057300  0.15887600  0.69337500  1
  H  H61  1  0.40128000  0.09133800  0.72295600  1
  H  H62  1  0.28778200  0.96891100  0.73218100  1
  H  H63  1  0.27931300  0.84247300  0.72684700  1
  H  H64  1  0.38545900  0.83973800  0.71278300  1
  H  H65  1  0.67954100  0.07373400  0.39100700  1
  H  H66  1  0.63493000  0.03644800  0.69264900  1
  H  H67  1  0.60504000  0.34162000  0.74928100  1
  H  H68  1  0.61319000  0.51682200  0.68811700  1
  H  H69  1  0.63368900  0.64823800  0.68900500  1
  H  H70  1  0.65397700  0.71761300  0.72890600  1
  H  H71  1  0.65349900  0.65641600  0.76780100  1
  H  H72  1  0.61763400  0.40505500  0.78910300  1
  H  H73  1  0.47563100  0.56463500  0.71127400  1
  H  H74  1  0.39392900  0.73860600  0.72978500  1
  H  H75  1  0.33665600  0.75864100  0.76574000  1
  H  H76  1  0.36497800  0.89730000  0.43645600  1
  H  H77  1  0.30920400  0.67760200  0.80362000  1
  H  H78  1  0.33967600  0.57673100  0.80545800  1
  H  H79  1  0.45397000  0.48873300  0.74951700  1
  H  H80  1  0.07379200  0.01738900  0.03594400  1
  H  H81  1  0.31207500  0.23638400  0.05723200  1
  H  H82  1  0.38551900  0.27968200  0.09513500  1
  H  H83  1  0.33751600  0.20242800  0.13400100  1
  H  H84  1  0.21560400  0.08196500  0.13483100  1
  H  H85  1  0.02336700  0.94447700  0.07503900  1
  H  H86  1  0.94530800  0.02550900  0.08180800  1
  H  H87  1  0.40138100  0.13252900  0.47336000  1
  H  H88  1  0.75200100  0.87087800  0.13947400  1
  H  H89  1  0.62692900  0.75559800  0.13589100  1
  H  H90  1  0.57591500  0.69715800  0.09464800  1
  H  H91  1  0.64924600  0.75354900  0.05705600  1
  H  H92  1  0.89462600  0.96852600  0.04085500  1
  H  H93  1  0.22089400  0.30664800  0.90849000  1
  H  H94  1  0.37455300  0.47797000  0.97305800  1
  H  H95  1  0.47908300  0.61280700  0.97464000  1
  H  H96  1  0.52782500  0.69099700  0.93610000  1
  H  H97  1  0.47295800  0.63473900  0.89612100  1
  H  H98  1  0.36678200  0.22525100  0.46181800  1
  H  H99  1  0.27207500  0.37846700  0.87000800  1
  H  H100  1  0.56084000  0.53642600  0.94708700  1
  H  H101  1  0.82178000  0.68153600  0.93231200  1
  H  H102  1  0.89844500  0.69347800  0.89714200  1
  H  H103  1  0.84211400  0.61908800  0.85836600  1
  H  H104  1  0.70822000  0.53223700  0.85496600  1
  H  H105  1  0.50587400  0.46467200  0.90838800  1
  H  H106  1  0.98520600  0.12230800  0.97698200  1
  H  H107  1  0.14651100  0.07166900  0.92950700  1
  H  H108  1  0.13399000  0.95429600  0.91165200  1
  C  C1  1  0.58742500  0.00696400  0.53749800  1
  C  C2  1  0.35918400  0.97193200  0.31587300  1
  C  C3  1  0.81330600  0.82029500  0.27867700  1
  C  C4  1  0.81207900  0.86415200  0.25857000  1
  C  C5  1  0.84331400  0.86216300  0.23578400  1
  C  C6  1  0.84727700  0.91036500  0.21598000  1
  C  C7  1  0.81966900  0.95847600  0.21929000  1
  C  C8  1  0.78929800  0.96060500  0.24173700  1
  C  C9  1  0.78515700  0.91414800  0.26144900  1
  C  C10  1  0.23310700  0.08561000  0.19881500  1
  C  C11  1  0.30551200  0.14376400  0.20382300  1
  C  C12  1  0.33914300  0.14015600  0.22528800  1
  C  C13  1  0.27546300  0.98217000  0.37562800  1
  C  C14  1  0.30014200  0.07917200  0.24204300  1
  C  C15  1  0.22602400  0.02139100  0.23777700  1
  C  C16  1  0.19280000  0.02392100  0.21561000  1
  C  C17  1  0.12061700  0.96313900  0.21015300  1
  C  C18  1  0.08522700  0.89804000  0.22568300  1
  C  C19  1  0.11666100  0.89681000  0.24799700  1
  C  C20  1  0.18528000  0.95986900  0.25487900  1
  C  C21  1  0.40348500  0.39945100  0.61608200  1
  C  C22  1  0.34290400  0.39892800  0.60688500  1
  C  C23  1  0.34486000  0.46846600  0.60481500  1
  C  C24  1  0.12018300  0.96558200  0.34137300  1
  C  C25  1  0.40672300  0.53849200  0.61241100  1
  C  C26  1  0.46746100  0.53980800  0.62261800  1
  C  C27  1  0.46618600  0.46963800  0.62385400  1
  C  C28  1  0.52824400  0.47072200  0.63251000  1
  C  C29  1  0.59403300  0.54185600  0.63559100  1
  C  C30  1  0.59468500  0.61070300  0.63542700  1
  C  C31  1  0.52980500  0.60928000  0.63163700  1
  C  C32  1  0.39894900  0.03747100  0.71860800  1
  C  C33  1  0.33443300  0.96782100  0.72469600  1
  C  C34  1  0.32975600  0.89713400  0.72179700  1
  C  C35  1  0.57987300  0.38261700  0.70563700  1
  C  C36  1  0.39031700  0.89610300  0.71346000  1
  C  C37  1  0.45597000  0.96585500  0.70733200  1
  C  C38  1  0.45980100  0.03744700  0.70910400  1
  C  C39  1  0.52463400  0.10696900  0.70137200  1
  C  C40  1  0.58837700  0.10578300  0.69808000  1
  C  C41  1  0.58540600  0.03561400  0.69777900  1
  C  C42  1  0.51831800  0.96515700  0.69990100  1
  C  C43  1  0.62059100  0.54498500  0.70606000  1
  C  C44  1  0.63247300  0.61968800  0.70636000  1
  C  C45  1  0.64352900  0.65842200  0.72873100  1
  C  C46  1  0.52416600  0.40024600  0.64236800  1
  C  C47  1  0.64141700  0.62215500  0.75093600  1
  C  C48  1  0.62891100  0.54646600  0.75104900  1
  C  C49  1  0.62019700  0.50852500  0.72823800  1
  C  C50  1  0.60828200  0.43311100  0.72783700  1
  C  C51  1  0.61368300  0.40005200  0.74961400  1
  C  C52  1  0.62119300  0.43660800  0.77214600  1
  C  C53  1  0.62192800  0.50612200  0.77334200  1
  C  C54  1  0.38270800  0.70177000  0.74599400  1
  C  C55  1  0.35025200  0.71368800  0.76641800  1
  C  C56  1  0.33506700  0.66848000  0.78763800  1
  C  C57  1  0.47082000  0.19691000  0.62846700  1
  C  C58  1  0.35313500  0.61186800  0.78860100  1
  C  C59  1  0.38586400  0.59930200  0.76813300  1
  C  C60  1  0.39967100  0.64373000  0.74649500  1
  C  C61  1  0.43438800  0.63278200  0.72624900  1
  C  C62  1  0.44871800  0.57324100  0.72702700  1
  C  C63  1  0.43463200  0.52889500  0.74842700  1
  C  C64  1  0.40712100  0.54460600  0.76951200  1
  C  C65  1  0.28886700  0.20089100  0.07388500  1
  C  C66  1  0.33103100  0.22609900  0.09540200  1
  C  C67  1  0.30410200  0.18299100  0.11716100  1
  C  C68  1  0.52625600  0.17714700  0.69159900  1
  C  C69  1  0.23449400  0.11514800  0.11754600  1
  C  C70  1  0.19128400  0.08937000  0.09601900  1
  C  C71  1  0.21925000  0.13171100  0.07391800  1
  C  C72  1  0.17601400  0.10631300  0.05238400  1
  C  C73  1  0.10782700  0.03645100  0.05264400  1
  C  C74  1  0.07996500  0.99453800  0.07461100  1
  C  C75  1  0.11978700  0.02275900  0.09659200  1
  C  C76  1  0.73134000  0.84612300  0.12108100  1
  C  C77  1  0.66023200  0.78111200  0.11919500  1
  C  C78  1  0.63164200  0.74845800  0.09610000  1
  C  C79  1  0.46414900  0.68807100  0.70508600  1
  C  C80  1  0.67390000  0.78090100  0.07480600  1
  C  C81  1  0.74518100  0.84731300  0.07645200  1
  C  C82  1  0.77415300  0.87973100  0.09973800  1
  C  C83  1  0.84703500  0.94282000  0.10173000  1
  C  C84  1  0.88747500  0.97880800  0.08033400  1
  C  C85  1  0.85931200  0.94578500  0.05723600  1
  C  C86  1  0.78972600  0.87826500  0.05532500  1
  C  C87  1  0.39511400  0.50978700  0.95561600  1
  C  C88  1  0.45459100  0.58651000  0.95673400  1
  C  C89  1  0.48210500  0.63012000  0.93513600  1
  C  C90  1  0.51489200  0.89386900  0.69090900  1
  C  C91  1  0.45154000  0.59669700  0.91226200  1
  C  C92  1  0.39252100  0.51863900  0.91062700  1
  C  C93  1  0.36260300  0.47577500  0.93275200  1
  C  C94  1  0.30244400  0.39812000  0.93175100  1
  C  C95  1  0.26837700  0.36660700  0.90924400  1
  C  C96  1  0.29785600  0.40807900  0.88742600  1
  C  C97  1  0.36353500  0.48130800  0.88751800  1
  C  C98  1  0.79461300  0.64769600  0.91573300  1
  C  C99  1  0.83882100  0.65488800  0.89575400  1
  C  C100  1  0.80730500  0.61336900  0.87403200  1
  C  C101  1  0.57664700  0.87706900  0.62863600  1
  C  C102  1  0.73139700  0.56472900  0.87219900  1
  C  C103  1  0.68636700  0.55634800  0.89229300  1
  C  C104  1  0.71804200  0.59777600  0.91431400  1
  C  C105  1  0.67211500  0.59296300  0.93373500  1
  C  C106  1  0.59659200  0.54034800  0.93200400  1
  C  C107  1  0.56558100  0.49795400  0.91038500  1
  C  C108  1  0.60975800  0.50991200  0.88989300  1
  C  C109  1  0.09608600  0.01581100  0.93327700  1
  C  C110  1  0.08876300  0.94948500  0.92245400  1
  C  C111  1  0.02368000  0.87747700  0.92499200  1
  C  C112  1  0.44222800  0.03899800  0.53928700  1
  C  C113  1  0.52728700  0.67614600  0.64211800  1
  C  C114  1  0.96504700  0.87200000  0.93781000  1
  C  C115  1  0.97151600  0.93842100  0.94867900  1
  C  C116  1  0.03839300  0.01077700  0.94713500  1
  C  C117  1  0.04561500  0.07634000  0.95942200  1
  C  C118  1  0.98249400  0.07228100  0.96808600  1
  C  C119  1  0.91579900  0.00158600  0.96844200  1
  C  C120  1  0.91142300  0.93358500  0.96075100  1
  C  C121  1  0.47875100  0.34452700  0.03526000  1
  C  C122  1  0.53981500  0.34135800  0.04138800  1
  C  C123  1  0.60769300  0.40998100  0.04421300  1
  C  C124  1  0.07781000  0.96532100  0.18897700  1
  C  C125  1  0.61502100  0.48193400  0.04049100  1
  C  C126  1  0.55437800  0.48633100  0.03351600  1
  C  C127  1  0.48520200  0.41667800  0.03137800  1
  C  C128  1  0.42330300  0.42042800  0.02570700  1
  C  C129  1  0.42875500  0.49209500  0.02659400  1
  C  C130  1  0.49691800  0.56054800  0.02779300  1
  C  C131  1  0.56057600  0.55834900  0.02850400  1
  C  C132  1  0.89214400  0.92511000  0.19330000  1
  C  C133  1  0.88927500  0.94998100  0.12414500  1
  C  C134  1  0.07803400  0.99764800  0.12010700  1
  C  C135  1  0.57656700  0.50375400  0.86544900  1
  C  C136  1  0.40792100  0.50045700  0.86426000  1
  C  C137  1  0.42633300  0.52598500  0.79375600  1
  C  C138  1  0.58767100  0.51446300  0.79616300  1
  C  C139  1  0.19727800  0.15656700  0.03013400  1
  C  C140  1  0.41903800  0.01291900  0.46853400  1
  C  C141  1  0.11735600  0.14384900  0.96812800  1
  C  C142  1  0.27790400  0.34513300  0.95346100  1
  C  C143  1  0.35434200  0.35353800  0.01560500  1
  C  C144  1  0.77133900  0.83174100  0.03238800  1
  C  C145  1  0.62763500  0.62833500  0.01815500  1
  C  C146  1  0.69902600  0.64891900  0.95469300  1
  C  C147  1  0.84665300  0.85879200  0.96906400  1
  C  C148  1  0.62087600  0.87242000  0.46380400  1
  C  C149  1  0.63997900  0.81689200  0.46162200  1
  C  C150  1  0.67361800  0.81321800  0.44015700  1
  C  C151  1  0.57901200  0.99001700  0.46814400  1
  C  C152  1  0.68781000  0.86463400  0.42069000  1
  C  C153  1  0.66684300  0.91956300  0.42221900  1
  C  C154  1  0.63355300  0.92385100  0.44415000  1
  C  C155  1  0.61636900  0.98175300  0.44640100  1
  C  C156  1  0.63687000  0.03718900  0.42766800  1
  C  C157  1  0.66867300  0.03242100  0.40598000  1
  C  C158  1  0.68136500  0.97239700  0.40261600  1
  C  C159  1  0.37425100  0.12435500  0.45554500  1
  C  C160  1  0.35395600  0.17703900  0.44929600  1
  C  C161  1  0.31535500  0.16697100  0.42756300  1
  C  C162  1  0.75964100  0.92585400  0.28568100  1
  C  C163  1  0.29766400  0.10477900  0.41182900  1
  C  C164  1  0.31975000  0.05231500  0.41737000  1
  C  C165  1  0.35766200  0.06182500  0.43971600  1
  C  C166  1  0.37570800  0.00671300  0.44632100  1
  C  C167  1  0.35177600  0.94089300  0.43151300  1
  C  C168  1  0.31584900  0.93221100  0.40932800  1
  C  C169  1  0.30209600  0.98879800  0.40150000  1
  C  C170  1  0.41018600  0.95156700  0.58804000  1
  C  C171  1  0.41044600  0.92048800  0.61104900  1
  C  C172  1  0.41986600  0.96235900  0.63257500  1
  C  C173  1  0.84469300  0.94517500  0.34591200  1
  C  C174  1  0.42943800  0.03583400  0.63117500  1
  C  C175  1  0.42873400  0.06782300  0.60812400  1
  C  C176  1  0.41849600  0.02536200  0.58614300  1
  C  C177  1  0.42116500  0.06006200  0.56293800  1
  C  C178  1  0.42711200  0.13236600  0.56262800  1
  C  C179  1  0.43805000  0.17404900  0.58433000  1
  C  C180  1  0.44201000  0.14368900  0.60691400  1
  C  C181  1  0.61050100  0.03631700  0.62755700  1
  C  C182  1  0.61557200  0.10779300  0.62678600  1
  C  C183  1  0.62339500  0.14432600  0.60419200  1
  C  C184  1  0.70326300  0.96325200  0.37739900  1
  C  C185  1  0.62597100  0.10957400  0.58227900  1
  C  C186  1  0.62200700  0.03787700  0.58267300  1
  C  C187  1  0.61428300  0.00121300  0.60565200  1
  C  C188  1  0.60606100  0.92754400  0.60646600  1
  C  C189  1  0.61310200  0.89466700  0.58489600  1
  C  C190  1  0.62056500  0.93044600  0.56218800  1
  C  C191  1  0.62027800  0.99918500  0.56059300  1
  C  C192  1  0.48814300  0.84494500  0.28508000  1
  C  C193  1  0.42710500  0.79236300  0.27114200  1
  C  C194  1  0.36647000  0.79941200  0.27011600  1
  C  C195  1  0.61499200  0.95189800  0.31685600  1
  C  C196  1  0.36638500  0.85876000  0.28314800  1
  C  C197  1  0.42669400  0.91111500  0.29791200  1
  C  C198  1  0.48850500  0.90438300  0.29872100  1
  C  C199  1  0.55061500  0.95891600  0.31246800  1
  C  C200  1  0.55246300  0.02267300  0.32328700  1
  C  C201  1  0.49125300  0.02882000  0.32274800  1
  C  C202  1  0.42702900  0.97157700  0.31118400  1
  C  C203  1  0.96858500  0.06267600  0.37659900  1
  C  C204  1  0.02956700  0.12413500  0.38837500  1
  C  C205  1  0.09713500  0.13120600  0.38660900  1
  C  C206  1  0.20856600  0.96318500  0.28106800  1
  C  C207  1  0.10402100  0.07689900  0.37305700  1
  C  C208  1  0.04346000  0.01544500  0.36050700  1
  C  C209  1  0.97480800  0.00827200  0.36232500  1
  C  C210  1  0.91272500  0.94520800  0.35066800  1
  C  C211  1  0.91807100  0.88568000  0.34009800  1
  C  C212  1  0.98567100  0.89291000  0.33809900  1
  C  C213  1  0.04944200  0.95936400  0.34691400  1
  C  C214  1  0.87445400  0.81613100  0.23398000  1
  C  C215  1  0.87328800  0.77195300  0.25390300  1
  C  C216  1  0.84276700  0.77402100  0.27621800  1
  O  O1  1  0.60738800  0.07540500  0.52719600  1
  O  O2  1  0.71144600  0.86452100  0.29897800  1
  O  O3  1  0.85104800  0.01219300  0.34005900  1
  O  O4  1  0.78017400  0.87810100  0.34370500  1
  O  O5  1  0.74432300  0.02608600  0.36335400  1
  O  O6  1  0.67336600  0.89222000  0.36786900  1
  O  O7  1  0.68081500  0.01695900  0.31782800  1
  O  O8  1  0.60615200  0.88368900  0.32321300  1
  O  O9  1  0.24662600  0.03191600  0.29229000  1
  O  O10  1  0.18375400  0.89757500  0.29398200  1
  O  O11  1  0.36216300  0.03919400  0.31811300  1
  O  O12  1  0.52915600  0.94173200  0.52926600  1
  O  O13  1  0.29745400  0.90479200  0.32077900  1
  O  O14  1  0.29968000  0.04633600  0.36222100  1
  O  O15  1  0.23573000  0.91210000  0.36504500  1
  O  O16  1  0.18129500  0.03413000  0.33654500  1
  O  O17  1  0.11934800  0.89992200  0.33886900  1
  O  O18  1  0.62577000  0.38348900  0.68902400  1
  O  O19  1  0.50776200  0.33436100  0.70316700  1
  O  O20  1  0.58374400  0.39630500  0.64192000  1
  O  O21  1  0.46609400  0.34970200  0.65573600  1
  O  O22  1  0.54303500  0.24271700  0.63142700  1
  O  O23  1  0.49510800  0.09802100  0.52642800  1
  O  O24  1  0.42503400  0.19756500  0.64477400  1
  O  O25  1  0.58551600  0.23038400  0.67924900  1
  O  O26  1  0.46629300  0.18033000  0.69120900  1
  O  O27  1  0.53648700  0.73380900  0.70236500  1
  O  O28  1  0.41916200  0.69033100  0.68877100  1
  O  O29  1  0.57417000  0.88957500  0.69275300  1
  O  O30  1  0.45882000  0.84323800  0.67684500  1
  O  O31  1  0.62159100  0.88026900  0.64607700  1
  O  O32  1  0.50460500  0.82709400  0.63039300  1
  O  O33  1  0.58499000  0.73000500  0.65489400  1
  O  O34  1  0.41742900  0.96569500  0.53246200  1
  O  O35  1  0.46542600  0.67564800  0.64257600  1
  O  O36  1  0.07515400  0.02867600  0.18475600  1
  O  O37  1  0.03331700  0.89932000  0.17696100  1
  O  O38  1  0.93492900  0.99863000  0.18592000  1
  O  O39  1  0.89262800  0.86803500  0.18122100  1
  O  O40  1  0.93937500  0.01946700  0.13338600  1
  O  O41  1  0.88725600  0.88611300  0.13114000  1
  O  O42  1  0.08039900  0.05299100  0.13397900  1
  O  O43  1  0.02843700  0.92260900  0.12457000  1
  O  O44  1  0.59964600  0.57083000  0.85401200  1
  O  O45  1  0.48173200  0.07905800  0.47405600  1
  O  O46  1  0.51392200  0.43963000  0.85860100  1
  O  O47  1  0.47152200  0.56757200  0.86057500  1
  O  O48  1  0.38981800  0.44054000  0.84949700  1
  O  O49  1  0.46862500  0.58615700  0.80836500  1
  O  O50  1  0.41948800  0.45738200  0.79783400  1
  O  O51  1  0.59230900  0.58038100  0.80285000  1
  O  O52  1  0.53953400  0.44819200  0.80731000  1
  O  O53  1  0.17349300  0.20488900  0.02773500  1
  O  O54  1  0.24123400  0.15479500  0.01325000  1
  O  O55  1  0.11757700  0.20044300  0.98071500  1
  O  O56  1  0.40036700  0.94715800  0.48012700  1
  O  O57  1  0.17712500  0.14025400  0.96779000  1
  O  O58  1  0.23856800  0.35100600  0.97128900  1
  O  O59  1  0.29453600  0.29059300  0.95448900  1
  O  O60  1  0.29293100  0.35350900  0.01780900  1
  O  O61  1  0.35688900  0.30272700  0.00070300  1
  O  O62  1  0.72471900  0.83085600  0.01611800  1
  O  O63  1  0.80000200  0.78823900  0.02898700  1
  O  O64  1  0.61866900  0.67962600  0.00592200  1
  O  O65  1  0.69194900  0.63410500  0.01740000  1
  O  O66  1  0.67003200  0.69213700  0.95816800  1
  O  O67  1  0.60136200  0.06182000  0.47547400  1
  O  O68  1  0.74790900  0.65253000  0.97051200  1
  O  O69  1  0.78142600  0.85095100  0.96895900  1
  O  O70  1  0.85690300  0.80838900  0.98136700  1
  O  O71  1  0.51885400  0.92875500  0.47785400  1
  O  O72  1  0.78881300  0.99794000  0.29453000  1
