# generated using pymatgen
data_CuH20C36NO7
_symmetry_space_group_name_H-M   'P 1'
_cell_length_a   10.89939900
_cell_length_b   17.70247800
_cell_length_c   16.26518500
_cell_angle_alpha   89.97506700
_cell_angle_beta   89.99793200
_cell_angle_gamma   89.99846000
_symmetry_Int_Tables_number   1
_chemical_formula_structural   CuH20C36NO7
_chemical_formula_sum   'Cu2 H40 C72 N2 O14'
_cell_volume   3138.30811925
_cell_formula_units_Z   2
loop_
 _symmetry_equiv_pos_site_id
 _symmetry_equiv_pos_as_xyz
  1  'x, y, z'
loop_
 _atom_site_type_symbol
 _atom_site_label
 _atom_site_symmetry_multiplicity
 _atom_site_fract_x
 _atom_site_fract_y
 _atom_site_fract_z
 _atom_site_occupancy
  Cu  Cu1  1  0.50138600  0.50203900  0.58100600  1
  Cu  Cu2  1  0.50083100  0.49663400  0.41668700  1
  H  H1  1  0.25618100  0.65574100  0.16580600  1
  H  H2  1  0.74734500  0.36056600  0.84182400  1
  H  H3  1  0.28425300  0.71361800  0.30193800  1
  H  H4  1  0.72549900  0.29198700  0.71118400  1
  H  H5  1  0.19499100  0.65391300  0.42428700  1
  H  H6  1  0.81456300  0.34389400  0.58480200  1
  H  H7  1  0.04926600  0.47774000  0.27433200  1
  H  H8  1  0.94733500  0.53379200  0.71924600  1
  H  H9  1  0.13784000  0.53813800  0.15216100  1
  H  H10  1  0.85927700  0.48113500  0.84575700  1
  H  H11  1  0.88565500  0.54199400  0.37809900  1
  H  H12  1  0.11653100  0.45750500  0.62020800  1
  H  H13  1  0.38005700  0.87885000  0.59458000  1
  H  H14  1  0.60241900  0.11937500  0.39514200  1
  H  H15  1  0.60708600  0.73383000  0.38771000  1
  H  H16  1  0.41316200  0.26494100  0.61791000  1
  H  H17  1  0.59808800  0.60425400  0.86959800  1
  H  H18  1  0.40074200  0.39686100  0.12720000  1
  H  H19  1  0.39237300  0.40910500  0.70902600  1
  H  H20  1  0.61290000  0.58819800  0.28933200  1
  H  H21  1  0.38829100  0.40340000  0.85890500  1
  H  H22  1  0.61786200  0.59450100  0.13950300  1
  H  H23  1  0.63402200  0.80195100  0.26672400  1
  H  H24  1  0.77497600  0.90479900  0.19571400  1
  H  H25  1  0.80100600  0.01535600  0.30285900  1
  H  H26  1  0.40754800  0.19779300  0.74077300  1
  H  H27  1  0.28017300  0.09527200  0.82298500  1
  H  H28  1  0.23645700  0.98393300  0.71944400  1
  H  H29  1  0.55176400  0.72157400  0.78736100  1
  H  H30  1  0.71170800  0.80101400  0.69940600  1
  H  H31  1  0.82143100  0.70407700  0.60067100  1
  H  H32  1  0.43630300  0.27891400  0.20477400  1
  H  H33  1  0.27541700  0.20100800  0.29331200  1
  H  H34  1  0.17666800  0.29757300  0.39749900  1
  H  H35  1  0.35736800  0.80621500  0.71733400  1
  H  H36  1  0.18624200  0.71543800  0.77799700  1
  H  H37  1  0.13565500  0.61654100  0.66189800  1
  H  H38  1  0.76055800  0.34425900  0.44525400  1
  H  H39  1  0.86472300  0.36187500  0.29896100  1
  H  H40  1  0.75384300  0.26628700  0.19930500  1
  C  C1  1  0.50815700  0.35403800  0.50501600  1
  C  C2  1  0.49436800  0.64453300  0.49255800  1
  C  C3  1  0.26478600  0.49995500  0.49983300  1
  C  C4  1  0.73749000  0.49906500  0.49799100  1
  C  C5  1  0.23330300  0.66151200  0.29603300  1
  C  C6  1  0.77340300  0.34543600  0.71276500  1
  C  C7  1  0.18370300  0.62768200  0.36480600  1
  C  C8  1  0.82270400  0.37495000  0.64158100  1
  C  C9  1  0.11904400  0.56084100  0.35758600  1
  C  C10  1  0.88353100  0.44341400  0.64321800  1
  C  C11  1  0.10126900  0.52940100  0.28079000  1
  C  C12  1  0.89808100  0.48083600  0.71707400  1
  C  C13  1  0.15105500  0.56324500  0.21208200  1
  C  C14  1  0.84861000  0.45133100  0.78820600  1
  C  C15  1  0.21737500  0.62916400  0.21971000  1
  C  C16  1  0.78588600  0.38376500  0.78602300  1
  C  C17  1  0.93584800  0.52162100  0.43092500  1
  C  C18  1  0.06652200  0.47742100  0.56709400  1
  C  C19  1  0.87297300  0.49673800  0.49940100  1
  C  C20  1  0.12934400  0.50242400  0.49868300  1
  C  C21  1  0.94002400  0.47405200  0.56842200  1
  C  C22  1  0.06234500  0.52605100  0.43011600  1
  C  C23  1  0.43160800  0.84599800  0.55059600  1
  C  C24  1  0.55972800  0.15190700  0.44352600  1
  C  C25  1  0.42286000  0.76827500  0.54979300  1
  C  C26  1  0.57056300  0.22936200  0.44374700  1
  C  C27  1  0.48773200  0.72755800  0.49067100  1
  C  C28  1  0.51550000  0.27086800  0.50681900  1
  C  C29  1  0.55485800  0.76603200  0.43185400  1
  C  C30  1  0.45800500  0.23264400  0.57035300  1
  C  C31  1  0.56257200  0.84423500  0.43260700  1
  C  C32  1  0.45034600  0.15439700  0.57083100  1
  C  C33  1  0.50109500  0.88400800  0.49355400  1
  C  C34  1  0.50069600  0.11420700  0.50578200  1
  C  C35  1  0.50129300  0.96510300  0.49764700  1
  C  C36  1  0.50016900  0.03309400  0.50222200  1
  C  C37  1  0.55212400  0.56142300  0.83367100  1
  C  C38  1  0.44828700  0.43866200  0.16361800  1
  C  C39  1  0.55645900  0.56328500  0.74892800  1
  C  C40  1  0.44383100  0.43625200  0.24837400  1
  C  C41  1  0.43989400  0.45214500  0.74357100  1
  C  C42  1  0.56411700  0.54590500  0.25447900  1
  C  C43  1  0.43624500  0.44892700  0.82840100  1
  C  C44  1  0.56821800  0.54947700  0.16967700  1
  C  C45  1  0.49481800  0.50348200  0.87372900  1
  C  C46  1  0.50784200  0.49596200  0.12398000  1
  C  C47  1  0.49892300  0.50064500  0.96186100  1
  C  C48  1  0.50410800  0.49911300  0.03585400  1
  C  C49  1  0.63760000  0.88325000  0.37027700  1
  C  C50  1  0.66441900  0.85450500  0.29368000  1
  C  C51  1  0.73618500  0.90719400  0.25682500  1
  C  C52  1  0.74872900  0.96433200  0.31317200  1
  C  C53  1  0.38656300  0.11578100  0.63882200  1
  C  C54  1  0.37294200  0.14502500  0.71674800  1
  C  C55  1  0.30822000  0.09250400  0.75930800  1
  C  C56  1  0.28636300  0.03495600  0.70476000  1
  C  C57  1  0.62290900  0.62724900  0.71232800  1
  C  C58  1  0.61207600  0.70041700  0.73988900  1
  C  C59  1  0.69380700  0.74107900  0.69518700  1
  C  C60  1  0.75007400  0.68996900  0.64420900  1
  C  C61  1  0.37505100  0.37280800  0.28439100  1
  C  C62  1  0.37969200  0.30025100  0.25415800  1
  C  C63  1  0.29743400  0.26030200  0.29917100  1
  C  C64  1  0.24692400  0.31119700  0.35298500  1
  C  C65  1  0.33789700  0.73242900  0.60832700  1
  C  C66  1  0.31492400  0.75893600  0.68636200  1
  C  C67  1  0.22761300  0.71254400  0.71767800  1
  C  C68  1  0.20240400  0.66137200  0.65662300  1
  C  C69  1  0.64596800  0.26240800  0.37800100  1
  C  C70  1  0.73526900  0.31630700  0.38895800  1
  C  C71  1  0.78948700  0.32471000  0.31443200  1
  C  C72  1  0.73115800  0.27453400  0.26337500  1
  N  N1  1  0.50356600  0.50680200  0.70407400  1
  N  N2  1  0.49855800  0.49186500  0.29361700  1
  O  O1  1  0.49995800  0.39176700  0.57435100  1
  O  O2  1  0.50309400  0.60688700  0.42328100  1
  O  O3  1  0.50744800  0.38754900  0.43349100  1
  O  O4  1  0.49396800  0.61110200  0.56416700  1
  O  O5  1  0.32281200  0.49764300  0.57072000  1
  O  O6  1  0.67946100  0.50061200  0.42698900  1
  O  O7  1  0.32293300  0.49906800  0.42966200  1
  O  O8  1  0.67928700  0.50015200  0.56808200  1
  O  O9  1  0.68911600  0.95015200  0.38241600  1
  O  O10  1  0.33364200  0.04872500  0.63127300  1
  O  O11  1  0.70813900  0.62043000  0.65491600  1
  O  O12  1  0.29288400  0.37993200  0.34371100  1
  O  O13  1  0.26871800  0.67334100  0.58961900  1
  O  O14  1  0.64483900  0.23558700  0.30195800  1
