# generated using pymatgen
data_V2H20C31O10
_symmetry_space_group_name_H-M   'P 1'
_cell_length_a   19.41744700
_cell_length_b   6.77790200
_cell_length_c   16.85422300
_cell_angle_alpha   90.00000000
_cell_angle_beta   108.57406500
_cell_angle_gamma   90.00000000
_symmetry_Int_Tables_number   1
_chemical_formula_structural   V2H20C31O10
_chemical_formula_sum   'V4 H40 C62 O20'
_cell_volume   2102.63789307
_cell_formula_units_Z   2
loop_
 _symmetry_equiv_pos_site_id
 _symmetry_equiv_pos_as_xyz
  1  'x, y, z'
loop_
 _atom_site_type_symbol
 _atom_site_label
 _atom_site_symmetry_multiplicity
 _atom_site_fract_x
 _atom_site_fract_y
 _atom_site_fract_z
 _atom_site_occupancy
  V  V1  1  0.49666200  0.86221500  0.48531700  1
  V  V2  1  0.50333800  0.36221500  0.51468300  1
  V  V3  1  0.00184300  0.21476700  0.01040400  1
  V  V4  1  0.99815700  0.71476700  0.98959600  1
  H  H1  1  0.70259900  0.36577300  0.70154200  1
  H  H2  1  0.29740200  0.86577300  0.29845800  1
  H  H3  1  0.81816100  0.32873300  0.81770500  1
  H  H4  1  0.18183800  0.82873300  0.18229500  1
  H  H5  1  0.76643100  0.57927500  0.82668800  1
  H  H6  1  0.23356900  0.07927600  0.17331200  1
  H  H7  1  0.81915100  0.57263400  0.74952500  1
  H  H8  1  0.18084900  0.07263400  0.25047600  1
  H  H9  1  0.65366200  0.62109200  0.71183500  1
  H  H10  1  0.34633700  0.12109200  0.28816500  1
  H  H11  1  0.70585700  0.61375600  0.63444300  1
  H  H12  1  0.29414300  0.11375600  0.36555700  1
  H  H13  1  0.33599600  0.77070900  0.59811000  1
  H  H14  1  0.66400400  0.27071000  0.40189000  1
  H  H15  1  0.39629600  0.35266200  0.68946900  1
  H  H16  1  0.60370400  0.85266200  0.31053100  1
  H  H17  1  0.34811400  0.49230400  0.79000300  1
  H  H18  1  0.65188600  0.99230400  0.20999700  1
  H  H19  1  0.17001000  0.30377500  0.90941700  1
  H  H20  1  0.82999000  0.80377500  0.09058300  1
  H  H21  1  0.11167000  0.71963300  0.82055400  1
  H  H22  1  0.88832900  0.21963300  0.17944600  1
  H  H23  1  0.16364500  0.57429300  0.72369700  1
  H  H24  1  0.83635500  0.07429400  0.27630300  1
  H  H25  1  0.24777700  0.59250800  0.64137000  1
  H  H26  1  0.75222300  0.09250800  0.35862900  1
  H  H27  1  0.21082700  0.56443700  0.88120700  1
  H  H28  1  0.35692700  0.40718600  0.99674300  1
  H  H29  1  0.27000700  0.30364300  0.99141200  1
  H  H30  1  0.29164900  0.55549000  0.02640100  1
  H  H31  1  0.37158200  0.63746100  0.90040200  1
  H  H32  1  0.30874100  0.80916600  0.92222100  1
  H  H33  1  0.29578000  0.73229400  0.81568600  1
  H  H34  1  0.78917300  0.06443700  0.11879300  1
  H  H35  1  0.64307300  0.90718600  0.00325700  1
  H  H36  1  0.72999200  0.80364300  0.00858800  1
  H  H37  1  0.70835100  0.05549000  0.97359900  1
  H  H38  1  0.62841800  0.13746100  0.09959800  1
  H  H39  1  0.69125900  0.30916600  0.07777900  1
  H  H40  1  0.70421900  0.23229300  0.18431400  1
  C  C1  1  0.58111600  0.57937300  0.41247500  1
  C  C2  1  0.41888300  0.07937300  0.58752500  1
  C  C3  1  0.38246100  0.57793300  0.38644900  1
  C  C4  1  0.61753900  0.07793300  0.61355100  1
  C  C5  1  0.71675300  0.87866900  0.70794000  1
  C  C6  1  0.28324700  0.37866900  0.29206000  1
  C  C7  1  0.68655800  0.05808800  0.68062600  1
  C  C8  1  0.31344200  0.55808800  0.31937400  1
  C  C9  1  0.72421600  0.22159600  0.72093300  1
  C  C10  1  0.27578400  0.72159600  0.27906700  1
  C  C11  1  0.78921700  0.20026800  0.78634800  1
  C  C12  1  0.21078300  0.70026700  0.21365200  1
  C  C13  1  0.81717600  0.01492800  0.81264200  1
  C  C14  1  0.18282400  0.51492800  0.18735700  1
  C  C15  1  0.77830900  0.85704300  0.77060700  1
  C  C16  1  0.22169100  0.35704300  0.22939300  1
  C  C17  1  0.77498500  0.63890500  0.76927300  1
  C  C18  1  0.22501400  0.13890500  0.23072600  1
  C  C19  1  0.70249600  0.66549700  0.69553400  1
  C  C20  1  0.29750400  0.16549700  0.30446600  1
  C  C21  1  0.33138300  0.89360200  0.63698600  1
  C  C22  1  0.66861700  0.39360200  0.36301400  1
  C  C23  1  0.37105900  0.06321200  0.63860900  1
  C  C24  1  0.62894100  0.56321200  0.36139100  1
  C  C25  1  0.36484600  0.22024300  0.68784500  1
  C  C26  1  0.63515300  0.72024300  0.31215500  1
  C  C27  1  0.31919300  0.20785900  0.73567500  1
  C  C28  1  0.68080700  0.70785900  0.26432500  1
  C  C29  1  0.27843700  0.04001000  0.73288500  1
  C  C30  1  0.72156300  0.54001000  0.26711500  1
  C  C31  1  0.28442700  0.88290700  0.68344900  1
  C  C32  1  0.71557300  0.38290700  0.31655100  1
  C  C33  1  0.31483800  0.36290700  0.78679000  1
  C  C34  1  0.68516200  0.86290700  0.21321000  1
  C  C35  1  0.26902300  0.35131600  0.83457200  1
  C  C36  1  0.73097700  0.85131600  0.16542800  1
  C  C37  1  0.22580100  0.18666900  0.82897900  1
  C  C38  1  0.77419900  0.68666900  0.17102100  1
  C  C39  1  0.23149300  0.02968500  0.77926800  1
  C  C40  1  0.76850700  0.52968500  0.22073200  1
  C  C41  1  0.19031600  0.86222000  0.77601400  1
  C  C42  1  0.80968400  0.36222000  0.22398600  1
  C  C43  1  0.19596900  0.70542900  0.72626400  1
  C  C44  1  0.80403100  0.20542900  0.27373600  1
  C  C45  1  0.24320900  0.71554700  0.68019700  1
  C  C46  1  0.75679100  0.21554700  0.31980300  1
  C  C47  1  0.17674300  0.17872300  0.87281500  1
  C  C48  1  0.82325600  0.67872300  0.12718500  1
  C  C49  1  0.13615800  0.01050800  0.87021300  1
  C  C50  1  0.86384200  0.51050800  0.12978700  1
  C  C51  1  0.14357100  0.85138100  0.82262500  1
  C  C52  1  0.85642900  0.35138100  0.17737500  1
  C  C53  1  0.11573600  0.49684200  0.11727300  1
  C  C54  1  0.88426400  0.99684200  0.88272700  1
  C  C55  1  0.91407000  0.50022600  0.08147800  1
  C  C56  1  0.08592900  0.00022600  0.91852200  1
  C  C57  1  0.26757300  0.51370300  0.89350900  1
  C  C58  1  0.29830600  0.43996000  0.98282000  1
  C  C59  1  0.31390400  0.68431000  0.88196400  1
  C  C60  1  0.73242700  0.01370300  0.10649100  1
  C  C61  1  0.70169400  0.93996000  0.01718000  1
  C  C62  1  0.68609600  0.18431000  0.11803600  1
  O  O1  1  0.41152100  0.41033700  0.42388500  1
  O  O2  1  0.58847800  0.91033700  0.57611500  1
  O  O3  1  0.55474400  0.75929600  0.41618900  1
  O  O4  1  0.44525600  0.25929600  0.58381100  1
  O  O5  1  0.41026500  0.75943600  0.39759200  1
  O  O6  1  0.58973500  0.25943600  0.60240800  1
  O  O7  1  0.43426400  0.91068500  0.55602100  1
  O  O8  1  0.56573500  0.41068500  0.44397900  1
  O  O9  1  0.51060200  0.59660000  0.54953100  1
  O  O10  1  0.48939800  0.09660000  0.45046900  1
  O  O11  1  0.93246100  0.66750900  0.05533500  1
  O  O12  1  0.06753900  0.16751000  0.94466500  1
  O  O13  1  0.08663800  0.32132800  0.09928500  1
  O  O14  1  0.91336200  0.82132800  0.90071500  1
  O  O15  1  0.93973700  0.32576500  0.07310700  1
  O  O16  1  0.06026300  0.82576500  0.92689300  1
  O  O17  1  0.91233200  0.16318400  0.91712500  1
  O  O18  1  0.08766800  0.66318400  0.08287500  1
  O  O19  1  0.99235500  0.48709500  0.94927200  1
  O  O20  1  0.00764500  0.98709500  0.05072800  1
