# generated using pymatgen
data_ZnH9C16N2O5
_symmetry_space_group_name_H-M   'P 1'
_cell_length_a   11.89085700
_cell_length_b   13.08722800
_cell_length_c   14.53539300
_cell_angle_alpha   89.99118500
_cell_angle_beta   85.54928400
_cell_angle_gamma   91.19176300
_symmetry_Int_Tables_number   1
_chemical_formula_structural   ZnH9C16N2O5
_chemical_formula_sum   'Zn2 H18 C32 N4 O10'
_cell_volume   2254.66151120
_cell_formula_units_Z   2
loop_
 _symmetry_equiv_pos_site_id
 _symmetry_equiv_pos_as_xyz
  1  'x, y, z'
loop_
 _atom_site_type_symbol
 _atom_site_label
 _atom_site_symmetry_multiplicity
 _atom_site_fract_x
 _atom_site_fract_y
 _atom_site_fract_z
 _atom_site_occupancy
  Zn  Zn1  1  0.37913900  0.50763800  0.51669000  1
  Zn  Zn2  1  0.63503300  0.49195900  0.50021700  1
  H  H1  1  0.64782100  0.16522100  0.46738900  1
  H  H2  1  0.36606900  0.83439000  0.54758700  1
  H  H3  1  0.30174600  0.18767100  0.56289000  1
  H  H4  1  0.71169400  0.81166800  0.45107600  1
  H  H5  1  0.19110600  0.40600800  0.42509300  1
  H  H6  1  0.82306400  0.59358400  0.59182700  1
  H  H7  1  0.21116800  0.63167400  0.62932100  1
  H  H8  1  0.80300500  0.36792300  0.38759200  1
  H  H9  1  0.00891300  0.35257600  0.37521400  1
  H  H10  1  0.00526000  0.64703300  0.64169000  1
  H  H11  1  0.82404600  0.97166400  0.45254200  1
  H  H12  1  0.94268300  0.03648300  0.33429500  1
  H  H13  1  0.87821100  0.11879700  0.25474400  1
  H  H14  1  0.88457100  0.98294800  0.23307000  1
  H  H15  1  0.21756000  0.02689400  0.63319800  1
  H  H16  1  0.04354100  0.96184400  0.60565400  1
  H  H17  1  0.03715200  0.88431100  0.50340300  1
  H  H18  1  0.02067700  0.02116800  0.49651800  1
  C  C1  1  0.52653500  0.69946300  0.50485700  1
  C  C2  1  0.48761200  0.30013600  0.51195000  1
  C  C3  1  0.50677400  0.50211900  0.68826600  1
  C  C4  1  0.50739900  0.49747700  0.32864200  1
  C  C5  1  0.50703100  0.50198800  0.78697300  1
  C  C6  1  0.50714300  0.49760000  0.22993500  1
  C  C7  1  0.50711000  0.50137200  0.86986700  1
  C  C8  1  0.50706600  0.49820800  0.14704000  1
  C  C9  1  0.50710400  0.50029300  0.96700400  1
  C  C10  1  0.50707200  0.49928300  0.04990300  1
  C  C11  1  0.47641800  0.18828300  0.51418400  1
  C  C12  1  0.53737100  0.81128500  0.50063100  1
  C  C13  1  0.64900500  0.96221500  0.46370300  1
  C  C14  1  0.36264000  0.03715100  0.54427000  1
  C  C15  1  0.63923500  0.85733900  0.47123400  1
  C  C16  1  0.37404400  0.14214800  0.54189500  1
  C  C17  1  0.44517700  0.87108200  0.52400200  1
  C  C18  1  0.56797100  0.12846700  0.48870700  1
  C  C19  1  0.45471000  0.97678200  0.51911000  1
  C  C20  1  0.55730800  0.02269100  0.49001000  1
  C  C21  1  0.96925100  0.40626600  0.42336000  1
  C  C22  1  0.04492100  0.59333300  0.59355300  1
  C  C23  1  0.85348200  0.41502600  0.43030300  1
  C  C24  1  0.16069000  0.58456800  0.58661400  1
  C  C25  1  0.86480200  0.54067900  0.54409100  1
  C  C26  1  0.14936800  0.45891300  0.47283000  1
  C  C27  1  0.98078000  0.53354600  0.53875800  1
  C  C28  1  0.03339000  0.46604800  0.47816000  1
  C  C29  1  0.76137500  0.02716200  0.33937100  1
  C  C30  1  0.87380600  0.04211600  0.28746800  1
  C  C31  1  0.18900800  0.97305900  0.50825500  1
  C  C32  1  0.06497500  0.95931200  0.53008700  1
  N  N1  1  0.21101400  0.51792300  0.52682500  1
  N  N2  1  0.80315800  0.48167400  0.49009000  1
  N  N3  1  0.75387700  0.00615400  0.43069200  1
  N  N4  1  0.25754100  0.99294800  0.57615200  1
  O  O1  1  0.42489700  0.65765700  0.51249600  1
  O  O2  1  0.58927900  0.34192300  0.50433700  1
  O  O3  1  0.61888600  0.64576700  0.49908000  1
  O  O4  1  0.39529200  0.35384400  0.51776900  1
  O  O5  1  0.40952600  0.50757700  0.65191700  1
  O  O6  1  0.60465800  0.49202500  0.36498800  1
  O  O7  1  0.60368800  0.49569600  0.63918200  1
  O  O8  1  0.41047200  0.50389300  0.37772400  1
  O  O9  1  0.67604400  0.03359100  0.29849700  1
  O  O10  1  0.22812800  0.96696600  0.42843500  1
