# generated using pymatgen
data_ZnH9C18N(O2F)2
_symmetry_space_group_name_H-M   'P 1'
_cell_length_a   13.12117700
_cell_length_b   15.20494000
_cell_length_c   14.04507700
_cell_angle_alpha   90.00492900
_cell_angle_beta   95.41147300
_cell_angle_gamma   90.00353300
_symmetry_Int_Tables_number   1
_chemical_formula_structural   ZnH9C18N(O2F)2
_chemical_formula_sum   'Zn2 H18 C36 N2 O8 F4'
_cell_volume   2789.59845168
_cell_formula_units_Z   2
loop_
 _symmetry_equiv_pos_site_id
 _symmetry_equiv_pos_as_xyz
  1  'x, y, z'
loop_
 _atom_site_type_symbol
 _atom_site_label
 _atom_site_symmetry_multiplicity
 _atom_site_fract_x
 _atom_site_fract_y
 _atom_site_fract_z
 _atom_site_occupancy
  Zn  Zn1  1  0.50263600  0.49844900  0.60853500  1
  Zn  Zn2  1  0.49992300  0.49947100  0.39180200  1
  H  H1  1  0.82803700  0.50956700  0.67850300  1
  H  H2  1  0.17444700  0.48846400  0.32169200  1
  H  H3  1  0.98985200  0.48727200  0.30461000  1
  H  H4  1  0.01260900  0.51135800  0.69549700  1
  H  H5  1  0.45403700  0.06107400  0.64162100  1
  H  H6  1  0.44856600  0.93702800  0.35144500  1
  H  H7  1  0.45782200  0.21961500  0.64156000  1
  H  H8  1  0.45143600  0.77842600  0.35207400  1
  H  H9  1  0.54541000  0.21825800  0.35603200  1
  H  H10  1  0.54929200  0.77956400  0.65111300  1
  H  H11  1  0.54874800  0.05944800  0.35781100  1
  H  H12  1  0.55348200  0.93830900  0.64981100  1
  H  H13  1  0.43109000  0.37128400  0.06286400  1
  H  H14  1  0.64365300  0.56994700  0.94489300  1
  H  H15  1  0.42665900  0.37754300  0.23474100  1
  H  H16  1  0.63868700  0.57139900  0.77177400  1
  H  H17  1  0.57351600  0.62505700  0.07293300  1
  H  H18  1  0.36360200  0.42322000  0.92037500  1
  C  C1  1  0.50192100  0.32677700  0.49861000  1
  C  C2  1  0.50050900  0.67114200  0.50184000  1
  C  C3  1  0.30050600  0.49855100  0.48369200  1
  C  C4  1  0.70202200  0.49957200  0.51654200  1
  C  C5  1  0.81474500  0.50025400  0.52517100  1
  C  C6  1  0.18773400  0.49821600  0.47499600  1
  C  C7  1  0.02910700  0.49179800  0.37559800  1
  C  C8  1  0.97334700  0.50687800  0.62450800  1
  C  C9  1  0.13455600  0.49259200  0.38540900  1
  C  C10  1  0.86792100  0.50572300  0.61475700  1
  C  C11  1  0.13330200  0.50335000  0.55500600  1
  C  C12  1  0.86909600  0.49564500  0.44507100  1
  C  C13  1  0.02734100  0.50227100  0.54485200  1
  C  C14  1  0.97507300  0.49655800  0.45521900  1
  C  C15  1  0.47677800  0.09431900  0.57906400  1
  C  C16  1  0.47329600  0.90369300  0.41749400  1
  C  C17  1  0.47795400  0.18496000  0.57882200  1
  C  C18  1  0.47392500  0.81303400  0.41791900  1
  C  C19  1  0.50172900  0.23040300  0.49873500  1
  C  C20  1  0.50030900  0.76752300  0.50169200  1
  C  C21  1  0.52530300  0.18416100  0.41912600  1
  C  C22  1  0.52699900  0.81370400  0.58493600  1
  C  C23  1  0.52621900  0.09344900  0.41999800  1
  C  C24  1  0.52844400  0.90439900  0.58418600  1
  C  C25  1  0.50146300  0.04750500  0.49984700  1
  C  C26  1  0.50113800  0.95042500  0.50051500  1
  C  C27  1  0.46080200  0.42911000  0.10050900  1
  C  C28  1  0.58030400  0.53835300  0.90369300  1
  C  C29  1  0.45933000  0.43192200  0.19854600  1
  C  C30  1  0.57855500  0.53828900  0.80530000  1
  C  C31  1  0.54163000  0.56825400  0.20446900  1
  C  C32  1  0.42869100  0.45452100  0.79237800  1
  C  C33  1  0.54229200  0.56844800  0.10636700  1
  C  C34  1  0.42683000  0.45497200  0.89032900  1
  C  C35  1  0.50212000  0.49817600  0.05278700  1
  C  C36  1  0.50320200  0.49711200  0.94767800  1
  N  N1  1  0.49951000  0.50084300  0.24926300  1
  N  N2  1  0.50319400  0.49693000  0.75105700  1
  O  O1  1  0.50248300  0.36770400  0.58082000  1
  O  O2  1  0.49869600  0.63020500  0.41952400  1
  O  O3  1  0.50113600  0.36817000  0.41657800  1
  O  O4  1  0.50272600  0.62976800  0.58399900  1
  O  O5  1  0.35004400  0.49897200  0.56931300  1
  O  O6  1  0.65250400  0.50014000  0.43094100  1
  O  O7  1  0.34747700  0.49822000  0.40510800  1
  O  O8  1  0.65507300  0.49882000  0.59512900  1
  F  F1  1  0.81959800  0.48963800  0.35611600  1
  F  F2  1  0.18267000  0.51011800  0.64390700  1
  F  F3  1  0.58461700  0.63656300  0.25543700  1
  F  F4  1  0.35450400  0.41087400  0.73788000  1
