# generated using pymatgen
data_CuH9C14NO4
_symmetry_space_group_name_H-M   'P 1'
_cell_length_a   12.29165700
_cell_length_b   14.19405800
_cell_length_c   6.64598400
_cell_angle_alpha   90.00000000
_cell_angle_beta   80.32043500
_cell_angle_gamma   90.00000000
_symmetry_Int_Tables_number   1
_chemical_formula_structural   CuH9C14NO4
_chemical_formula_sum   'Cu2 H18 C28 N2 O8'
_cell_volume   1143.00737565
_cell_formula_units_Z   2
loop_
 _symmetry_equiv_pos_site_id
 _symmetry_equiv_pos_as_xyz
  1  'x, y, z'
loop_
 _atom_site_type_symbol
 _atom_site_label
 _atom_site_symmetry_multiplicity
 _atom_site_fract_x
 _atom_site_fract_y
 _atom_site_fract_z
 _atom_site_occupancy
  Cu  Cu1  1  0.00385500  0.90830500  0.01338400  1
  Cu  Cu2  1  0.99815300  0.09387500  0.98806000  1
  H  H1  1  0.86918500  0.58533400  0.27298500  1
  H  H2  1  0.84192900  0.43181500  0.19590200  1
  H  H3  1  0.00391500  0.44011600  0.67529000  1
  H  H4  1  0.96356800  0.59640700  0.70824200  1
  H  H5  1  0.86605100  0.42158500  0.81648600  1
  H  H6  1  0.84605100  0.57593300  0.90767600  1
  H  H7  1  0.14645000  0.42588000  0.12105200  1
  H  H8  1  0.17079100  0.58284000  0.06015600  1
  H  H9  1  0.16715400  0.41361000  0.84581500  1
  H  H10  1  0.15064900  0.57130600  0.79728900  1
  H  H11  1  0.95766800  0.40713500  0.32441400  1
  H  H12  1  0.00564700  0.56187000  0.33049700  1
  H  H13  1  0.34777400  0.05320000  0.03384000  1
  H  H14  1  0.27768600  0.95561800  0.89485400  1
  H  H15  1  0.45344200  0.94486200  0.02292800  1
  H  H16  1  0.64802900  0.95757800  0.96890900  1
  H  H17  1  0.52193600  0.04699400  0.15307800  1
  H  H18  1  0.65601300  0.02401600  0.24338300  1
  C  C1  1  0.15130900  0.01249300  0.23171500  1
  C  C2  1  0.15322700  0.99615000  0.67710300  1
  C  C3  1  0.84880800  0.99040000  0.77332600  1
  C  C4  1  0.85074300  0.00555800  0.32646300  1
  C  C5  1  0.93078000  0.44542600  0.19583200  1
  C  C6  1  0.94932100  0.55014300  0.21889000  1
  C  C7  1  0.94774400  0.45387700  0.82118100  1
  C  C8  1  0.93426600  0.55913800  0.85393800  1
  C  C9  1  0.99696000  0.41225400  0.99532200  1
  C  C10  1  0.00124100  0.59003100  0.01391900  1
  C  C11  1  0.11754600  0.55225600  0.95773900  1
  C  C12  1  0.11490800  0.44605000  0.98025700  1
  C  C13  1  0.00357300  0.69310600  0.02324500  1
  C  C14  1  0.99488900  0.30916800  0.98534900  1
  C  C15  1  0.25169200  0.01771100  0.32113400  1
  C  C16  1  0.34908900  0.03605200  0.19179300  1
  C  C17  1  0.44847000  0.03103000  0.26008400  1
  C  C18  1  0.25363500  0.99672000  0.52372700  1
  C  C19  1  0.35372700  0.98981300  0.59119500  1
  C  C20  1  0.45182700  0.00596100  0.46002300  1
  C  C21  1  0.55136800  0.99900000  0.53211500  1
  C  C22  1  0.65134700  0.01182600  0.40427900  1
  C  C23  1  0.74958800  0.00495600  0.47717300  1
  C  C24  1  0.35460300  0.96834600  0.79305800  1
  C  C25  1  0.45312200  0.96220700  0.86469100  1
  C  C26  1  0.55125400  0.97737600  0.73457100  1
  C  C27  1  0.64932900  0.97161600  0.80866000  1
  C  C28  1  0.74883800  0.98597100  0.68155100  1
  N  N1  1  0.00500800  0.77462000  0.02762700  1
  N  N2  1  0.99402100  0.22765800  0.97963100  1
  O  O1  1  0.11527300  0.92934200  0.18654100  1
  O  O2  1  0.11420100  0.08913200  0.15617700  1
  O  O3  1  0.12048500  0.91762700  0.77296600  1
  O  O4  1  0.11109800  0.07732900  0.74569900  1
  O  O5  1  0.88689100  0.91316000  0.84560500  1
  O  O6  1  0.88559400  0.07347200  0.81732400  1
  O  O7  1  0.89163100  0.92427600  0.25613500  1
  O  O8  1  0.88281500  0.08424900  0.23021800  1
