# generated using pymatgen
data_ZnH16C31N2O7
_symmetry_space_group_name_H-M   'P 1'
_cell_length_a   16.12802200
_cell_length_b   14.98479200
_cell_length_c   23.43413000
_cell_angle_alpha   90.00000000
_cell_angle_beta   90.00239200
_cell_angle_gamma   90.00000000
_symmetry_Int_Tables_number   1
_chemical_formula_structural   ZnH16C31N2O7
_chemical_formula_sum   'Zn2 H32 C62 N4 O14'
_cell_volume   5663.44465266
_cell_formula_units_Z   2
loop_
 _symmetry_equiv_pos_site_id
 _symmetry_equiv_pos_as_xyz
  1  'x, y, z'
loop_
 _atom_site_type_symbol
 _atom_site_label
 _atom_site_symmetry_multiplicity
 _atom_site_fract_x
 _atom_site_fract_y
 _atom_site_fract_z
 _atom_site_occupancy
  Zn  Zn1  1  0.50000000  0.54563500  0.50000000  1
  Zn  Zn2  1  0.50000000  0.34252000  0.50000000  1
  H  H1  1  0.29218600  0.44003100  0.95085900  1
  H  H2  1  0.70781300  0.44003200  0.04914100  1
  H  H3  1  0.29467900  0.43962600  0.05388100  1
  H  H4  1  0.70532000  0.43962700  0.94611900  1
  H  H5  1  0.56618200  0.56758600  0.21246500  1
  H  H6  1  0.43381700  0.56758600  0.78753500  1
  H  H7  1  0.44710600  0.31664900  0.31969700  1
  H  H8  1  0.55289400  0.31665000  0.68030300  1
  H  H9  1  0.44593500  0.31445400  0.21577100  1
  H  H10  1  0.55406500  0.31445500  0.78422900  1
  H  H11  1  0.07625400  0.58632800  0.49880700  1
  H  H12  1  0.92374900  0.30202600  0.50119700  1
  H  H13  1  0.92374500  0.58632800  0.50117500  1
  H  H14  1  0.07625100  0.30202600  0.49882100  1
  H  H15  1  0.40824800  0.02616600  0.43461300  1
  H  H16  1  0.59174800  0.86199200  0.56538900  1
  H  H17  1  0.59175100  0.02616600  0.56538700  1
  H  H18  1  0.40825100  0.86199200  0.43461100  1
  H  H19  1  0.67641100  0.49898600  0.34233700  1
  H  H20  1  0.65495200  0.58927800  0.39127400  1
  H  H21  1  0.65788200  0.74866100  0.33820900  1
  H  H22  1  0.75951500  0.84418200  0.28960600  1
  H  H23  1  0.87868500  0.77693500  0.24023600  1
  H  H24  1  0.89608900  0.61391900  0.23942900  1
  H  H25  1  0.79498600  0.51810000  0.28767500  1
  H  H26  1  0.32358800  0.49898500  0.65766300  1
  H  H27  1  0.34504700  0.58927800  0.60872600  1
  H  H28  1  0.34211600  0.74866000  0.66179100  1
  H  H29  1  0.24048200  0.84418000  0.71039400  1
  H  H30  1  0.12131300  0.77693200  0.75976300  1
  H  H31  1  0.10390900  0.61391600  0.76057100  1
  H  H32  1  0.20501300  0.51809800  0.71232400  1
  C  C1  1  0.33802300  0.44408800  0.49707100  1
  C  C2  1  0.66197700  0.44408800  0.50292800  1
  C  C3  1  0.50516000  0.44408600  0.38831400  1
  C  C4  1  0.49484000  0.44408600  0.61168600  1
  C  C5  1  0.56982500  0.43999900  0.88113600  1
  C  C6  1  0.43017500  0.43999900  0.11886400  1
  C  C7  1  0.42446200  0.44034100  0.88281400  1
  C  C8  1  0.57553800  0.44034200  0.11718600  1
  C  C9  1  0.42487800  0.44008300  0.94183000  1
  C  C10  1  0.57512200  0.44008300  0.05817000  1
  C  C11  1  0.49928900  0.43981700  0.97056300  1
  C  C12  1  0.50071100  0.43981700  0.02943600  1
  C  C13  1  0.57226900  0.43967200  0.94013400  1
  C  C14  1  0.42773100  0.43967200  0.05986600  1
  C  C15  1  0.35148800  0.43989500  0.97229900  1
  C  C16  1  0.64851100  0.43989600  0.02770100  1
  C  C17  1  0.35290900  0.43970100  0.03109500  1
  C  C18  1  0.64709100  0.43970100  0.96890500  1
  C  C19  1  0.53985300  0.51247800  0.23608600  1
  C  C20  1  0.46014700  0.51247800  0.76391400  1
  C  C21  1  0.54271200  0.51346200  0.29488800  1
  C  C22  1  0.45728700  0.51346200  0.70511200  1
  C  C23  1  0.50804900  0.44350400  0.32569900  1
  C  C24  1  0.49195000  0.44350400  0.67430100  1
  C  C25  1  0.47424700  0.37187300  0.29666500  1
  C  C26  1  0.52575300  0.37187300  0.70333500  1
  C  C27  1  0.47263600  0.37087900  0.23787300  1
  C  C28  1  0.52736400  0.37087900  0.76212700  1
  C  C29  1  0.50503100  0.44141100  0.20737200  1
  C  C30  1  0.49496900  0.44141100  0.79262800  1
  C  C31  1  0.95726600  0.52387000  0.50069000  1
  C  C32  1  0.04273200  0.36448400  0.49930900  1
  C  C33  1  0.04273300  0.52387000  0.49930000  1
  C  C34  1  0.95726800  0.36448400  0.50070100  1
  C  C35  1  0.91454900  0.44417600  0.50141800  1
  C  C36  1  0.08545000  0.44417600  0.49858200  1
  C  C37  1  0.82561600  0.44416200  0.50247300  1
  C  C38  1  0.17438400  0.44416200  0.49752700  1
  C  C39  1  0.24907900  0.44412600  0.49701500  1
  C  C40  1  0.75092100  0.44412600  0.50298400  1
  C  C41  1  0.44856600  0.89807000  0.46334300  1
  C  C42  1  0.55143500  0.99008800  0.53665600  1
  C  C43  1  0.55143400  0.89807000  0.53665700  1
  C  C44  1  0.44856400  0.99008800  0.46334400  1
  C  C45  1  0.50000000  0.85206500  0.50000000  1
  C  C46  1  0.50000000  0.03609200  0.50000000  1
  C  C47  1  0.50000000  0.75631100  0.50000000  1
  C  C48  1  0.50000000  0.13184600  0.50000000  1
  C  C49  1  0.65786700  0.57002300  0.34565400  1
  C  C50  1  0.71978100  0.62737200  0.31611400  1
  C  C51  1  0.71011000  0.71884900  0.31647300  1
  C  C52  1  0.76715900  0.77252400  0.28924300  1
  C  C53  1  0.83396200  0.73484100  0.26158200  1
  C  C54  1  0.84371400  0.64345700  0.26114300  1
  C  C55  1  0.78672900  0.58967300  0.28836300  1
  C  C56  1  0.34213200  0.57002200  0.65434600  1
  C  C57  1  0.28021800  0.62737100  0.68388600  1
  C  C58  1  0.28988800  0.71884700  0.68352700  1
  C  C59  1  0.23283900  0.77252200  0.71075700  1
  C  C60  1  0.16603600  0.73483900  0.73841800  1
  C  C61  1  0.15628400  0.64345400  0.73885700  1
  C  C62  1  0.21327000  0.58967100  0.71163600  1
  N  N1  1  0.49645600  0.44042800  0.85349300  1
  N  N2  1  0.50354400  0.44042800  0.14650700  1
  N  N3  1  0.50000000  0.20905400  0.50000000  1
  N  N4  1  0.50000000  0.67910400  0.50000000  1
  O  O1  1  0.37651800  0.52114400  0.49757600  1
  O  O2  1  0.62349600  0.36701600  0.50218800  1
  O  O3  1  0.62348100  0.52114400  0.50242400  1
  O  O4  1  0.37650400  0.36701600  0.49781200  1
  O  O5  1  0.50361400  0.52107100  0.41502400  1
  O  O6  1  0.49676200  0.36708300  0.58499100  1
  O  O7  1  0.49638600  0.52107100  0.58497500  1
  O  O8  1  0.50323700  0.36708300  0.41500900  1
  O  O9  1  0.64076400  0.44192900  0.85108500  1
  O  O10  1  0.35923600  0.44192800  0.14891500  1
  O  O11  1  0.35208500  0.43873900  0.85441400  1
  O  O12  1  0.64791500  0.43874000  0.14558600  1
  O  O13  1  0.58150900  0.58180500  0.32086600  1
  O  O14  1  0.41849000  0.58180400  0.67913400  1
