# generated using pymatgen
data_VH12C17NO5
_symmetry_space_group_name_H-M   'P 1'
_cell_length_a   25.84820000
_cell_length_b   6.81800000
_cell_length_c   21.76969600
_cell_angle_alpha   90.00000000
_cell_angle_beta   96.18400200
_cell_angle_gamma   90.00000000
_symmetry_Int_Tables_number   1
_chemical_formula_structural   VH12C17NO5
_chemical_formula_sum   'V4 H48 C68 N4 O20'
_cell_volume   3814.21492210
_cell_formula_units_Z   4
loop_
 _symmetry_equiv_pos_site_id
 _symmetry_equiv_pos_as_xyz
  1  'x, y, z'
loop_
 _atom_site_type_symbol
 _atom_site_label
 _atom_site_symmetry_multiplicity
 _atom_site_fract_x
 _atom_site_fract_y
 _atom_site_fract_z
 _atom_site_occupancy
  V  V1  1  0.74919500  0.19834400  0.73994900  1
  V  V2  1  0.25084600  0.83457700  0.26003600  1
  V  V3  1  0.75080500  0.69834400  0.76005100  1
  V  V4  1  0.24915400  0.33457700  0.23996400  1
  H  H1  1  0.42881200  0.33481700  0.04837000  1
  H  H2  1  0.57075300  0.69908400  0.95128300  1
  H  H3  1  0.07118800  0.83481700  0.45163000  1
  H  H4  1  0.92924800  0.19908500  0.54871700  1
  H  H5  1  0.35947000  0.34761500  0.11699200  1
  H  H6  1  0.64018900  0.68566100  0.88280600  1
  H  H7  1  0.14053000  0.84761700  0.38300800  1
  H  H8  1  0.85981100  0.18566000  0.61719400  1
  H  H9  1  0.37313500  0.73139800  0.14626400  1
  H  H10  1  0.62702400  0.30206500  0.85367800  1
  H  H11  1  0.12686500  0.23139800  0.35373700  1
  H  H12  1  0.87297600  0.80206500  0.64632200  1
  H  H13  1  0.44260000  0.71854700  0.07746300  1
  H  H14  1  0.55745300  0.31554000  0.92232400  1
  H  H15  1  0.05740000  0.21854700  0.42253700  1
  H  H16  1  0.94254700  0.81554000  0.57767600  1
  H  H17  1  0.97779400  0.19835100  0.09034000  1
  H  H18  1  0.02214300  0.83381800  0.90985300  1
  H  H19  1  0.52220600  0.69835100  0.40966000  1
  H  H20  1  0.47785700  0.33381800  0.59014700  1
  H  H21  1  0.97810200  0.35209800  0.96768800  1
  H  H22  1  0.02185100  0.68007000  0.03253400  1
  H  H23  1  0.52189800  0.85209800  0.53231200  1
  H  H24  1  0.47814900  0.18006900  0.46746600  1
  H  H25  1  0.97237900  0.83197600  0.12584700  1
  H  H26  1  0.92467700  0.63787100  0.11948200  1
  H  H27  1  0.90610700  0.88260000  0.13991800  1
  H  H28  1  0.92196500  0.66405000  0.97093600  1
  H  H29  1  0.85737900  0.72006800  0.99022100  1
  H  H30  1  0.89774500  0.54786900  0.03658200  1
  H  H31  1  0.02680900  0.20819100  0.87520500  1
  H  H32  1  0.09388200  0.18085100  0.85973400  1
  H  H33  1  0.07149300  0.41236600  0.88792300  1
  H  H34  1  0.13651400  0.01881100  0.00662100  1
  H  H35  1  0.15904900  0.13617300  0.93978100  1
  H  H36  1  0.11648700  0.92483000  0.92994200  1
  H  H37  1  0.52762100  0.33197600  0.37415300  1
  H  H38  1  0.57532300  0.13787100  0.38051800  1
  H  H39  1  0.59389300  0.38260000  0.36008200  1
  H  H40  1  0.57803500  0.16404900  0.52906400  1
  H  H41  1  0.64262100  0.22006700  0.50978000  1
  H  H42  1  0.60225500  0.04786900  0.46341800  1
  H  H43  1  0.47319100  0.70819100  0.62479500  1
  H  H44  1  0.40611800  0.68085100  0.64026700  1
  H  H45  1  0.42850700  0.91236600  0.61207800  1
  H  H46  1  0.36348600  0.51881200  0.49337900  1
  H  H47  1  0.34095100  0.63617300  0.56021900  1
  H  H48  1  0.38351300  0.42483000  0.57005900  1
  C  C1  1  0.67231000  0.48099100  0.67209500  1
  C  C2  1  0.32773100  0.55187500  0.32783700  1
  C  C3  1  0.82769000  0.98099000  0.82790600  1
  C  C4  1  0.17226800  0.05187400  0.17216300  1
  C  C5  1  0.81933300  0.48024500  0.67897700  1
  C  C6  1  0.18072900  0.55276500  0.32110900  1
  C  C7  1  0.68066600  0.98024600  0.82102400  1
  C  C8  1  0.31927100  0.05276500  0.17889000  1
  C  C9  1  0.41679800  0.20133100  0.06957000  1
  C  C10  1  0.58289400  0.83246900  0.93013800  1
  C  C11  1  0.08320300  0.70133100  0.43043000  1
  C  C12  1  0.91710600  0.33246800  0.56986300  1
  C  C13  1  0.37744500  0.20849800  0.10846200  1
  C  C14  1  0.62229800  0.82494400  0.89132400  1
  C  C15  1  0.12255500  0.70849500  0.39153800  1
  C  C16  1  0.87770200  0.32494700  0.60867600  1
  C  C17  1  0.36102400  0.04058600  0.13663300  1
  C  C18  1  0.63887200  0.99271900  0.86322000  1
  C  C19  1  0.13897500  0.54058700  0.36336800  1
  C  C20  1  0.86112900  0.49271800  0.63677900  1
  C  C21  1  0.38502100  0.86465900  0.12482400  1
  C  C22  1  0.61499300  0.16888400  0.87504000  1
  C  C23  1  0.11497900  0.36466100  0.37517600  1
  C  C24  1  0.88500700  0.66888400  0.62496000  1
  C  C25  1  0.42446200  0.85746100  0.08583700  1
  C  C26  1  0.57549900  0.17643900  0.91394900  1
  C  C27  1  0.07553900  0.35746000  0.41416300  1
  C  C28  1  0.92450100  0.67644100  0.58605200  1
  C  C29  1  0.44087500  0.02583700  0.05776400  1
  C  C30  1  0.55892500  0.00818100  0.94194400  1
  C  C31  1  0.05912500  0.52583800  0.44223700  1
  C  C32  1  0.94107600  0.50817900  0.55805500  1
  C  C33  1  0.48252400  0.01943600  0.01688800  1
  C  C34  1  0.51725600  0.01485200  0.98278800  1
  C  C35  1  0.01747500  0.51943500  0.48311300  1
  C  C36  1  0.98274500  0.51485300  0.51721200  1
  C  C37  1  0.96188800  0.93612900  0.02245300  1
  C  C38  1  0.03801400  0.09607300  0.97774500  1
  C  C39  1  0.53811200  0.43612900  0.47754700  1
  C  C40  1  0.46198600  0.59607200  0.52225500  1
  C  C41  1  0.98866700  0.11917900  0.04912400  1
  C  C42  1  0.01125400  0.91298500  0.95106900  1
  C  C43  1  0.51133300  0.61917900  0.45087700  1
  C  C44  1  0.48874600  0.41298500  0.54893100  1
  C  C45  1  0.12636600  0.03637300  0.12651400  1
  C  C46  1  0.87358000  0.99633800  0.87359400  1
  C  C47  1  0.37363400  0.53637300  0.37348600  1
  C  C48  1  0.62642000  0.49633800  0.62640500  1
  C  C49  1  0.01300600  0.83272300  0.01723600  1
  C  C50  1  0.98690100  0.19941400  0.98296200  1
  C  C51  1  0.48699400  0.33272400  0.48276500  1
  C  C52  1  0.51309900  0.69941300  0.51703800  1
  C  C53  1  0.04052900  0.01850500  0.04255700  1
  C  C54  1  0.95938300  0.01369600  0.95763300  1
  C  C55  1  0.45947100  0.51850500  0.45744300  1
  C  C56  1  0.54061700  0.51369600  0.54236700  1
  C  C57  1  0.08784900  0.02717900  0.08863200  1
  C  C58  1  0.91208000  0.00529300  0.91151400  1
  C  C59  1  0.41215100  0.52718000  0.41136800  1
  C  C60  1  0.58792000  0.50529300  0.58848600  1
  C  C61  1  0.93099100  0.79607500  0.11151500  1
  C  C62  1  0.89781100  0.68539800  0.00952500  1
  C  C63  1  0.06761000  0.25064300  0.89036800  1
  C  C64  1  0.12588800  0.05934400  0.95754500  1
  C  C65  1  0.56900900  0.29607500  0.38848600  1
  C  C66  1  0.60218900  0.18539600  0.49047500  1
  C  C67  1  0.43239000  0.75064200  0.60963200  1
  C  C68  1  0.37411200  0.55934300  0.54245600  1
  N  N1  1  0.91844000  0.84635800  0.04739700  1
  N  N2  1  0.08136600  0.18659300  0.95282800  1
  N  N3  1  0.58156000  0.34635900  0.45260300  1
  N  N4  1  0.41863500  0.68659500  0.54717300  1
  O  O1  1  0.80392600  0.64906400  0.70312200  1
  O  O2  1  0.19608300  0.38386000  0.29695700  1
  O  O3  1  0.69607400  0.14906200  0.79687800  1
  O  O4  1  0.30391700  0.88386200  0.20304300  1
  O  O5  1  0.69307900  0.30165600  0.67990600  1
  O  O6  1  0.30699900  0.73127000  0.32002900  1
  O  O7  1  0.80692100  0.80165400  0.82009400  1
  O  O8  1  0.19300100  0.23127200  0.17997100  1
  O  O9  1  0.79888200  0.30170300  0.68486700  1
  O  O10  1  0.20120500  0.73123600  0.31518000  1
  O  O11  1  0.70111700  0.80170400  0.81513300  1
  O  O12  1  0.29879500  0.23123500  0.18482000  1
  O  O13  1  0.80905400  0.14909900  0.80212400  1
  O  O14  1  0.19094500  0.88380100  0.19792000  1
  O  O15  1  0.69094600  0.64909700  0.69787600  1
  O  O16  1  0.30905500  0.38380300  0.30208100  1
  O  O17  1  0.75262200  0.46978900  0.78752800  1
  O  O18  1  0.24731600  0.56313700  0.21249100  1
  O  O19  1  0.74737800  0.96978900  0.71247200  1
  O  O20  1  0.25268400  0.06313700  0.28751000  1
