# generated using pymatgen
data_ZnH10C16NO5
_symmetry_space_group_name_H-M   'P 1'
_cell_length_a   11.98513900
_cell_length_b   13.09308500
_cell_length_c   14.53236500
_cell_angle_alpha   89.99256900
_cell_angle_beta   85.51298600
_cell_angle_gamma   91.20067600
_symmetry_Int_Tables_number   1
_chemical_formula_structural   ZnH10C16NO5
_chemical_formula_sum   'Zn2 H20 C32 N2 O10'
_cell_volume   2272.96209249
_cell_formula_units_Z   2
loop_
 _symmetry_equiv_pos_site_id
 _symmetry_equiv_pos_as_xyz
  1  'x, y, z'
loop_
 _atom_site_type_symbol
 _atom_site_label
 _atom_site_symmetry_multiplicity
 _atom_site_fract_x
 _atom_site_fract_y
 _atom_site_fract_z
 _atom_site_occupancy
  Zn  Zn1  1  0.38448200  0.49259100  0.50562500  1
  Zn  Zn2  1  0.63887900  0.47870400  0.49346200  1
  H  H1  1  0.65919300  0.14741200  0.47922800  1
  H  H2  1  0.36369700  0.82395200  0.51897500  1
  H  H3  1  0.30400600  0.17397900  0.52671400  1
  H  H4  1  0.71840000  0.79785500  0.46767000  1
  H  H5  1  0.73908700  0.98239900  0.46633800  1
  H  H6  1  0.28338100  0.98920500  0.52920800  1
  H  H7  1  0.21708600  0.54090600  0.65359300  1
  H  H8  1  0.80541600  0.40753000  0.35340100  1
  H  H9  1  0.00667700  0.40896900  0.32554100  1
  H  H10  1  0.01703700  0.54192600  0.68091900  1
  H  H11  1  0.27036900  0.60557700  0.32415100  1
  H  H12  1  0.12045800  0.59880200  0.33319500  1
  H  H13  1  0.11967900  0.49681900  0.19170900  1
  H  H14  1  0.20034000  0.61399600  0.17065800  1
  H  H15  1  0.27084700  0.49433200  0.18284700  1
  H  H16  1  0.81156100  0.67197900  0.55158300  1
  H  H17  1  0.91002600  0.68109500  0.63853100  1
  H  H18  1  0.75480200  0.67766500  0.76162800  1
  H  H19  1  0.74916900  0.78492200  0.68373200  1
  H  H20  1  0.65494600  0.67661900  0.67452000  1
  C  C1  1  0.52766800  0.68545300  0.49715100  1
  C  C2  1  0.49551600  0.28593400  0.50149400  1
  C  C3  1  0.50647600  0.48633200  0.67966200  1
  C  C4  1  0.51719100  0.48430300  0.31942700  1
  C  C5  1  0.50542700  0.48619300  0.77848000  1
  C  C6  1  0.51863500  0.48410700  0.22059000  1
  C  C7  1  0.50709800  0.48583200  0.86128400  1
  C  C8  1  0.51761800  0.48427400  0.13773200  1
  C  C9  1  0.51080500  0.48525100  0.95816700  1
  C  C10  1  0.51430000  0.48474600  0.04081400  1
  C  C11  1  0.48345900  0.17413700  0.50292600  1
  C  C12  1  0.53942500  0.79733000  0.49464400  1
  C  C13  1  0.65646200  0.94790900  0.47810000  1
  C  C14  1  0.36609700  0.02366600  0.51814400  1
  C  C15  1  0.64439800  0.84305200  0.47937700  1
  C  C16  1  0.37818700  0.12857400  0.51657800  1
  C  C17  1  0.44646400  0.85806400  0.50725200  1
  C  C18  1  0.57633800  0.11336800  0.49042900  1
  C  C19  1  0.45883700  0.96325500  0.50558700  1
  C  C20  1  0.56381400  0.00823700  0.49147800  1
  C  C21  1  0.97036900  0.43620700  0.39110900  1
  C  C22  1  0.05272700  0.52337400  0.61255800  1
  C  C23  1  0.85562100  0.43537200  0.40693200  1
  C  C24  1  0.16747000  0.52217100  0.59701300  1
  C  C25  1  0.86979500  0.50508300  0.55402300  1
  C  C26  1  0.15257300  0.47772000  0.44272500  1
  C  C27  1  0.98586800  0.49905400  0.54235400  1
  C  C28  1  0.03664200  0.47030200  0.45874300  1
  C  C29  1  0.19694400  0.55700900  0.30998000  1
  C  C30  1  0.19701100  0.53936200  0.20696900  1
  C  C31  1  0.82640500  0.65114600  0.62326000  1
  C  C32  1  0.74049700  0.70067300  0.69012500  1
  N  N1  1  0.21706300  0.49991300  0.51305300  1
  N  N2  1  0.80618400  0.47183600  0.48634800  1
  O  O1  1  0.42686800  0.64330900  0.50307600  1
  O  O2  1  0.59665200  0.32792600  0.49565600  1
  O  O3  1  0.61926500  0.63197400  0.49290100  1
  O  O4  1  0.40368200  0.33928400  0.50619000  1
  O  O5  1  0.41106000  0.49181300  0.64165200  1
  O  O6  1  0.61261000  0.47918300  0.35740400  1
  O  O7  1  0.60353100  0.48057700  0.63203500  1
  O  O8  1  0.42003200  0.48973400  0.36708100  1
  O  O9  1  0.20088300  0.46257000  0.35540600  1
  O  O10  1  0.82013400  0.54474200  0.63408700  1
