# generated using pymatgen
data_Fe2H23C46NO16
_symmetry_space_group_name_H-M   'P 1'
_cell_length_a   15.38407000
_cell_length_b   17.01307800
_cell_length_c   11.82828600
_cell_angle_alpha   71.78710400
_cell_angle_beta   101.17141500
_cell_angle_gamma   109.29186200
_symmetry_Int_Tables_number   1
_chemical_formula_structural   Fe2H23C46NO16
_chemical_formula_sum   'Fe2 H23 C46 N1 O16'
_cell_volume   2761.42658298
_cell_formula_units_Z   1
loop_
 _symmetry_equiv_pos_site_id
 _symmetry_equiv_pos_as_xyz
  1  'x, y, z'
loop_
 _atom_site_type_symbol
 _atom_site_label
 _atom_site_symmetry_multiplicity
 _atom_site_fract_x
 _atom_site_fract_y
 _atom_site_fract_z
 _atom_site_occupancy
  Fe  Fe1  1  0.53081600  0.01438300  0.75514700  1
  Fe  Fe2  1  0.53273400  0.01297900  0.26046000  1
  H  H1  1  0.81634700  0.01450000  0.29018000  1
  H  H2  1  0.96434200  0.00746900  0.25860500  1
  H  H3  1  0.85830200  0.98473800  0.90622800  1
  H  H4  1  0.01358300  0.06177500  0.88896300  1
  H  H5  1  0.09056200  0.00117900  0.77150400  1
  H  H6  1  0.24077700  0.00198100  0.73170400  1
  H  H7  1  0.20684400  0.04196400  0.11204000  1
  H  H8  1  0.53415100  0.74444700  0.41867200  1
  H  H9  1  0.50911200  0.57658400  0.77219500  1
  H  H10  1  0.50727400  0.69367800  0.84386600  1
  H  H11  1  0.55419700  0.45110300  0.24359000  1
  H  H12  1  0.55681200  0.33437100  0.17179500  1
  H  H13  1  0.52820800  0.28270000  0.59671000  1
  H  H14  1  0.42106400  0.48365200  0.65170900  1
  H  H15  1  0.42995600  0.36692500  0.58296400  1
  H  H16  1  0.64177200  0.54372400  0.36411900  1
  H  H17  1  0.63282700  0.66042100  0.43279000  1
  H  H18  1  0.08101200  0.95620100  0.23115500  1
  H  H19  1  0.02697800  0.83856900  0.38655300  1
  H  H20  1  0.92455600  0.69211200  0.45408500  1
  H  H21  1  0.83074100  0.61413700  0.30771300  1
  H  H22  1  0.84053100  0.68303500  0.09254200  1
  H  H23  1  0.94303600  0.82878200  0.02302200  1
  C  C1  1  0.82540700  0.00982200  0.20438400  1
  C  C2  1  0.90879100  0.00450000  0.18710700  1
  C  C3  1  0.92082300  0.99479100  0.08029500  1
  C  C4  1  0.84879300  0.99281100  0.98953100  1
  C  C5  1  0.76390500  0.99762700  0.00605600  1
  C  C6  1  0.75200100  0.00393000  0.11657700  1
  C  C7  1  0.00923300  0.98428300  0.06626100  1
  C  C8  1  0.04869400  0.02417700  0.96377500  1
  C  C9  1  0.14871000  0.00810300  0.83929300  1
  C  C10  1  0.23327800  0.00775100  0.81751300  1
  C  C11  1  0.30923900  0.01910900  0.90132700  1
  C  C12  1  0.29923300  0.02784900  0.01114900  1
  C  C13  1  0.21406900  0.02970800  0.03076600  1
  C  C14  1  0.13836000  0.01842300  0.94627300  1
  C  C15  1  0.51823800  0.14125000  0.54934400  1
  C  C16  1  0.39899600  0.02893700  0.86544900  1
  C  C17  1  0.69105700  0.99895200  0.90401100  1
  C  C18  1  0.52259500  0.85797100  0.72362500  1
  C  C19  1  0.54166500  0.17009600  0.29159800  1
  C  C20  1  0.37376800  0.03029900  0.11082000  1
  C  C21  1  0.66252100  0.99735700  0.14927800  1
  C  C22  1  0.54482000  0.88612000  0.46592300  1
  C  C23  1  0.53040800  0.80144000  0.55304100  1
  C  C24  1  0.52853500  0.73300600  0.51246700  1
  C  C25  1  0.52154400  0.65181000  0.58992500  1
  C  C26  1  0.51317900  0.63893000  0.70890100  1
  C  C27  1  0.51338500  0.70641300  0.74994400  1
  C  C28  1  0.52278900  0.78858600  0.67351600  1
  C  C29  1  0.47068500  0.49747800  0.58964400  1
  C  C30  1  0.47595700  0.43090700  0.55065700  1
  C  C31  1  0.53678800  0.44649700  0.46863500  1
  C  C32  1  0.59211400  0.52987500  0.42613700  1
  C  C33  1  0.58682400  0.59643900  0.46509300  1
  C  C34  1  0.52598700  0.58085800  0.54708800  1
  C  C35  1  0.55005900  0.38870900  0.30678100  1
  C  C36  1  0.55029700  0.32142500  0.26564400  1
  C  C37  1  0.54088200  0.23919700  0.34187300  1
  C  C38  1  0.53261900  0.22602200  0.46228900  1
  C  C39  1  0.53414200  0.29431200  0.50296700  1
  C  C40  1  0.54128300  0.37560100  0.42569200  1
  C  C41  1  0.99060400  0.84492700  0.20002200  1
  C  C42  1  0.98594300  0.80529800  0.32099800  1
  C  C43  1  0.92832600  0.72268800  0.35944500  1
  C  C44  1  0.87572500  0.67897100  0.27744000  1
  C  C45  1  0.88109700  0.71768600  0.15683100  1
  C  C46  1  0.93854600  0.80033500  0.11795900  1
  N  N1  1  0.05075800  0.92923300  0.16123300  1
  O  O1  1  0.57760900  0.12989600  0.64463800  1
  O  O2  1  0.46801900  0.09851000  0.87094000  1
  O  O3  1  0.44022200  0.08030500  0.54049600  1
  O  O4  1  0.40682400  0.97468600  0.81244500  1
  O  O5  1  0.61277600  0.01230800  0.90964000  1
  O  O6  1  0.70684000  0.99193200  0.80301300  1
  O  O7  1  0.52949200  0.93711700  0.65650300  1
  O  O8  1  0.51542500  0.84045000  0.83821500  1
  O  O9  1  0.53453200  0.09090100  0.35856800  1
  O  O10  1  0.54923300  0.18782200  0.17708000  1
  O  O11  1  0.45103300  0.01516700  0.10566900  1
  O  O12  1  0.35912200  0.03907900  0.21124300  1
  O  O13  1  0.62329200  0.94670300  0.47395700  1
  O  O14  1  0.65677900  0.05162500  0.20372300  1
  O  O15  1  0.48494300  0.89775600  0.37128700  1
  O  O16  1  0.59214100  0.92885900  0.14328500  1
