# generated using pymatgen
data_Fe2H20C47O16
_symmetry_space_group_name_H-M   'P 1'
_cell_length_a   14.69095200
_cell_length_b   9.38168500
_cell_length_c   15.26348100
_cell_angle_alpha   94.26589600
_cell_angle_beta   91.75399800
_cell_angle_gamma   113.04142900
_symmetry_Int_Tables_number   1
_chemical_formula_structural   Fe2H20C47O16
_chemical_formula_sum   'Fe2 H20 C47 O16'
_cell_volume   1926.41795574
_cell_formula_units_Z   1
loop_
 _symmetry_equiv_pos_site_id
 _symmetry_equiv_pos_as_xyz
  1  'x, y, z'
loop_
 _atom_site_type_symbol
 _atom_site_label
 _atom_site_symmetry_multiplicity
 _atom_site_fract_x
 _atom_site_fract_y
 _atom_site_fract_z
 _atom_site_occupancy
  Fe  Fe1  1  0.50486200  0.07683900  0.08578700  1
  Fe  Fe2  1  0.46557300  0.95978700  0.75758500  1
  H  H1  1  0.96598300  0.84779000  0.87058700  1
  H  H2  1  0.96268200  0.06621700  0.82701500  1
  H  H3  1  0.79911500  0.00967300  0.76125200  1
  H  H4  1  0.26424900  0.16919400  0.11917300  1
  H  H5  1  0.14525400  0.23868400  0.19382400  1
  H  H6  1  0.98899800  0.24865200  0.20032100  1
  H  H7  1  0.82828500  0.20078100  0.13614800  1
  H  H8  1  0.50257300  0.53530700  0.11602300  1
  H  H9  1  0.47462100  0.83261700  0.32894100  1
  H  H10  1  0.44919900  0.48728800  0.72561100  1
  H  H11  1  0.47420700  0.18921000  0.51179500  1
  H  H12  1  0.49089400  0.26813300  0.37051900  1
  H  H13  1  0.45985400  0.75503200  0.47089400  1
  H  H14  1  0.15194300  0.63587200  0.89492100  1
  H  H15  1  0.22783200  0.59885800  0.81147500  1
  H  H16  1  0.11227400  0.44895400  0.83527400  1
  H  H17  1  0.08355900  0.42225800  0.67287000  1
  H  H18  1  0.98456900  0.47569600  0.55753600  1
  H  H19  1  0.93987500  0.70182800  0.57923200  1
  H  H20  1  0.99791500  0.87816700  0.71434700  1
  C  C1  1  0.20898900  0.92499900  0.87862500  1
  C  C2  1  0.11005600  0.86252000  0.84895500  1
  C  C3  1  0.04329000  0.90876600  0.89160800  1
  C  C4  1  0.90401100  0.05529400  0.87014900  1
  C  C5  1  0.23640000  0.01556900  0.95873000  1
  C  C6  1  0.16857500  0.06148100  0.00130000  1
  C  C7  1  0.07395500  0.02137700  0.96279400  1
  C  C8  1  0.00925600  0.08066300  0.00248200  1
  C  C9  1  0.81245700  0.03138500  0.83197800  1
  C  C10  1  0.73695900  0.02935000  0.88351600  1
  C  C11  1  0.92032100  0.07216900  0.96107900  1
  C  C12  1  0.84974200  0.09763200  0.01120900  1
  C  C13  1  0.75588000  0.06737600  0.97323800  1
  C  C14  1  0.19391700  0.14252500  0.08401500  1
  C  C15  1  0.12578400  0.18155100  0.12774400  1
  C  C16  1  0.03429800  0.15095400  0.08769100  1
  C  C17  1  0.96850400  0.19285600  0.13400700  1
  C  C18  1  0.87552000  0.16118200  0.09759600  1
  C  C19  1  0.67473300  0.06466500  0.02769900  1
  C  C20  1  0.49120100  0.81050400  0.15488800  1
  C  C21  1  0.33731600  0.06697900  0.99807900  1
  C  C22  1  0.49028700  0.30039500  0.20412800  1
  C  C23  1  0.46881400  0.72744800  0.63871400  1
  C  C24  1  0.63641300  0.97656700  0.84315700  1
  C  C25  1  0.45702400  0.20978800  0.68556600  1
  C  C26  1  0.28398500  0.90726500  0.82157700  1
  C  C27  1  0.49232400  0.44971100  0.24218100  1
  C  C28  1  0.49678100  0.55977900  0.18544200  1
  C  C29  1  0.48953200  0.69674800  0.21607400  1
  C  C30  1  0.48011000  0.72536700  0.30448900  1
  C  C31  1  0.47775500  0.61755700  0.36211800  1
  C  C32  1  0.48370000  0.47932500  0.33151100  1
  C  C33  1  0.46912100  0.64937900  0.45054900  1
  C  C34  1  0.46850200  0.54483800  0.51021900  1
  C  C35  1  0.47338300  0.40591300  0.47936500  1
  C  C36  1  0.48256100  0.37448800  0.39105500  1
  C  C37  1  0.46120000  0.57507200  0.59983300  1
  C  C38  1  0.45400700  0.46283400  0.65601500  1
  C  C39  1  0.45903500  0.32438300  0.62481300  1
  C  C40  1  0.46959000  0.29694200  0.53657900  1
  C  C41  1  0.07422200  0.75064600  0.77068000  1
  C  C42  1  0.09742900  0.62051500  0.75930800  1
  C  C43  1  0.15113600  0.57548900  0.82967600  1
  C  C44  1  0.06563700  0.52345200  0.68218600  1
  C  C45  1  0.00953300  0.55274200  0.61750800  1
  C  C46  1  0.98423900  0.67905900  0.62978300  1
  C  C47  1  0.01633000  0.77737200  0.70615200  1
  O  O1  1  0.60389700  0.10305100  0.99677300  1
  O  O2  1  0.49163900  0.77728800  0.06988300  1
  O  O3  1  0.66901000  0.01378100  0.10592000  1
  O  O4  1  0.49513900  0.94784100  0.18476300  1
  O  O5  1  0.37069800  0.96437400  0.02301000  1
  O  O6  1  0.39198400  0.21612400  0.01476000  1
  O  O7  1  0.54508300  0.29695500  0.13825300  1
  O  O8  1  0.42193100  0.16994500  0.22493500  1
  O  O9  1  0.42154700  0.73657000  0.70920500  1
  O  O10  1  0.53530400  0.85510900  0.61287200  1
  O  O11  1  0.60405200  0.07556100  0.81144800  1
  O  O12  1  0.57915000  0.82774300  0.83576000  1
  O  O13  1  0.26448900  0.88054800  0.73603500  1
  O  O14  1  0.46656000  0.08125000  0.65676900  1
  O  O15  1  0.37486500  0.94123600  0.85331500  1
  O  O16  1  0.44829700  0.23692000  0.76981800  1
