# generated using pymatgen
data_ZnH17C19NO7
_symmetry_space_group_name_H-M   'P 1'
_cell_length_a   14.21440900
_cell_length_b   8.54180800
_cell_length_c   15.04158600
_cell_angle_alpha   90.00000000
_cell_angle_beta   90.96138000
_cell_angle_gamma   90.00000000
_symmetry_Int_Tables_number   1
_chemical_formula_structural   ZnH17C19NO7
_chemical_formula_sum   'Zn2 H34 C38 N2 O14'
_cell_volume   1826.04343961
_cell_formula_units_Z   2
loop_
 _symmetry_equiv_pos_site_id
 _symmetry_equiv_pos_as_xyz
  1  'x, y, z'
loop_
 _atom_site_type_symbol
 _atom_site_label
 _atom_site_symmetry_multiplicity
 _atom_site_fract_x
 _atom_site_fract_y
 _atom_site_fract_z
 _atom_site_occupancy
  Zn  Zn1  1  0.89584800  0.50252600  0.51011100  1
  Zn  Zn2  1  0.10415200  0.50252700  0.48988900  1
  H  H1  1  0.04393600  0.00292600  0.56083200  1
  H  H2  1  0.95606500  0.00292500  0.43916800  1
  H  H3  1  0.00037000  0.75278900  0.80004700  1
  H  H4  1  0.99963000  0.75278900  0.19995300  1
  H  H5  1  0.84884800  0.99541400  0.07713400  1
  H  H6  1  0.15115200  0.99546400  0.92286600  1
  H  H7  1  0.42650300  0.28730600  0.56176100  1
  H  H8  1  0.57349700  0.28730600  0.43823800  1
  H  H9  1  0.57967000  0.31552800  0.60036100  1
  H  H10  1  0.42032900  0.31552800  0.39963900  1
  H  H11  1  0.59623900  0.45036400  0.36626300  1
  H  H12  1  0.40376000  0.45036300  0.63373700  1
  H  H13  1  0.43879000  0.50675900  0.35220300  1
  H  H14  1  0.56121000  0.50675900  0.64779700  1
  H  H15  1  0.58028000  0.74065500  0.55918700  1
  H  H16  1  0.41972000  0.74065500  0.44081200  1
  H  H17  1  0.55660400  0.70835800  0.35675000  1
  H  H18  1  0.66691300  0.74604600  0.41367400  1
  H  H19  1  0.54197200  0.94266600  0.36259600  1
  H  H20  1  0.44339500  0.70835700  0.64324900  1
  H  H21  1  0.33308600  0.74604800  0.58632400  1
  H  H22  1  0.45803000  0.94266300  0.63740300  1
  H  H23  1  0.93630300  0.36450700  0.77725800  1
  H  H24  1  0.06152400  0.37205300  0.79685700  1
  H  H25  1  0.92709900  0.36156700  0.90987200  1
  H  H26  1  0.06369900  0.36450400  0.22273800  1
  H  H27  1  0.93847600  0.37205600  0.20315100  1
  H  H28  1  0.07287700  0.36159000  0.09012000  1
  H  H29  1  0.82534600  0.10302400  0.85622600  1
  H  H30  1  0.76598800  0.99528900  0.94204000  1
  H  H31  1  0.80937600  0.90682800  0.78290800  1
  H  H32  1  0.17464100  0.10307800  0.14377400  1
  H  H33  1  0.23401100  0.99536300  0.05796100  1
  H  H34  1  0.19064000  0.90688500  0.21709100  1
  C  C1  1  0.02048700  0.14228400  0.67494400  1
  C  C2  1  0.97951400  0.14228300  0.32505600  1
  C  C3  1  0.00683600  0.14483600  0.76568600  1
  C  C4  1  0.99316400  0.14483500  0.23431400  1
  C  C5  1  0.00472600  0.00246400  0.81160300  1
  C  C6  1  0.99527200  0.00246400  0.18839600  1
  C  C7  1  0.00712000  0.86266100  0.76506500  1
  C  C8  1  0.99287900  0.86266100  0.23493400  1
  C  C9  1  0.02051300  0.86315800  0.67462100  1
  C  C10  1  0.97948600  0.86315800  0.32537900  1
  C  C11  1  0.03230900  0.00272600  0.63133500  1
  C  C12  1  0.96769200  0.00272500  0.36866500  1
  C  C13  1  0.91676300  0.99386700  0.95108000  1
  C  C14  1  0.08323700  0.99389400  0.04892000  1
  C  C15  1  0.91505800  0.99380600  0.04283100  1
  C  C16  1  0.08494200  0.99383400  0.95716900  1
  C  C17  1  0.99816500  0.99445400  0.09157100  1
  C  C18  1  0.00183500  0.99445400  0.90842900  1
  C  C19  1  0.01432000  0.72102700  0.62094500  1
  C  C20  1  0.98567900  0.72102700  0.37905500  1
  C  C21  1  0.98569700  0.28391400  0.37915900  1
  C  C22  1  0.01430400  0.28391500  0.62084100  1
  C  C23  1  0.54726000  0.43202500  0.58879400  1
  C  C24  1  0.45274000  0.43202500  0.41120600  1
  C  C25  1  0.55775700  0.41271000  0.42605100  1
  C  C26  1  0.44224300  0.41271000  0.57394900  1
  C  C27  1  0.58874300  0.50695200  0.50701600  1
  C  C28  1  0.41125700  0.50695200  0.49298300  1
  C  C29  1  0.44646700  0.67529100  0.49967700  1
  C  C30  1  0.55353300  0.67529100  0.50032200  1
  C  C31  1  0.30848100  0.50447000  0.48516100  1
  C  C32  1  0.69151900  0.50446900  0.51483900  1
  C  C33  1  0.58947300  0.75793800  0.41779400  1
  C  C34  1  0.41052600  0.75793800  0.58220500  1
  C  C35  1  0.99693400  0.30272700  0.80855200  1
  C  C36  1  0.00306400  0.30272700  0.19144900  1
  C  C37  1  0.82757200  0.99580200  0.89778200  1
  C  C38  1  0.17242800  0.99585600  0.10221800  1
  N  N1  1  0.22712500  0.50293600  0.48128000  1
  N  N2  1  0.77287500  0.50293500  0.51871900  1
  O  O1  1  0.09077000  0.67190500  0.58207500  1
  O  O2  1  0.90923000  0.67190400  0.41792400  1
  O  O3  1  0.93016800  0.66593300  0.60180000  1
  O  O4  1  0.06983100  0.66593300  0.39819900  1
  O  O5  1  0.90919100  0.33319000  0.41789000  1
  O  O6  1  0.09080900  0.33319100  0.58211000  1
  O  O7  1  0.06985600  0.33897800  0.39829500  1
  O  O8  1  0.93014400  0.33897800  0.60170600  1
  O  O9  1  0.56714300  0.91663700  0.42256200  1
  O  O10  1  0.43285900  0.91663700  0.57743800  1
  O  O11  1  0.98206200  0.29308000  0.89968400  1
  O  O12  1  0.01792500  0.29308300  0.10031600  1
  O  O13  1  0.82400300  0.86445500  0.84282300  1
  O  O14  1  0.17601100  0.86450900  0.15717700  1
