# generated using pymatgen
data_ZnH19C25N3O4
_symmetry_space_group_name_H-M   'P 1'
_cell_length_a   9.08460900
_cell_length_b   13.47601600
_cell_length_c   16.16500100
_cell_angle_alpha   90.04840600
_cell_angle_beta   94.76832400
_cell_angle_gamma   90.58625100
_symmetry_Int_Tables_number   1
_chemical_formula_structural   ZnH19C25N3O4
_chemical_formula_sum   'Zn2 H38 C50 N6 O8'
_cell_volume   1972.03408333
_cell_formula_units_Z   2
loop_
 _symmetry_equiv_pos_site_id
 _symmetry_equiv_pos_as_xyz
  1  'x, y, z'
loop_
 _atom_site_type_symbol
 _atom_site_label
 _atom_site_symmetry_multiplicity
 _atom_site_fract_x
 _atom_site_fract_y
 _atom_site_fract_z
 _atom_site_occupancy
  Zn  Zn1  1  0.17698500  0.50049300  0.50117300  1
  Zn  Zn2  1  0.84807100  0.51418300  0.49574600  1
  H  H1  1  0.84417400  0.31815900  0.98316500  1
  H  H2  1  0.95827000  0.99558000  0.27603100  1
  H  H3  1  0.16998400  0.69814300  0.01307700  1
  H  H4  1  0.10661200  0.03285600  0.73000900  1
  H  H5  1  0.90466400  0.04353800  0.04124800  1
  H  H6  1  0.12038900  0.97332700  0.95617900  1
  H  H7  1  0.15400800  0.61784900  0.89335600  1
  H  H8  1  0.08788900  0.18498200  0.66938200  1
  H  H9  1  0.90577700  0.46343600  0.73318300  1
  H  H10  1  0.85416300  0.40205000  0.86853500  1
  H  H11  1  0.86739900  0.40088200  0.10344400  1
  H  H12  1  0.01566300  0.17129500  0.33491500  1
  H  H13  1  0.94869100  0.83551700  0.33144900  1
  H  H14  1  0.11531500  0.55373800  0.26318200  1
  H  H15  1  0.16354600  0.61496600  0.12754200  1
  H  H16  1  0.12566300  0.55532500  0.75208200  1
  H  H17  1  0.90067000  0.46216100  0.24553000  1
  H  H18  1  0.41231400  0.35174800  0.46786700  1
  H  H19  1  0.40454700  0.37377800  0.57748900  1
  H  H20  1  0.63698400  0.41721100  0.59955900  1
  H  H21  1  0.65910700  0.35465900  0.50195400  1
  H  H22  1  0.35351200  0.48566200  0.36884400  1
  H  H23  1  0.59709900  0.44990700  0.37775200  1
  H  H24  1  0.38456600  0.64705700  0.54646800  1
  H  H25  1  0.42359800  0.54984700  0.62301400  1
  H  H26  1  0.65535200  0.58847200  0.61081100  1
  H  H27  1  0.61607800  0.66324900  0.51853400  1
  H  H28  1  0.39011800  0.60979300  0.40798500  1
  H  H29  1  0.61762300  0.58308000  0.37950700  1
  H  H30  1  0.01287200  0.82847300  0.58091100  1
  H  H31  1  0.00695500  0.93416700  0.64331200  1
  H  H32  1  0.76787100  0.77176300  0.63745000  1
  H  H33  1  0.78033300  0.98832500  0.69809200  1
  H  H34  1  0.77428700  0.87775600  0.76161900  1
  H  H35  1  0.61860100  0.90890100  0.69105000  1
  H  H36  1  0.78098700  0.96747300  0.54075800  1
  H  H37  1  0.62154100  0.88621300  0.54282900  1
  H  H38  1  0.78442000  0.84350400  0.49778800  1
  C  C1  1  0.00313300  0.19755000  0.78998300  1
  C  C2  1  0.94019500  0.25727800  0.84450100  1
  C  C3  1  0.92308800  0.20291700  0.91486200  1
  C  C4  1  0.01673600  0.10552600  0.82677200  1
  C  C5  1  0.87831000  0.24184100  0.98454900  1
  C  C6  1  0.90293800  0.19741400  0.06729300  1
  C  C7  1  0.91926700  0.25115700  0.14003300  1
  C  C8  1  0.95554800  0.18699500  0.20329400  1
  C  C9  1  0.95697500  0.09297200  0.16707900  1
  C  C10  1  0.97592200  0.99760200  0.21064000  1
  C  C11  1  0.01574900  0.91456100  0.17299400  1
  C  C12  1  0.02997200  0.82250400  0.21006500  1
  C  C13  1  0.08535700  0.76134500  0.15366800  1
  C  C14  1  0.09802800  0.81482000  0.08235000  1
  C  C15  1  0.13805000  0.77483700  0.01177700  1
  C  C16  1  0.11668400  0.81992300  0.92897700  1
  C  C17  1  0.10225800  0.76725600  0.85562200  1
  C  C18  1  0.06829000  0.83213200  0.79190300  1
  C  C19  1  0.07035200  0.92641900  0.82978500  1
  C  C20  1  0.06493400  0.02453800  0.79001800  1
  C  C21  1  0.12124900  0.66783600  0.84324100  1
  C  C22  1  0.10389500  0.63251000  0.76339700  1
  C  C23  1  0.05499100  0.69282800  0.69766400  1
  C  C24  1  0.03527800  0.79498100  0.71058900  1
  C  C25  1  0.04019400  0.23202500  0.71398300  1
  C  C26  1  0.00749800  0.32989300  0.69530400  1
  C  C27  1  0.93789100  0.38882500  0.75041400  1
  C  C28  1  0.90684400  0.35406800  0.82669700  1
  C  C29  1  0.90103500  0.35051800  0.15316900  1
  C  C30  1  0.92172900  0.38509700  0.23342900  1
  C  C31  1  0.96917900  0.32343800  0.29882000  1
  C  C32  1  0.98426100  0.22145700  0.28451800  1
  C  C33  1  0.99344700  0.78779300  0.28624200  1
  C  C34  1  0.01942200  0.68828600  0.30310500  1
  C  C35  1  0.08566400  0.62903100  0.24690800  1
  C  C36  1  0.11550700  0.66388800  0.17053100  1
  C  C37  1  0.03529100  0.64216400  0.61630900  1
  C  C38  1  0.01877800  0.37261100  0.61398200  1
  C  C39  1  0.98946000  0.37207700  0.38092200  1
  C  C40  1  0.00677900  0.64333300  0.38366600  1
  C  C41  1  0.44087600  0.40493500  0.51924400  1
  C  C42  1  0.60727200  0.41815700  0.53164200  1
  C  C43  1  0.41356400  0.53015500  0.41871800  1
  C  C44  1  0.43644600  0.57386500  0.55835100  1
  C  C45  1  0.57811100  0.51819200  0.41344500  1
  C  C46  1  0.59903000  0.58987700  0.54747800  1
  C  C47  1  0.97177200  0.85633400  0.63911900  1
  C  C48  1  0.80368900  0.85008500  0.63195000  1
  C  C49  1  0.74095300  0.91028000  0.70008500  1
  C  C50  1  0.74398600  0.88950300  0.54795100  1
  N  N1  1  0.96908600  0.10899200  0.90412100  1
  N  N2  1  0.92371100  0.10071900  0.08409300  1
  N  N3  1  0.05522300  0.90933500  0.09384900  1
  N  N4  1  0.09972800  0.91679600  0.91285300  1
  N  N5  1  0.37104600  0.49978000  0.50015500  1
  N  N6  1  0.65402400  0.51197400  0.49629500  1
  O  O1  1  0.90193300  0.61468400  0.58625800  1
  O  O2  1  0.15425400  0.60419600  0.58899600  1
  O  O3  1  0.14880600  0.39886300  0.59024800  1
  O  O4  1  0.89484600  0.40900700  0.58169000  1
  O  O5  1  0.12350500  0.39989200  0.41061200  1
  O  O6  1  0.87011400  0.40960300  0.40857400  1
  O  O7  1  0.87669500  0.61573600  0.40659700  1
  O  O8  1  0.13019700  0.60623700  0.41574800  1
