# generated using pymatgen
data_CuH7C17NO6
_symmetry_space_group_name_H-M   'P 1'
_cell_length_a   12.98198400
_cell_length_b   16.05556300
_cell_length_c   14.61625300
_cell_angle_alpha   90.00928200
_cell_angle_beta   95.52653600
_cell_angle_gamma   89.99666400
_symmetry_Int_Tables_number   1
_chemical_formula_structural   CuH7C17NO6
_chemical_formula_sum   'Cu2 H14 C34 N2 O12'
_cell_volume   3032.34923545
_cell_formula_units_Z   2
loop_
 _symmetry_equiv_pos_site_id
 _symmetry_equiv_pos_as_xyz
  1  'x, y, z'
loop_
 _atom_site_type_symbol
 _atom_site_label
 _atom_site_symmetry_multiplicity
 _atom_site_fract_x
 _atom_site_fract_y
 _atom_site_fract_z
 _atom_site_occupancy
  Cu  Cu1  1  0.50034900  0.50072300  0.59152800  1
  Cu  Cu2  1  0.49965100  0.49927700  0.40847200  1
  H  H1  1  0.82539600  0.49465600  0.38028800  1
  H  H2  1  0.17460400  0.50534400  0.61971300  1
  H  H3  1  0.82699700  0.50718900  0.67296600  1
  H  H4  1  0.17300300  0.49281100  0.32703500  1
  H  H5  1  0.98489000  0.49195000  0.31223000  1
  H  H6  1  0.01511000  0.50805000  0.68777000  1
  H  H7  1  0.49982700  0.91614900  0.64000800  1
  H  H8  1  0.50017300  0.08385100  0.35999200  1
  H  H9  1  0.61724100  0.59236400  0.09538200  1
  H  H10  1  0.38275900  0.40763600  0.90461800  1
  H  H11  1  0.61796000  0.59359000  0.92713800  1
  H  H12  1  0.38204000  0.40641000  0.07286200  1
  H  H13  1  0.49984000  0.06297200  0.81164500  1
  H  H14  1  0.50016000  0.93702800  0.18835500  1
  C  C1  1  0.50041900  0.34014500  0.50115000  1
  C  C2  1  0.49958100  0.65985500  0.49885000  1
  C  C3  1  0.30097800  0.49957600  0.48393700  1
  C  C4  1  0.69902200  0.50042400  0.51606300  1
  C  C5  1  0.81258500  0.50084200  0.52540200  1
  C  C6  1  0.18741500  0.49915700  0.47459800  1
  C  C7  1  0.02641400  0.49490200  0.37990200  1
  C  C8  1  0.97358600  0.50509700  0.62009800  1
  C  C9  1  0.13309600  0.49540500  0.38851900  1
  C  C10  1  0.86690400  0.50459500  0.61148100  1
  C  C11  1  0.13370400  0.50240400  0.55182800  1
  C  C12  1  0.86629600  0.49759500  0.44817200  1
  C  C13  1  0.02685200  0.50187600  0.54295000  1
  C  C14  1  0.97314800  0.49812300  0.45705000  1
  C  C15  1  0.49987100  0.95397300  0.57892500  1
  C  C16  1  0.50012900  0.04602600  0.42107500  1
  C  C17  1  0.49968600  0.91385500  0.49548800  1
  C  C18  1  0.50031400  0.08614400  0.50451300  1
  C  C19  1  0.49980600  0.96006800  0.41493500  1
  C  C20  1  0.50019400  0.03993200  0.58506500  1
  C  C21  1  0.49956200  0.82430100  0.49639600  1
  C  C22  1  0.50043800  0.17569900  0.50360500  1
  C  C23  1  0.50047600  0.25077600  0.50222300  1
  C  C24  1  0.49952400  0.74922400  0.49777800  1
  C  C25  1  0.56612100  0.55247200  0.95915200  1
  C  C26  1  0.43387900  0.44752800  0.04084800  1
  C  C27  1  0.50038300  0.50070200  0.90569100  1
  C  C28  1  0.49961700  0.49929800  0.09430900  1
  C  C29  1  0.43427300  0.44823000  0.94654100  1
  C  C30  1  0.56572700  0.55177000  0.05346000  1
  C  C31  1  0.50080000  0.50129800  0.80755300  1
  C  C32  1  0.49920000  0.49870200  0.19244700  1
  C  C33  1  0.50039500  0.07822100  0.67721500  1
  C  C34  1  0.49960500  0.92177900  0.32278600  1
  N  N1  1  0.49902100  0.49843900  0.27158900  1
  N  N2  1  0.50097900  0.50156100  0.72841100  1
  O  O1  1  0.49700200  0.37961600  0.57914900  1
  O  O2  1  0.50299800  0.62038300  0.42085200  1
  O  O3  1  0.50371300  0.37830700  0.42235300  1
  O  O4  1  0.49628700  0.62169200  0.57764700  1
  O  O5  1  0.34987300  0.50326200  0.56653600  1
  O  O6  1  0.65012700  0.49673700  0.43346400  1
  O  O7  1  0.34935100  0.49617600  0.40935600  1
  O  O8  1  0.65064900  0.50382400  0.59064400  1
  O  O9  1  0.50141800  0.15354600  0.68750900  1
  O  O10  1  0.49952100  0.02753700  0.75435600  1
  O  O11  1  0.49858200  0.84645400  0.31249100  1
  O  O12  1  0.50047900  0.97246200  0.24564400  1
