# generated using pymatgen
data_CuH4C18(N3O7)2
_symmetry_space_group_name_H-M   'P 1'
_cell_length_a   14.01795500
_cell_length_b   16.23798700
_cell_length_c   17.82671300
_cell_angle_alpha   89.97571600
_cell_angle_beta   89.99206300
_cell_angle_gamma   85.26904700
_symmetry_Int_Tables_number   1
_chemical_formula_structural   CuH4C18(N3O7)2
_chemical_formula_sum   'Cu2 H8 C36 N12 O28'
_cell_volume   4043.95117929
_cell_formula_units_Z   2
loop_
 _symmetry_equiv_pos_site_id
 _symmetry_equiv_pos_as_xyz
  1  'x, y, z'
loop_
 _atom_site_type_symbol
 _atom_site_label
 _atom_site_symmetry_multiplicity
 _atom_site_fract_x
 _atom_site_fract_y
 _atom_site_fract_z
 _atom_site_occupancy
  Cu  Cu1  1  0.50207200  0.41791300  0.49970400  1
  Cu  Cu2  1  0.49938000  0.58251100  0.49897100  1
  H  H1  1  0.01260500  0.41598300  0.46096500  1
  H  H2  1  0.98851300  0.58488500  0.53773400  1
  H  H3  1  0.39020800  0.14270100  0.42437200  1
  H  H4  1  0.62369200  0.85559300  0.56121000  1
  H  H5  1  0.38933900  0.29443600  0.42355200  1
  H  H6  1  0.62265400  0.70762200  0.56270900  1
  H  H7  1  0.61880500  0.28200500  0.57461200  1
  H  H8  1  0.37407100  0.71883100  0.43104800  1
  C  C1  1  0.50550500  0.49989100  0.64455500  1
  C  C2  1  0.49612000  0.50048600  0.35449900  1
  C  C3  1  0.68426400  0.48942900  0.49576700  1
  C  C4  1  0.31700500  0.51082100  0.50382500  1
  C  C5  1  0.21451300  0.51666100  0.50702800  1
  C  C6  1  0.78689700  0.48330300  0.49262200  1
  C  C7  1  0.02546800  0.53020200  0.51300600  1
  C  C8  1  0.97580800  0.47067900  0.48563300  1
  C  C9  1  0.87304000  0.47782600  0.48960900  1
  C  C10  1  0.12834700  0.52236000  0.50976600  1
  C  C11  1  0.47649000  0.42999500  0.15290500  1
  C  C12  1  0.51472700  0.57154100  0.84660100  1
  C  C13  1  0.47723000  0.42933300  0.23070800  1
  C  C14  1  0.51882400  0.57148100  0.76884100  1
  C  C15  1  0.49524200  0.50044000  0.27085000  1
  C  C16  1  0.50470800  0.49968100  0.72831400  1
  C  C17  1  0.51449500  0.57113900  0.23058300  1
  C  C18  1  0.48927300  0.42771100  0.76829900  1
  C  C19  1  0.51691000  0.57000400  0.15291800  1
  C  C20  1  0.48998000  0.42774900  0.84607300  1
  C  C21  1  0.49728800  0.49987400  0.11421000  1
  C  C22  1  0.50137700  0.49965800  0.88496800  1
  C  C23  1  0.49886600  0.49961000  0.03342400  1
  C  C24  1  0.50004300  0.49953700  0.96571300  1
  C  C25  1  0.43901000  0.17282800  0.46003900  1
  C  C26  1  0.56742700  0.82736800  0.53201100  1
  C  C27  1  0.43939100  0.25770500  0.45910400  1
  C  C28  1  0.56641400  0.74321200  0.53363300  1
  C  C29  1  0.56820000  0.24988700  0.54301600  1
  C  C30  1  0.42693100  0.75068200  0.46145500  1
  C  C31  1  0.56874900  0.16464100  0.54726700  1
  C  C32  1  0.42512000  0.83627700  0.45855100  1
  C  C33  1  0.50284700  0.12564700  0.50455900  1
  C  C34  1  0.49709100  0.87499800  0.49472000  1
  C  C35  1  0.50160300  0.03726800  0.50149900  1
  C  C36  1  0.49941000  0.96326700  0.49817100  1
  N  N1  1  0.50478300  0.29460300  0.49968800  1
  N  N2  1  0.49598700  0.70588500  0.49974100  1
  N  N3  1  0.45492100  0.35798900  0.11231900  1
  N  N4  1  0.52715400  0.64545100  0.88764400  1
  N  N5  1  0.45343000  0.35637600  0.26837300  1
  N  N6  1  0.53767000  0.64599000  0.73144500  1
  N  N7  1  0.53944900  0.64380000  0.26807400  1
  N  N8  1  0.47390700  0.35255300  0.73048100  1
  N  N9  1  0.54038200  0.64161300  0.11254900  1
  N  N10  1  0.47607600  0.35369100  0.88645800  1
  N  N11  1  0.63766000  0.11958500  0.59459100  1
  N  N12  1  0.34997800  0.88211200  0.41816600  1
  O  O1  1  0.50952300  0.42921200  0.60841100  1
  O  O2  1  0.49220400  0.57122200  0.39050700  1
  O  O3  1  0.49933700  0.57061700  0.60847500  1
  O  O4  1  0.50147100  0.42984600  0.39050600  1
  O  O5  1  0.64114800  0.42119600  0.49908200  1
  O  O6  1  0.35998300  0.57913500  0.49974700  1
  O  O7  1  0.63808300  0.56281600  0.49397100  1
  O  O8  1  0.36310600  0.43750200  0.50545500  1
  O  O9  1  0.38710200  0.36268700  0.06233700  1
  O  O10  1  0.49973900  0.28661000  0.12747400  1
  O  O11  1  0.46227900  0.67364000  0.93537600  1
  O  O12  1  0.60000000  0.68786300  0.87406100  1
  O  O13  1  0.36638600  0.33466500  0.26388600  1
  O  O14  1  0.52180300  0.30195800  0.28888700  1
  O  O15  1  0.47793600  0.71121600  0.73830200  1
  O  O16  1  0.62246600  0.65335100  0.70391800  1
  O  O17  1  0.62760800  0.66313800  0.26594100  1
  O  O18  1  0.47204100  0.69963900  0.28733700  1
  O  O19  1  0.53371000  0.28783300  0.74020700  1
  O  O20  1  0.39179400  0.34429000  0.69856800  1
  O  O21  1  0.49559300  0.71329400  0.12657200  1
  O  O22  1  0.60982300  0.63626200  0.06395200  1
  O  O23  1  0.40376200  0.31136100  0.87095000  1
  O  O24  1  0.53840700  0.32587300  0.93630900  1
  O  O25  1  0.71133700  0.15534300  0.61894300  1
  O  O26  1  0.62212500  0.04732600  0.62123400  1
  O  O27  1  0.27206400  0.84750800  0.40229900  1
  O  O28  1  0.36207100  0.95451200  0.39020800  1
