# generated using pymatgen
data_CuH15C36N3O8F3
_symmetry_space_group_name_H-M   'P 1'
_cell_length_a   23.33870000
_cell_length_b   10.95766600
_cell_length_c   21.87392000
_cell_angle_alpha   89.98390100
_cell_angle_beta   89.99586400
_cell_angle_gamma   90.01434600
_symmetry_Int_Tables_number   1
_chemical_formula_structural   CuH15C36N3O8F3
_chemical_formula_sum   'Cu2 H30 C72 N6 O16 F6'
_cell_volume   5593.98513103
_cell_formula_units_Z   2
loop_
 _symmetry_equiv_pos_site_id
 _symmetry_equiv_pos_as_xyz
  1  'x, y, z'
loop_
 _atom_site_type_symbol
 _atom_site_label
 _atom_site_symmetry_multiplicity
 _atom_site_fract_x
 _atom_site_fract_y
 _atom_site_fract_z
 _atom_site_occupancy
  Cu  Cu1  1  0.50008200  0.49868100  0.56106600  1
  Cu  Cu2  1  0.49993400  0.50134500  0.43895000  1
  H  H1  1  0.95201800  0.23125900  0.42568500  1
  H  H2  1  0.04799400  0.76864100  0.57429900  1
  H  H3  1  0.05541000  0.23811200  0.42550600  1
  H  H4  1  0.94459800  0.76178300  0.57448800  1
  H  H5  1  0.21545400  0.51863600  0.40262300  1
  H  H6  1  0.78456100  0.48124100  0.59736200  1
  H  H7  1  0.31962000  0.51843600  0.40251100  1
  H  H8  1  0.68039800  0.48145200  0.59747600  1
  H  H9  1  0.31917000  0.50872900  0.59827800  1
  H  H10  1  0.68085100  0.49115000  0.40170400  1
  H  H11  1  0.21494800  0.50780300  0.59755400  1
  H  H12  1  0.78508200  0.49206400  0.40243600  1
  H  H13  1  0.32017500  0.22162600  0.29030800  1
  H  H14  1  0.67996400  0.77890100  0.70970700  1
  H  H15  1  0.30062300  0.24932400  0.39985800  1
  H  H16  1  0.69948800  0.75103200  0.60015500  1
  H  H17  1  0.47898500  0.05090300  0.33329100  1
  H  H18  1  0.52104900  0.94913100  0.66666667  1
  H  H19  1  0.37597300  0.65173300  0.94554800  1
  H  H20  1  0.62396900  0.34775100  0.05444500  1
  H  H21  1  0.37669500  0.65216100  0.05591600  1
  H  H22  1  0.62324300  0.34733000  0.94408100  1
  H  H23  1  0.57839100  0.60406400  0.23014800  1
  H  H24  1  0.42171100  0.39568400  0.76987700  1
  H  H25  1  0.57655900  0.60467200  0.34195800  1
  H  H26  1  0.42351600  0.39514000  0.65806400  1
  H  H27  1  0.42453300  0.39879300  0.34168000  1
  H  H28  1  0.57542300  0.60144800  0.65833600  1
  H  H29  1  0.42426100  0.39499700  0.22985200  1
  H  H30  1  0.57573100  0.60511900  0.77017400  1
  C  C1  1  0.49530300  0.26424800  0.49845400  1
  C  C2  1  0.50470800  0.73576600  0.50156400  1
  C  C3  1  0.38990600  0.50982500  0.50046300  1
  C  C4  1  0.61010800  0.49017700  0.49954900  1
  C  C5  1  0.88021200  0.58548400  0.52633900  1
  C  C6  1  0.11979900  0.41439900  0.47366200  1
  C  C7  1  0.88278700  0.39885500  0.47396500  1
  C  C8  1  0.11722400  0.60103800  0.52602600  1
  C  C9  1  0.94206100  0.40146700  0.47348700  1
  C  C10  1  0.05795000  0.59841000  0.52651800  1
  C  C11  1  0.97045100  0.49795900  0.50006800  1
  C  C12  1  0.02956200  0.50189900  0.49995200  1
  C  C13  1  0.93943600  0.59053900  0.52673500  1
  C  C14  1  0.06057600  0.40933200  0.47327400  1
  C  C15  1  0.97314000  0.30819100  0.44682400  1
  C  C16  1  0.02687000  0.69169200  0.55317600  1
  C  C17  1  0.03216700  0.31211000  0.44672100  1
  C  C18  1  0.96784200  0.68776900  0.55328400  1
  C  C19  1  0.23821700  0.51614600  0.44565400  1
  C  C20  1  0.76180000  0.48376600  0.55433100  1
  C  C21  1  0.29728700  0.51641900  0.44577000  1
  C  C22  1  0.70273000  0.48352900  0.55421700  1
  C  C23  1  0.32706700  0.51329800  0.50042600  1
  C  C24  1  0.67294900  0.48667100  0.49956800  1
  C  C25  1  0.29702200  0.51151400  0.55492700  1
  C  C26  1  0.70299300  0.48842500  0.44506200  1
  C  C27  1  0.23793000  0.51135200  0.55467600  1
  C  C28  1  0.76208700  0.48855700  0.44531100  1
  C  C29  1  0.20828200  0.51294900  0.50005900  1
  C  C30  1  0.79173200  0.48697500  0.49992600  1
  C  C31  1  0.34023300  0.20735100  0.38529100  1
  C  C32  1  0.65985900  0.79294000  0.61471900  1
  C  C33  1  0.37938400  0.16799300  0.42821700  1
  C  C34  1  0.62066300  0.83211200  0.57179600  1
  C  C35  1  0.42963500  0.11231500  0.40974200  1
  C  C36  1  0.57039500  0.88772300  0.59026800  1
  C  C37  1  0.44023700  0.09613400  0.34812500  1
  C  C38  1  0.55981000  0.90396800  0.65188400  1
  C  C39  1  0.40113100  0.13595200  0.30529200  1
  C  C40  1  0.59895500  0.86433200  0.69471600  1
  C  C41  1  0.35103100  0.19121700  0.32386700  1
  C  C42  1  0.64907600  0.80916200  0.67614200  1
  C  C43  1  0.47260100  0.93158600  0.45629700  1
  C  C44  1  0.52740700  0.06841800  0.54372500  1
  C  C45  1  0.50391900  0.87168800  0.50106500  1
  C  C46  1  0.49608600  0.12831300  0.49895800  1
  C  C47  1  0.53178900  0.94194900  0.54497000  1
  C  C48  1  0.46822400  0.05805700  0.45504500  1
  C  C49  1  0.54271800  0.44600600  0.87336100  1
  C  C50  1  0.45731300  0.55385500  0.12664100  1
  C  C51  1  0.45567500  0.55291600  0.87384900  1
  C  C52  1  0.54434800  0.44691300  0.12616200  1
  C  C53  1  0.45541100  0.55370000  0.93705500  1
  C  C54  1  0.54458700  0.44600700  0.06295200  1
  C  C55  1  0.49978400  0.49971200  0.96847600  1
  C  C56  1  0.50021200  0.49998700  0.03152800  1
  C  C57  1  0.54373900  0.44547500  0.93654400  1
  C  C58  1  0.45626100  0.55424500  0.06345800  1
  C  C59  1  0.41129700  0.60854600  0.96902900  1
  C  C60  1  0.58866200  0.39101300  0.03097200  1
  C  C61  1  0.41171900  0.60880900  0.03201500  1
  C  C62  1  0.58824100  0.39075800  0.96798500  1
  C  C63  1  0.54415700  0.55786700  0.25410600  1
  C  C64  1  0.45590200  0.44201600  0.74591000  1
  C  C65  1  0.54297800  0.55835000  0.31711400  1
  C  C66  1  0.45706900  0.44155900  0.68290400  1
  C  C67  1  0.45827600  0.44424700  0.31690700  1
  C  C68  1  0.54170700  0.55589000  0.68311200  1
  C  C69  1  0.45802500  0.44240500  0.25394400  1
  C  C70  1  0.54197300  0.55769200  0.74607500  1
  C  C71  1  0.50111900  0.50017700  0.22206800  1
  C  C72  1  0.49891600  0.49979600  0.77794500  1
  N  N1  1  0.85287700  0.49033400  0.50016800  1
  N  N2  1  0.14713600  0.50956100  0.49982400  1
  N  N3  1  0.49903700  0.49945500  0.84312000  1
  N  N4  1  0.50100900  0.50047200  0.15689000  1
  N  N5  1  0.49969300  0.50404400  0.34751000  1
  N  N6  1  0.50032200  0.49599200  0.65250800  1
  O  O1  1  0.49460700  0.32181400  0.55109800  1
  O  O2  1  0.50541400  0.67820600  0.44892000  1
  O  O3  1  0.49838700  0.32344700  0.44621900  1
  O  O4  1  0.50162300  0.67657300  0.55379700  1
  O  O5  1  0.41693800  0.51066900  0.55291100  1
  O  O6  1  0.58307400  0.48934200  0.44710300  1
  O  O7  1  0.41669600  0.50432600  0.44796600  1
  O  O8  1  0.58331800  0.49570700  0.55205000  1
  O  O9  1  0.84961600  0.67708600  0.55088000  1
  O  O10  1  0.15039200  0.32282400  0.44909600  1
  O  O11  1  0.85476300  0.30369000  0.44931000  1
  O  O12  1  0.14524700  0.69623900  0.55064700  1
  O  O13  1  0.58478900  0.39089300  0.84179300  1
  O  O14  1  0.41524900  0.60901300  0.15819800  1
  O  O15  1  0.41325600  0.60791700  0.84275900  1
  O  O16  1  0.58676500  0.39190100  0.15725300  1
  F  F1  1  0.41163400  0.11935900  0.24494200  1
  F  F2  1  0.58847100  0.88102900  0.75506500  1
  F  F3  1  0.44200300  0.86547900  0.41533100  1
  F  F4  1  0.55800900  0.13453500  0.58469000  1
  F  F5  1  0.36708800  0.17920800  0.48850900  1
  F  F6  1  0.63293000  0.82076400  0.51150600  1
