# generated using pymatgen
data_Cu6H84C119O24
_symmetry_space_group_name_H-M   'P 1'
_cell_length_a   18.71627800
_cell_length_b   18.61904900
_cell_length_c   18.62017500
_cell_angle_alpha   109.27790300
_cell_angle_beta   109.92972700
_cell_angle_gamma   109.29329800
_symmetry_Int_Tables_number   1
_chemical_formula_structural   Cu6H84C119O24
_chemical_formula_sum   'Cu6 H84 C119 O24'
_cell_volume   4989.49385892
_cell_formula_units_Z   1
loop_
 _symmetry_equiv_pos_site_id
 _symmetry_equiv_pos_as_xyz
  1  'x, y, z'
loop_
 _atom_site_type_symbol
 _atom_site_label
 _atom_site_symmetry_multiplicity
 _atom_site_fract_x
 _atom_site_fract_y
 _atom_site_fract_z
 _atom_site_occupancy
  Cu  Cu1  1  0.50993200  0.44385800  0.43617700  1
  Cu  Cu2  1  0.50431300  0.56064300  0.55628400  1
  Cu  Cu3  1  0.94057900  0.44717700  0.00563600  1
  Cu  Cu4  1  0.05788300  0.57365700  0.00727400  1
  Cu  Cu5  1  0.06730600  0.01646500  0.56479400  1
  Cu  Cu6  1  0.93780400  0.01493800  0.44460800  1
  H  H1  1  0.69510500  0.39388600  0.59558600  1
  H  H2  1  0.77996900  0.63690800  0.74608400  1
  H  H3  1  0.87745300  0.64191700  0.85883800  1
  H  H4  1  0.42403600  0.13501400  0.31219600  1
  H  H5  1  0.33443200  0.19716000  0.34191900  1
  H  H6  1  0.41951400  0.20408600  0.58874400  1
  H  H7  1  0.50085200  0.13276700  0.55460200  1
  H  H8  1  0.25310700  0.12765300  0.49560200  1
  H  H9  1  0.23727900  0.37471800  0.46636900  1
  H  H10  1  0.07296300  0.25233300  0.32536800  1
  H  H11  1  0.94080100  0.26556700  0.28615000  1
  H  H12  1  0.62514400  0.35967600  0.63782700  1
  H  H13  1  0.88495900  0.28828800  0.38885600  1
  H  H14  1  0.96278900  0.29899000  0.53167800  1
  H  H15  1  0.09524500  0.28705300  0.57136200  1
  H  H16  1  0.19831200  0.10881200  0.15089300  1
  H  H17  1  0.31733300  0.21264600  0.14718600  1
  H  H18  1  0.34073000  0.36110500  0.18606300  1
  H  H19  1  0.12835900  0.30359500  0.23581900  1
  H  H20  1  0.10296900  0.15416200  0.19328100  1
  H  H21  1  0.12291400  0.37615200  0.12803800  1
  H  H22  1  0.39337200  0.64562500  0.37518500  1
  H  H23  1  0.73376900  0.36223400  0.73859800  1
  H  H24  1  0.40970200  0.71564900  0.27925600  1
  H  H25  1  0.44113500  0.86403400  0.30780400  1
  H  H26  1  0.33648500  0.91276800  0.32011300  1
  H  H27  1  0.20049300  0.81261600  0.30456000  1
  H  H28  1  0.16917900  0.66448800  0.27663400  1
  H  H29  1  0.46280200  0.40732600  0.11733300  1
  H  H30  1  0.59563400  0.41424000  0.21284200  1
  H  H31  1  0.70391600  0.54504800  0.35878900  1
  H  H32  1  0.54500000  0.66261700  0.31469800  1
  H  H33  1  0.75590200  0.75425300  0.37625300  1
  H  H34  1  0.81053700  0.41123600  0.70750000  1
  H  H35  1  0.76338500  0.77268400  0.64807900  1
  H  H36  1  0.93747000  0.83798700  0.73022700  1
  H  H37  1  0.04805800  0.96379900  0.87810800  1
  H  H38  1  0.06739600  0.11077100  0.91333600  1
  H  H39  1  0.97505300  0.13110800  0.80075000  1
  H  H40  1  0.86477900  0.00562200  0.65185100  1
  H  H41  1  0.60868100  0.14601300  0.69267800  1
  H  H42  1  0.71897400  0.14883800  0.81413900  1
  H  H43  1  0.86932600  0.20176900  0.84114600  1
  H  H44  1  0.80019500  0.25141200  0.62693600  1
  H  H45  1  0.90242200  0.57581500  0.78656500  1
  H  H46  1  0.65036800  0.19730300  0.59926700  1
  H  H47  1  0.87773200  0.14725200  0.62713900  1
  H  H48  1  0.14766200  0.39590800  0.89621400  1
  H  H49  1  0.19959800  0.28561100  0.91932800  1
  H  H50  1  0.34437600  0.29885300  0.96221000  1
  H  H51  1  0.40821800  0.30755100  0.86768000  1
  H  H52  1  0.32649400  0.30345500  0.72980100  1
  H  H53  1  0.18243800  0.29106500  0.68723600  1
  H  H54  1  0.01718700  0.44349000  0.34284100  1
  H  H55  1  0.88380200  0.40440200  0.21468500  1
  H  H56  1  0.67877000  0.58001300  0.79304300  1
  H  H57  1  0.87242000  0.51715300  0.17910600  1
  H  H58  1  0.12844900  0.70885700  0.39976800  1
  H  H59  1  0.13876600  0.59613400  0.43608200  1
  H  H60  1  0.00596800  0.75759300  0.38799700  1
  H  H61  1  0.97405800  0.75222900  0.11327500  1
  H  H62  1  0.84539000  0.79578600  0.09770200  1
  H  H63  1  0.82956600  0.90867000  0.06463400  1
  H  H64  1  0.94567500  0.06352000  0.16279900  1
  H  H65  1  0.07913800  0.10466700  0.29234300  1
  H  H66  1  0.09592400  0.99223500  0.32505100  1
  H  H67  1  0.60609000  0.46359600  0.74036000  1
  H  H68  1  0.47653700  0.03125200  0.34227100  1
  H  H69  1  0.53963100  0.06331800  0.45631400  1
  H  H70  1  0.61348200  0.21805800  0.43703200  1
  H  H71  1  0.63931800  0.05881800  0.38305900  1
  H  H72  1  0.71139500  0.17187800  0.40777900  1
  H  H73  1  0.37962200  0.54285500  0.18661100  1
  H  H74  1  0.37118100  0.46566700  0.09072500  1
  H  H75  1  0.50706100  0.64075800  0.14658700  1
  H  H76  1  0.30898200  0.56878800  0.05497200  1
  H  H77  1  0.39439200  0.65952400  0.05749400  1
  H  H78  1  0.70509700  0.45312100  0.84101200  1
  H  H79  1  0.75196400  0.55160300  0.58970400  1
  H  H80  1  0.82256600  0.51296200  0.63442300  1
  H  H81  1  0.91506300  0.70541600  0.74703300  1
  H  H82  1  0.88389800  0.60261100  0.56276200  1
  H  H83  1  0.97126100  0.71850800  0.65065400  1
  H  H84  1  0.77173500  0.57126800  0.89967300  1
  C  C1  1  0.38535100  0.37962900  0.48667400  1
  C  C2  1  0.80760400  0.50269500  0.81249200  1
  C  C3  1  0.99068500  0.82215900  0.31280600  1
  C  C4  1  0.97924300  0.81933300  0.23406100  1
  C  C5  1  0.97950700  0.75285200  0.17320100  1
  C  C6  1  0.98777800  0.68757100  0.18809300  1
  C  C7  1  0.99497700  0.68796300  0.26493700  1
  C  C8  1  0.89699200  0.86365200  0.14054600  1
  C  C9  1  0.88788900  0.92699900  0.12205100  1
  C  C10  1  0.95294300  0.01374700  0.17703400  1
  C  C11  1  0.02763900  0.03689300  0.24974900  1
  C  C12  1  0.03687300  0.97367500  0.26828000  1
  C  C13  1  0.84923400  0.57865800  0.79890100  1
  C  C14  1  0.97075000  0.88704400  0.21462500  1
  C  C15  1  0.51948400  0.08777300  0.41048400  1
  C  C16  1  0.59898000  0.15097300  0.41761600  1
  C  C17  1  0.65315200  0.12562000  0.40175500  1
  C  C18  1  0.41502900  0.53116300  0.15110700  1
  C  C19  1  0.43913300  0.59950000  0.12544100  1
  C  C20  1  0.37701300  0.60984500  0.07623200  1
  C  C21  1  0.80615900  0.56603400  0.65061400  1
  C  C22  1  0.88376000  0.65014400  0.68155600  1
  C  C23  1  0.91488300  0.65749500  0.62841100  1
  C  C24  1  0.73942000  0.51064900  0.83564600  1
  C  C25  1  0.42478700  0.15193700  0.37395200  1
  C  C26  1  0.37589600  0.18900400  0.39173600  1
  C  C27  1  0.37606700  0.21103200  0.47033400  1
  C  C28  1  0.42192100  0.19098200  0.52881100  1
  C  C29  1  0.46806000  0.15072300  0.50948800  1
  C  C30  1  0.47065300  0.13218900  0.43253800  1
  C  C31  1  0.25086700  0.18371300  0.49213400  1
  C  C32  1  0.62068000  0.49870000  0.61634400  1
  C  C33  1  0.18039700  0.19446000  0.48802300  1
  C  C34  1  0.17235600  0.26053300  0.47257000  1
  C  C35  1  0.24068100  0.32031400  0.47321700  1
  C  C36  1  0.31206800  0.31038600  0.47954400  1
  C  C37  1  0.31370000  0.23750500  0.48258700  1
  C  C38  1  0.04929800  0.26294900  0.37117100  1
  C  C39  1  0.97472700  0.27001700  0.34883600  1
  C  C40  1  0.94341100  0.28270000  0.40631400  1
  C  C41  1  0.98697300  0.28860600  0.48625000  1
  C  C42  1  0.06153600  0.28148700  0.50852100  1
  C  C43  1  0.62843900  0.62427600  0.50475300  1
  C  C44  1  0.09259500  0.26754200  0.45068200  1
  C  C45  1  0.27649200  0.23297200  0.16770400  1
  C  C46  1  0.29025800  0.31670200  0.19061500  1
  C  C47  1  0.23866600  0.34317600  0.21754900  1
  C  C48  1  0.17072700  0.28418600  0.21751800  1
  C  C49  1  0.15648600  0.20024400  0.19377100  1
  C  C50  1  0.20969000  0.17474600  0.16952900  1
  C  C51  1  0.18207800  0.43564900  0.18295900  1
  C  C52  1  0.19133500  0.51580600  0.19388800  1
  C  C53  1  0.26986000  0.59205900  0.26126300  1
  C  C54  1  0.39231400  0.50416900  0.37596200  1
  C  C55  1  0.33443100  0.58640200  0.31958700  1
  C  C56  1  0.32554500  0.50615200  0.30766700  1
  C  C57  1  0.24976300  0.43010900  0.23683800  1
  C  C58  1  0.36335800  0.73645900  0.28469100  1
  C  C59  1  0.38110600  0.81993600  0.30055200  1
  C  C60  1  0.32253800  0.84728700  0.30744200  1
  C  C61  1  0.24628800  0.79114000  0.29860500  1
  C  C62  1  0.22843300  0.70761500  0.28244200  1
  C  C63  1  0.28638800  0.67949200  0.27463400  1
  C  C64  1  0.58436500  0.46870000  0.23517400  1
  C  C65  1  0.68853400  0.41200800  0.65502900  1
  C  C66  1  0.64495800  0.54193900  0.31704300  1
  C  C67  1  0.63032800  0.61114500  0.34606000  1
  C  C68  1  0.55587700  0.60789900  0.29210000  1
  C  C69  1  0.49551500  0.53487900  0.20948800  1
  C  C70  1  0.50964800  0.46502000  0.18149600  1
  C  C71  1  0.75785200  0.75908800  0.43643200  1
  C  C72  1  0.82399600  0.83276200  0.51653700  1
  C  C73  1  0.82715200  0.83709200  0.59358000  1
  C  C74  1  0.76269100  0.76856200  0.58853500  1
  C  C75  1  0.69735900  0.69461100  0.50830700  1
  C  C76  1  0.76239000  0.41692900  0.72755600  1
  C  C77  1  0.69619500  0.68937200  0.43205600  1
  C  C78  1  0.94587700  0.90232700  0.74503900  1
  C  C79  1  0.00814200  0.97304300  0.82820600  1
  C  C80  1  0.01902600  0.05535500  0.84792600  1
  C  C81  1  0.96747100  0.06678600  0.78445400  1
  C  C82  1  0.90583900  0.99625300  0.70081700  1
  C  C83  1  0.89525800  0.91369000  0.68062800  1
  C  C84  1  0.00519300  0.39725400  0.89043000  1
  C  C85  1  0.87758900  0.50508900  0.88526400  1
  C  C86  1  0.99317700  0.62239100  0.12349100  1
  C  C87  1  0.78090000  0.57443500  0.72177100  1
  C  C88  1  0.12124000  0.51634700  0.12747300  1
  C  C89  1  0.01466000  0.14237100  0.62760800  1
  C  C90  1  0.11509800  0.13095400  0.49486900  1
  C  C91  1  0.99433500  0.89257500  0.38172500  1
  C  C92  1  0.88976100  0.90260900  0.51633300  1
  C  C93  1  0.73712600  0.17260500  0.77383200  1
  C  C94  1  0.82189900  0.20374900  0.78986000  1
  C  C95  1  0.84568100  0.23531400  0.73927900  1
  C  C96  1  0.78296000  0.23019200  0.66907000  1
  C  C97  1  0.69812200  0.19823600  0.65253800  1
  C  C98  1  0.67322200  0.51458800  0.76424000  1
  C  C99  1  0.67522600  0.17039400  0.70539500  1
  C  C100  1  0.93783600  0.20327300  0.68475000  1
  C  C101  1  0.01743400  0.21144700  0.69683900  1
  C  C102  1  0.09396700  0.27911100  0.77563400  1
  C  C103  1  0.08860400  0.34106900  0.83639000  1
  C  C104  1  0.00839200  0.33153400  0.82396000  1
  C  C105  1  0.93253400  0.25892500  0.74994000  1
  C  C106  1  0.22720700  0.28990400  0.87748500  1
  C  C107  1  0.30865900  0.29717400  0.90169800  1
  C  C108  1  0.34434400  0.30183800  0.84865000  1
  C  C109  1  0.69042700  0.49943700  0.68771300  1
  C  C110  1  0.29852700  0.29941900  0.77141200  1
  C  C111  1  0.21701400  0.29197500  0.74713200  1
  C  C112  1  0.18036100  0.28617300  0.79944900  1
  C  C113  1  0.93809900  0.47107200  0.25453900  1
  C  C114  1  0.93230600  0.53429600  0.23384500  1
  C  C115  1  0.00183400  0.61942200  0.28404800  1
  C  C116  1  0.07484300  0.64181800  0.35830000  1
  C  C117  1  0.08076800  0.57855000  0.37880600  1
  C  C118  1  0.01266000  0.49300900  0.32655900  1
  C  C119  1  0.99923200  0.75685400  0.32771900  1
  O  O1  1  0.40192100  0.36143500  0.42154000  1
  O  O2  1  0.03736900  0.47814100  0.90344600  1
  O  O3  1  0.85893200  0.43734900  0.89884800  1
  O  O4  1  0.95644000  0.57514200  0.93207100  1
  O  O5  1  0.92780000  0.54092000  0.07635200  1
  O  O6  1  0.06028000  0.64948300  0.11088400  1
  O  O7  1  0.04034800  0.47652700  0.11258500  1
  O  O8  1  0.14144300  0.55284800  0.08226800  1
  O  O9  1  0.06552100  0.11018500  0.65002600  1
  O  O10  1  0.95096800  0.10578000  0.54655300  1
  O  O11  1  0.14289800  0.09833200  0.54396600  1
  O  O12  1  0.42870300  0.45898200  0.55639900  1
  O  O13  1  0.03158300  0.10038800  0.44349700  1
  O  O14  1  0.04746000  0.91852000  0.46383400  1
  O  O15  1  0.93856100  0.92012400  0.35944700  1
  O  O16  1  0.97331700  0.92965000  0.56459900  1
  O  O17  1  0.86127600  0.92504400  0.45722000  1
  O  O18  1  0.57772800  0.43303100  0.53435900  1
  O  O19  1  0.60704100  0.56591500  0.63841300  1
  O  O20  1  0.61699100  0.54428800  0.46913900  1
  O  O21  1  0.58072700  0.64419900  0.53748800  1
  O  O22  1  0.44107700  0.47257600  0.35657000  1
  O  O23  1  0.40240200  0.53725200  0.45560600  1
  O  O24  1  0.97137100  0.37279700  0.93533300  1
