# generated using pymatgen
data_ZnC21N9O4
_symmetry_space_group_name_H-M   'P 1'
_cell_length_a   12.95792500
_cell_length_b   14.10108000
_cell_length_c   15.97658000
_cell_angle_alpha   90.00424600
_cell_angle_beta   93.52994100
_cell_angle_gamma   88.91033000
_symmetry_Int_Tables_number   1
_chemical_formula_structural   ZnC21N9O4
_chemical_formula_sum   'Zn2 C42 N18 O8'
_cell_volume   2913.18526672
_cell_formula_units_Z   2
loop_
 _symmetry_equiv_pos_site_id
 _symmetry_equiv_pos_as_xyz
  1  'x, y, z'
loop_
 _atom_site_type_symbol
 _atom_site_label
 _atom_site_symmetry_multiplicity
 _atom_site_fract_x
 _atom_site_fract_y
 _atom_site_fract_z
 _atom_site_occupancy
  Zn  Zn1  1  0.38242700  0.49333300  0.49414100  1
  Zn  Zn2  1  0.61730100  0.50669400  0.50602300  1
  C  C1  1  0.48354100  0.68500900  0.49927500  1
  C  C2  1  0.49966600  0.50001000  0.66363300  1
  C  C3  1  0.51618700  0.31501800  0.50088900  1
  C  C4  1  0.50006200  0.50001700  0.33653000  1
  C  C5  1  0.39994600  0.55376100  0.94774900  1
  C  C6  1  0.59884300  0.55158500  0.95752200  1
  C  C7  1  0.58989400  0.56388400  0.05193200  1
  C  C8  1  0.50010700  0.50002000  0.24671500  1
  C  C9  1  0.49976300  0.50001200  0.92058500  1
  C  C10  1  0.39313500  0.54061400  0.04226300  1
  C  C11  1  0.49996300  0.50001700  0.07957900  1
  C  C12  1  0.51673600  0.39554900  0.04833300  1
  C  C13  1  0.50062300  0.39469400  0.95269200  1
  C  C14  1  0.50006900  0.50001900  0.17124700  1
  C  C15  1  0.49965800  0.50000900  0.82891700  1
  C  C16  1  0.49962000  0.50000800  0.75344800  1
  C  C17  1  0.52516200  0.21343000  0.50133500  1
  C  C18  1  0.54203500  0.02629100  0.50217500  1
  C  C19  1  0.45769300  0.97373600  0.49798900  1
  C  C20  1  0.46702500  0.87192000  0.49845400  1
  C  C21  1  0.53270300  0.12810700  0.50171000  1
  C  C22  1  0.47456600  0.78659700  0.49882900  1
  C  C23  1  0.02821400  0.47315000  0.47571900  1
  C  C24  1  0.97151400  0.52687600  0.52444600  1
  C  C25  1  0.86065300  0.52051400  0.51853000  1
  C  C26  1  0.13907500  0.47951200  0.48163400  1
  C  C27  1  0.36380100  0.63042600  0.08168400  1
  C  C28  1  0.30561200  0.52041000  0.90225200  1
  C  C29  1  0.30521400  0.48019900  0.05750900  1
  C  C30  1  0.61924000  0.35489200  0.07293600  1
  C  C31  1  0.35684600  0.01854000  0.49298200  1
  C  C32  1  0.64288200  0.98148700  0.50718200  1
  C  C33  1  0.02090100  0.59145700  0.58322500  1
  C  C34  1  0.97882700  0.40856600  0.41694200  1
  C  C35  1  0.39741100  0.65547400  0.92806000  1
  C  C36  1  0.69609100  0.50104500  0.94273100  1
  C  C37  1  0.61288400  0.64371400  0.91735500  1
  C  C38  1  0.57538300  0.66495800  0.07078900  1
  C  C39  1  0.68896800  0.54084200  0.09765900  1
  C  C40  1  0.40583900  0.34352000  0.92846500  1
  C  C41  1  0.58076700  0.33591400  0.91576900  1
  C  C42  1  0.44714500  0.32878300  0.08577000  1
  N  N1  1  0.22826600  0.48456500  0.48630100  1
  N  N2  1  0.77146200  0.51546200  0.51386300  1
  N  N3  1  0.33909700  0.70041200  0.11340700  1
  N  N4  1  0.23097100  0.49578200  0.86564900  1
  N  N5  1  0.23472000  0.43417000  0.07012400  1
  N  N6  1  0.69914900  0.32112800  0.09294100  1
  N  N7  1  0.27567300  0.05449000  0.48895100  1
  N  N8  1  0.72405500  0.94553700  0.51121200  1
  N  N9  1  0.06053200  0.64343900  0.63053900  1
  N  N10  1  0.93919600  0.35658200  0.36963000  1
  N  N11  1  0.39333100  0.73555200  0.91178300  1
  N  N12  1  0.77365900  0.46291100  0.93046100  1
  N  N13  1  0.62565500  0.71570100  0.88505100  1
  N  N14  1  0.56602500  0.74475200  0.08641100  1
  N  N15  1  0.76706600  0.52435400  0.13443000  1
  N  N16  1  0.33229200  0.30157600  0.90877000  1
  N  N17  1  0.64251800  0.28855300  0.88586900  1
  N  N18  1  0.39387200  0.27528600  0.11608300  1
  O  O1  1  0.39832500  0.63599300  0.49496600  1
  O  O2  1  0.57651900  0.64613400  0.50396700  1
  O  O3  1  0.41060400  0.49492600  0.62028000  1
  O  O4  1  0.58879000  0.50509300  0.62928000  1
  O  O5  1  0.42320800  0.35389300  0.49619700  1
  O  O6  1  0.60140300  0.36403400  0.50519700  1
  O  O7  1  0.41093700  0.49493400  0.37088400  1
  O  O8  1  0.58912400  0.50510100  0.37988300  1
