# generated using pymatgen
data_Fe2H31C58NO24
_symmetry_space_group_name_H-M   'P 1'
_cell_length_a   14.08399500
_cell_length_b   9.45850000
_cell_length_c   24.20138500
_cell_angle_alpha   84.62492100
_cell_angle_beta   89.49014000
_cell_angle_gamma   109.70262800
_symmetry_Int_Tables_number   1
_chemical_formula_structural   Fe2H31C58NO24
_chemical_formula_sum   'Fe2 H31 C58 N1 O24'
_cell_volume   3019.03867332
_cell_formula_units_Z   1
loop_
 _symmetry_equiv_pos_site_id
 _symmetry_equiv_pos_as_xyz
  1  'x, y, z'
loop_
 _atom_site_type_symbol
 _atom_site_label
 _atom_site_symmetry_multiplicity
 _atom_site_fract_x
 _atom_site_fract_y
 _atom_site_fract_z
 _atom_site_occupancy
  Fe  Fe1  1  0.52782600  0.10035500  0.11051000  1
  Fe  Fe2  1  0.55790000  0.11171100  0.86586200  1
  H  H1  1  0.87978300  0.08934600  0.09969300  1
  H  H2  1  0.87051400  0.14771200  0.89661000  1
  H  H3  1  0.03770900  0.14443000  0.88838700  1
  H  H4  1  0.20124000  0.13290900  0.87883200  1
  H  H5  1  0.22094200  0.05543400  0.08102000  1
  H  H6  1  0.16095200  0.26070400  0.12570300  1
  H  H7  1  0.12738400  0.14557000  0.22755600  1
  H  H8  1  0.98506600  0.87453000  0.23116300  1
  H  H9  1  0.93348800  0.82985900  0.12649400  1
  H  H10  1  0.56388800  0.65708700  0.84702600  1
  H  H11  1  0.56414900  0.40829300  0.70828400  1
  H  H12  1  0.55540100  0.85534900  0.68295800  1
  H  H13  1  0.64720300  0.76100200  0.33749600  1
  H  H14  1  0.66278400  0.76558600  0.43807100  1
  H  H15  1  0.49403200  0.33859000  0.29163200  1
  H  H16  1  0.51219500  0.79801800  0.26550800  1
  H  H17  1  0.66781400  0.55026800  0.52023000  1
  H  H18  1  0.68101300  0.56165700  0.62089000  1
  H  H19  1  0.39384000  0.64478900  0.52627000  1
  H  H20  1  0.19561500  0.29994300  0.54560500  1
  H  H21  1  0.18776400  0.15594400  0.49982300  1
  H  H22  1  0.10857700  0.27169400  0.48972300  1
  H  H23  1  0.19711300  0.17827900  0.32804900  1
  H  H24  1  0.17551000  0.06389400  0.39428500  1
  H  H25  1  0.24983300  0.02824400  0.33927100  1
  H  H26  1  0.56432000  0.55012600  0.01338100  1
  H  H27  1  0.69518900  0.56822700  0.02277200  1
  H  H28  1  0.66079100  0.73528500  0.00758500  1
  H  H29  1  0.27835600  0.79861600  0.68943800  1
  H  H30  1  0.19737300  0.65465200  0.65003800  1
  H  H31  1  0.22637200  0.85234600  0.62595100  1
  C  C1  1  0.87824500  0.09806900  0.05507300  1
  C  C2  1  0.79181700  0.10773100  0.03086400  1
  C  C3  1  0.78865500  0.12452400  0.97332800  1
  C  C4  1  0.87330300  0.13679600  0.94137400  1
  C  C5  1  0.95827600  0.12244200  0.96590400  1
  C  C6  1  0.96067400  0.10021000  0.02292600  1
  C  C7  1  0.04000800  0.12723800  0.93307700  1
  C  C8  1  0.12471000  0.11059100  0.95693000  1
  C  C9  1  0.12794400  0.08752300  0.01388500  1
  C  C10  1  0.04565800  0.08226500  0.04722600  1
  C  C11  1  0.20612900  0.11704900  0.92336800  1
  C  C12  1  0.29336500  0.10575000  0.94611600  1
  C  C13  1  0.29746200  0.08550200  0.00350900  1
  C  C14  1  0.21400200  0.07099400  0.03675500  1
  C  C15  1  0.08984700  0.09208600  0.19239600  1
  C  C16  1  0.01600500  0.95147300  0.19441300  1
  C  C17  1  0.98931000  0.92832400  0.14040800  1
  C  C18  1  0.04808000  0.05585800  0.10774700  1
  C  C19  1  0.70603700  0.09848100  0.06782400  1
  C  C20  1  0.51431700  0.82160000  0.15408400  1
  C  C21  1  0.39217500  0.10194300  0.03082600  1
  C  C22  1  0.50935000  0.29445300  0.18533100  1
  C  C23  1  0.56467400  0.91167400  0.78898100  1
  C  C24  1  0.69414000  0.10764500  0.94539300  1
  C  C25  1  0.56908500  0.38990700  0.82032400  1
  C  C26  1  0.37851500  0.11490400  0.90850300  1
  C  C27  1  0.56588800  0.51839200  0.78199000  1
  C  C28  1  0.56387900  0.50991300  0.72521000  1
  C  C29  1  0.55679700  0.62924200  0.68987200  1
  C  C30  1  0.55738700  0.76025900  0.71084000  1
  C  C31  1  0.55953500  0.76992500  0.76725100  1
  C  C32  1  0.56170600  0.64798200  0.80285200  1
  C  C33  1  0.43679500  0.48899700  0.43701100  1
  C  C34  1  0.43186200  0.47792500  0.38003000  1
  C  C35  1  0.50615200  0.57948600  0.34437700  1
  C  C36  1  0.58791300  0.68421000  0.36535100  1
  C  C37  1  0.59732500  0.68555100  0.42185100  1
  C  C38  1  0.52163200  0.58927600  0.45763600  1
  C  C39  1  0.49883100  0.43696800  0.26363500  1
  C  C40  1  0.50977300  0.43342800  0.20722500  1
  C  C41  1  0.51985200  0.56031700  0.17116200  1
  C  C42  1  0.51559800  0.69053000  0.19161900  1
  C  C43  1  0.51131900  0.69594400  0.24852300  1
  C  C44  1  0.50343300  0.56978100  0.28444300  1
  C  C45  1  0.61107900  0.57587100  0.54372500  1
  C  C46  1  0.61810900  0.58127200  0.60031600  1
  C  C47  1  0.54700500  0.61693100  0.63027300  1
  C  C48  1  0.46749900  0.64474800  0.60380700  1
  C  C49  1  0.45782200  0.63111300  0.54746200  1
  C  C50  1  0.53007700  0.59824400  0.51742800  1
  C  C51  1  0.26359300  0.38219700  0.46456100  1
  C  C52  1  0.18379300  0.27029900  0.50232900  1
  C  C53  1  0.32378400  0.22494900  0.37955300  1
  C  C54  1  0.23062100  0.11692700  0.35897500  1
  C  C55  1  0.62284200  0.62786900  0.09016700  1
  C  C56  1  0.63664900  0.61986100  0.02961300  1
  C  C57  1  0.34625100  0.76625200  0.61472500  1
  C  C58  1  0.25635200  0.76808200  0.64710400  1
  N  N1  1  0.10895800  0.15489400  0.13947700  1
  O  O1  1  0.63207900  0.14314000  0.05000400  1
  O  O2  1  0.51103100  0.81604200  0.10015700  1
  O  O3  1  0.70506800  0.04984700  0.12045500  1
  O  O4  1  0.51531900  0.94629300  0.17399500  1
  O  O5  1  0.39332300  0.01641200  0.07668400  1
  O  O6  1  0.47175900  0.22074800  0.01553400  1
  O  O7  1  0.56608200  0.30104200  0.14110700  1
  O  O8  1  0.44676400  0.16407500  0.20750200  1
  O  O9  1  0.51728600  0.90921700  0.83629300  1
  O  O10  1  0.62216000  0.04041500  0.76287000  1
  O  O11  1  0.69279200  0.19359400  0.89962300  1
  O  O12  1  0.61377800  0.99066400  0.96129700  1
  O  O13  1  0.37710700  0.15938100  0.85562000  1
  O  O14  1  0.57206100  0.26487200  0.80179200  1
  O  O15  1  0.45391400  0.07316300  0.92629000  1
  O  O16  1  0.56336300  0.39640600  0.87412900  1
  O  O17  1  0.36166700  0.40249300  0.47311400  1
  O  O18  1  0.24011700  0.46034900  0.42798500  1
  O  O19  1  0.35596000  0.37118100  0.35838100  1
  O  O20  1  0.37319900  0.17920100  0.41333000  1
  O  O21  1  0.53235600  0.55431100  0.11639300  1
  O  O22  1  0.69355800  0.70026600  0.11608300  1
  O  O23  1  0.39750800  0.67571600  0.63423000  1
  O  O24  1  0.37702400  0.85440000  0.57314800  1
