# generated using pymatgen
data_CuH16C23NO6
_symmetry_space_group_name_H-M   'P 1'
_cell_length_a   19.37908700
_cell_length_b   17.90841000
_cell_length_c   11.03967600
_cell_angle_alpha   90.00000000
_cell_angle_beta   90.00739200
_cell_angle_gamma   90.00000000
_symmetry_Int_Tables_number   1
_chemical_formula_structural   CuH16C23NO6
_chemical_formula_sum   'Cu2 H32 C46 N2 O12'
_cell_volume   3831.30445941
_cell_formula_units_Z   2
loop_
 _symmetry_equiv_pos_site_id
 _symmetry_equiv_pos_as_xyz
  1  'x, y, z'
loop_
 _atom_site_type_symbol
 _atom_site_label
 _atom_site_symmetry_multiplicity
 _atom_site_fract_x
 _atom_site_fract_y
 _atom_site_fract_z
 _atom_site_occupancy
  Cu  Cu1  1  0.50118200  0.57039700  0.50036200  1
  Cu  Cu2  1  0.49913700  0.42102500  0.49765500  1
  H  H1  1  0.49354800  0.38249100  0.88759200  1
  H  H2  1  0.49787400  0.38203700  0.11091300  1
  H  H3  1  0.50907900  0.55262900  0.90467800  1
  H  H4  1  0.49675600  0.55309300  0.09441000  1
  H  H5  1  0.84569700  0.40404500  0.37845400  1
  H  H6  1  0.15593000  0.39975900  0.61376400  1
  H  H7  1  0.84075200  0.59417900  0.61150400  1
  H  H8  1  0.16044100  0.59943600  0.40260100  1
  H  H9  1  0.71611400  0.59426300  0.60345600  1
  H  H10  1  0.28509500  0.59873900  0.40907700  1
  H  H11  1  0.93848700  0.61782800  0.50279800  1
  H  H12  1  0.06247000  0.61791400  0.51302800  1
  H  H13  1  0.06288600  0.37908900  0.49266200  1
  H  H14  1  0.93910600  0.37866800  0.49680300  1
  H  H15  1  0.42089000  0.68886000  0.37059800  1
  H  H16  1  0.57773000  0.68922400  0.63391800  1
  H  H17  1  0.41939200  0.82470000  0.36812200  1
  H  H18  1  0.57746900  0.82515000  0.63858700  1
  H  H19  1  0.60887900  0.92815400  0.51545300  1
  H  H20  1  0.38877100  0.92822800  0.48665700  1
  H  H21  1  0.60885000  0.06331600  0.51572200  1
  H  H22  1  0.38876000  0.06314900  0.48670300  1
  H  H23  1  0.41984500  0.16644000  0.36716000  1
  H  H24  1  0.57729400  0.16648500  0.63873900  1
  H  H25  1  0.42145500  0.30223200  0.36877900  1
  H  H26  1  0.57731200  0.30244900  0.63386300  1
  H  H27  1  0.65916300  0.30214400  0.21365500  1
  H  H28  1  0.67177600  0.22153700  0.31020000  1
  H  H29  1  0.73710000  0.24692600  0.20040000  1
  H  H30  1  0.34108800  0.29139000  0.76822500  1
  H  H31  1  0.32831900  0.21420300  0.66463000  1
  H  H32  1  0.26256100  0.23675800  0.77528800  1
  C  C1  1  0.36794300  0.49552300  0.50459900  1
  C  C2  1  0.63325900  0.49587400  0.49474500  1
  C  C3  1  0.49847500  0.49575400  0.26688300  1
  C  C4  1  0.50275000  0.49584300  0.73213300  1
  C  C5  1  0.49797900  0.43613500  0.93222700  1
  C  C6  1  0.49800000  0.43600800  0.06655000  1
  C  C7  1  0.50365600  0.49798100  0.86474000  1
  C  C8  1  0.49762000  0.49809500  0.13423700  1
  C  C9  1  0.74570500  0.44076100  0.43401700  1
  C  C10  1  0.25580800  0.43832300  0.56087000  1
  C  C11  1  0.81723700  0.44310300  0.43362700  1
  C  C12  1  0.18430500  0.44092000  0.56258200  1
  C  C13  1  0.85251600  0.49774500  0.49727600  1
  C  C14  1  0.14891400  0.49815400  0.50543300  1
  C  C15  1  0.81519900  0.55177700  0.55836400  1
  C  C16  1  0.18608300  0.55472900  0.45044100  1
  C  C17  1  0.74413400  0.55162500  0.55458000  1
  C  C18  1  0.25713900  0.55416300  0.45316400  1
  C  C19  1  0.70903400  0.49606300  0.49367200  1
  C  C20  1  0.29228900  0.49586000  0.50675400  1
  C  C21  1  0.96499400  0.56477900  0.50357000  1
  C  C22  1  0.03618400  0.56489500  0.50653000  1
  C  C23  1  0.07272400  0.49849600  0.50346400  1
  C  C24  1  0.92872200  0.49823600  0.49931400  1
  C  C25  1  0.03641700  0.43205100  0.49811800  1
  C  C26  1  0.96531800  0.43188500  0.49733200  1
  C  C27  1  0.45562900  0.71930000  0.42915600  1
  C  C28  1  0.54308200  0.71948500  0.57497300  1
  C  C29  1  0.45437000  0.79627400  0.42879500  1
  C  C30  1  0.54325800  0.79649400  0.57680200  1
  C  C31  1  0.49886200  0.83584300  0.50252300  1
  C  C32  1  0.56007400  0.95721100  0.51145800  1
  C  C33  1  0.43758600  0.95720100  0.49188300  1
  C  C34  1  0.56005900  0.03423200  0.51162200  1
  C  C35  1  0.43757700  0.03419300  0.49197800  1
  C  C36  1  0.49877500  0.07337200  0.50247700  1
  C  C37  1  0.49880200  0.91802800  0.50225500  1
  C  C38  1  0.45460500  0.19497700  0.42806000  1
  C  C39  1  0.54307300  0.19503100  0.57685400  1
  C  C40  1  0.45594700  0.27195900  0.42796600  1
  C  C41  1  0.54278600  0.27204400  0.57491400  1
  C  C42  1  0.49882200  0.15554100  0.50246600  1
  C  C43  1  0.73203700  0.31701000  0.35632500  1
  C  C44  1  0.69785800  0.26880500  0.26427000  1
  C  C45  1  0.26917900  0.31175700  0.62568900  1
  C  C46  1  0.30242300  0.26026000  0.71409100  1
  N  N1  1  0.50067800  0.68207600  0.49973500  1
  N  N2  1  0.50141100  0.30930500  0.50014400  1
  O  O1  1  0.40037400  0.55971700  0.50593400  1
  O  O2  1  0.60094700  0.56000500  0.50172200  1
  O  O3  1  0.40028000  0.43139100  0.49923800  1
  O  O4  1  0.60074600  0.43176800  0.49108900  1
  O  O5  1  0.50180700  0.55973600  0.32365500  1
  O  O6  1  0.50428200  0.55996200  0.67551100  1
  O  O7  1  0.49600100  0.43144900  0.32347900  1
  O  O8  1  0.50034800  0.43154900  0.67548700  1
  O  O9  1  0.71121600  0.38858500  0.36967900  1
  O  O10  1  0.77466900  0.28986200  0.42463400  1
  O  O11  1  0.29042600  0.38355000  0.61914000  1
  O  O12  1  0.22669100  0.28733500  0.55443300  1
