# generated using pymatgen
data_Cu3H48C54(NO8)2
_symmetry_space_group_name_H-M   'P 1'
_cell_length_a   21.27333100
_cell_length_b   21.27408600
_cell_length_c   46.68914400
_cell_angle_alpha   90.00000000
_cell_angle_beta   90.00000000
_cell_angle_gamma   90.00000000
_symmetry_Int_Tables_number   1
_chemical_formula_structural   Cu3H48C54(NO8)2
_chemical_formula_sum   'Cu12 H192 C216 N8 O64'
_cell_volume   21130.13733123
_cell_formula_units_Z   4
loop_
 _symmetry_equiv_pos_site_id
 _symmetry_equiv_pos_as_xyz
  1  'x, y, z'
loop_
 _atom_site_type_symbol
 _atom_site_label
 _atom_site_symmetry_multiplicity
 _atom_site_fract_x
 _atom_site_fract_y
 _atom_site_fract_z
 _atom_site_occupancy
  Cu  Cu1  1  0.99880600  0.99985700  0.02843600  1
  Cu  Cu2  1  0.50014400  0.50017800  0.52751000  1
  Cu  Cu3  1  0.00036400  0.00040000  0.97138500  1
  Cu  Cu4  1  0.49993900  0.49996000  0.47163800  1
  Cu  Cu5  1  0.49970800  0.06264800  0.99933400  1
  Cu  Cu6  1  0.93711100  0.50022700  0.00038500  1
  Cu  Cu7  1  0.49955000  0.93736600  0.00037700  1
  Cu  Cu8  1  0.06239700  0.49993700  0.99934400  1
  Cu  Cu9  1  0.99976800  0.56270800  0.49984400  1
  Cu  Cu10  1  0.43739200  0.99979300  0.49972900  1
  Cu  Cu11  1  0.00033400  0.43743300  0.49988900  1
  Cu  Cu12  1  0.56267000  0.00036000  0.49998600  1
  H  H1  1  0.88144500  0.60322500  0.77733700  1
  H  H2  1  0.39443700  0.88175700  0.77718000  1
  H  H3  1  0.10952600  0.39583000  0.77788000  1
  H  H4  1  0.60169400  0.10995600  0.77803000  1
  H  H5  1  0.38888100  0.10794500  0.27763000  1
  H  H6  1  0.89974000  0.38539700  0.27744200  1
  H  H7  1  0.61641700  0.89996200  0.27754200  1
  H  H8  1  0.10787100  0.61279400  0.27775600  1
  H  H9  1  0.19334200  0.04292600  0.04335400  1
  H  H10  1  0.02329700  0.20338400  0.04440000  1
  H  H11  1  0.79578000  0.02387100  0.04358700  1
  H  H12  1  0.04313300  0.80603300  0.04246700  1
  H  H13  1  0.69404600  0.52510300  0.54458800  1
  H  H14  1  0.47515200  0.69413400  0.54459100  1
  H  H15  1  0.30633000  0.47515900  0.54490000  1
  H  H16  1  0.52508300  0.30639900  0.54489400  1
  H  H17  1  0.20149700  0.09833700  0.01427000  1
  H  H18  1  0.93961200  0.19492100  0.03814100  1
  H  H19  1  0.80455000  0.94018900  0.03735200  1
  H  H20  1  0.09823100  0.79838300  0.01324200  1
  H  H21  1  0.69917700  0.59095300  0.52030300  1
  H  H22  1  0.40921100  0.69912000  0.52035100  1
  H  H23  1  0.30094300  0.40924500  0.52066300  1
  H  H24  1  0.59091600  0.30087900  0.52061600  1
  H  H25  1  0.30553600  0.09264300  0.02196300  1
  H  H26  1  0.92691000  0.29886200  0.03207300  1
  H  H27  1  0.70085000  0.92714500  0.03104200  1
  H  H28  1  0.09294900  0.69433900  0.02062800  1
  H  H29  1  0.80407200  0.58586400  0.52492700  1
  H  H30  1  0.41416100  0.80404100  0.52485100  1
  H  H31  1  0.19606600  0.41447900  0.52548700  1
  H  H32  1  0.58554700  0.19603100  0.52555100  1
  H  H33  1  0.29749400  0.02588300  0.04559600  1
  H  H34  1  0.00589500  0.30790200  0.04570800  1
  H  H35  1  0.69145100  0.00599500  0.04479000  1
  H  H36  1  0.02668100  0.70190700  0.04458600  1
  H  H37  1  0.79900500  0.51390900  0.54530600  1
  H  H38  1  0.48604700  0.79911700  0.54529000  1
  H  H39  1  0.20137500  0.48659200  0.54573900  1
  H  H40  1  0.51336200  0.20147200  0.54574400  1
  H  H41  1  0.20042800  0.92843400  0.03215500  1
  H  H42  1  0.09870600  0.19213800  0.00345700  1
  H  H43  1  0.80753700  0.09928600  0.00264600  1
  H  H44  1  0.92844900  0.79914300  0.03150000  1
  H  H45  1  0.69843700  0.41632000  0.52475300  1
  H  H46  1  0.58388100  0.69839700  0.52469700  1
  H  H47  1  0.30173400  0.58388500  0.52499600  1
  H  H48  1  0.41630100  0.30168800  0.52504500  1
  H  H49  1  0.30442500  0.91601100  0.02649000  1
  H  H50  1  0.09580000  0.29645200  0.01156900  1
  H  H51  1  0.70320300  0.09618700  0.01077900  1
  H  H52  1  0.91640700  0.69521000  0.02595300  1
  H  H53  1  0.80286600  0.40960800  0.52086200  1
  H  H54  1  0.59042600  0.80283700  0.52091500  1
  H  H55  1  0.19728800  0.59070000  0.52113400  1
  H  H56  1  0.40932400  0.19725800  0.52107000  1
  H  H57  1  0.20297000  0.97902900  0.95588200  1
  H  H58  1  0.95355600  0.19376000  0.95787000  1
  H  H59  1  0.80634200  0.95424300  0.95706300  1
  H  H60  1  0.97833500  0.79731500  0.95511100  1
  H  H61  1  0.70017100  0.49513300  0.45345400  1
  H  H62  1  0.50485400  0.70011500  0.45343800  1
  H  H63  1  0.29961200  0.50484600  0.45375600  1
  H  H64  1  0.49514700  0.29957100  0.45376800  1
  H  H65  1  0.19461800  0.06230600  0.96325600  1
  H  H66  1  0.90034100  0.20251900  0.98774700  1
  H  H67  1  0.79733800  0.90094200  0.98690200  1
  H  H68  1  0.06167600  0.80539400  0.96235300  1
  H  H69  1  0.69522300  0.57445600  0.46742800  1
  H  H70  1  0.42556800  0.69530500  0.46746700  1
  H  H71  1  0.30472000  0.42556600  0.46777300  1
  H  H72  1  0.57446400  0.30480500  0.46773400  1
  H  H73  1  0.29856400  0.07426000  0.96930500  1
  H  H74  1  0.90617700  0.30651200  0.97947600  1
  H  H75  1  0.69331800  0.90675300  0.97844300  1
  H  H76  1  0.07340000  0.70122300  0.96804700  1
  H  H77  1  0.79976500  0.58040800  0.47164300  1
  H  H78  1  0.41978400  0.79986000  0.47157300  1
  H  H79  1  0.20024400  0.41952100  0.47218700  1
  H  H80  1  0.58067000  0.20034700  0.47224500  1
  H  H81  1  0.30730600  0.99593600  0.95488100  1
  H  H82  1  0.97184500  0.29764600  0.95529000  1
  H  H83  1  0.70235100  0.97256100  0.95435100  1
  H  H84  1  0.99472500  0.69279700  0.95398700  1
  H  H85  1  0.80526300  0.50556000  0.45357400  1
  H  H86  1  0.49471100  0.80522000  0.45356200  1
  H  H87  1  0.19454200  0.49421700  0.45400300  1
  H  H88  1  0.50604600  0.19452000  0.45400500  1
  H  H89  1  0.19182600  0.90113800  0.99572300  1
  H  H90  1  0.06895800  0.20143500  0.96745800  1
  H  H91  1  0.79834900  0.06950700  0.96664700  1
  H  H92  1  0.90081400  0.80767600  0.99511800  1
  H  H93  1  0.69294700  0.40350900  0.48661000  1
  H  H94  1  0.59656700  0.69304500  0.48654100  1
  H  H95  1  0.30711900  0.59658500  0.48684200  1
  H  H96  1  0.40348400  0.30721600  0.48690300  1
  H  H97  1  0.29637200  0.90427400  0.98820200  1
  H  H98  1  0.08251500  0.30532300  0.97342700  1
  H  H99  1  0.69435200  0.08313800  0.97262200  1
  H  H100  1  0.90383200  0.70316400  0.98771200  1
  H  H101  1  0.79814900  0.40667300  0.48213500  1
  H  H102  1  0.59350500  0.79825900  0.48218700  1
  H  H103  1  0.20190700  0.59332300  0.48240000  1
  H  H104  1  0.40684300  0.20202100  0.48233800  1
  H  H105  1  0.89907300  0.47287300  0.85804900  1
  H  H106  1  0.52431300  0.89944000  0.85797900  1
  H  H107  1  0.09192400  0.52793300  0.85720900  1
  H  H108  1  0.46908700  0.09223900  0.85727500  1
  H  H109  1  0.40504400  0.97511900  0.35725400  1
  H  H110  1  0.02971400  0.40320600  0.35780700  1
  H  H111  1  0.59801200  0.02977300  0.35795000  1
  H  H112  1  0.97512200  0.59618900  0.35741700  1
  H  H113  1  0.89951400  0.47418000  0.91017500  1
  H  H114  1  0.52333700  0.89978700  0.91009800  1
  H  H115  1  0.09355100  0.52734400  0.90924500  1
  H  H116  1  0.47000000  0.09377300  0.90932000  1
  H  H117  1  0.40386600  0.97496700  0.40934600  1
  H  H118  1  0.02770300  0.40280700  0.40987500  1
  H  H119  1  0.59801700  0.02773600  0.41002000  1
  H  H120  1  0.97499000  0.59697300  0.40951200  1
  H  H121  1  0.49231400  0.90483900  0.14266900  1
  H  H122  1  0.10390400  0.48831200  0.14166500  1
  H  H123  1  0.51396500  0.10415700  0.14162800  1
  H  H124  1  0.90461100  0.51025300  0.14266500  1
  H  H125  1  0.98751100  0.40036400  0.64210300  1
  H  H126  1  0.59852700  0.98766500  0.64228300  1
  H  H127  1  0.00798600  0.59982400  0.64224300  1
  H  H128  1  0.39905100  0.00804900  0.64205000  1
  H  H129  1  0.49229900  0.90309300  0.09063800  1
  H  H130  1  0.10311300  0.48943900  0.08953700  1
  H  H131  1  0.51246800  0.10335100  0.08950000  1
  H  H132  1  0.90287700  0.50991000  0.09063100  1
  H  H133  1  0.98933000  0.39995800  0.59003300  1
  H  H134  1  0.59939500  0.98943100  0.59021200  1
  H  H135  1  0.00827500  0.60034600  0.59014900  1
  H  H136  1  0.39899200  0.00828800  0.58995700  1
  H  H137  1  0.35317100  0.25403500  0.20773600  1
  H  H138  1  0.28197700  0.20723600  0.20742100  1
  H  H139  1  0.29463500  0.26477100  0.23532500  1
  H  H140  1  0.31343300  0.15919200  0.25369500  1
  H  H141  1  0.38675200  0.20386400  0.25251500  1
  H  H142  1  0.40772700  0.15602900  0.20461600  1
  H  H143  1  0.33944300  0.10557200  0.20955600  1
  H  H144  1  0.75580600  0.34775400  0.20690200  1
  H  H145  1  0.80294600  0.27678400  0.20704800  1
  H  H146  1  0.74465500  0.28957300  0.23461300  1
  H  H147  1  0.84972500  0.30914400  0.25345500  1
  H  H148  1  0.80466900  0.38219100  0.25184900  1
  H  H149  1  0.85354100  0.40294900  0.20418900  1
  H  H150  1  0.90412800  0.33487100  0.20945800  1
  H  H151  1  0.65441700  0.75608600  0.20701700  1
  H  H152  1  0.72539800  0.80320800  0.20725200  1
  H  H153  1  0.71244600  0.74489800  0.23479100  1
  H  H154  1  0.69279300  0.84994800  0.25363300  1
  H  H155  1  0.61974000  0.80491400  0.25193200  1
  H  H156  1  0.59927400  0.85383700  0.20425500  1
  H  H157  1  0.66732400  0.90441200  0.20962000  1
  H  H158  1  0.25393100  0.64878700  0.20788000  1
  H  H159  1  0.20718300  0.72001500  0.20765300  1
  H  H160  1  0.26473000  0.70716300  0.23553400  1
  H  H161  1  0.15914500  0.68834400  0.25389700  1
  H  H162  1  0.20376500  0.61500200  0.25262800  1
  H  H163  1  0.15588100  0.59431900  0.20471400  1
  H  H164  1  0.10547700  0.66261100  0.20973500  1
  H  H165  1  0.84520000  0.74832500  0.70711200  1
  H  H166  1  0.77425700  0.70114500  0.70680500  1
  H  H167  1  0.78645300  0.75900100  0.73461300  1
  H  H168  1  0.80571300  0.65366800  0.75319800  1
  H  H169  1  0.87877800  0.69876000  0.75203100  1
  H  H170  1  0.90040900  0.65063100  0.70427700  1
  H  H171  1  0.83231500  0.59988700  0.70915700  1
  H  H172  1  0.25016000  0.84494200  0.70667200  1
  H  H173  1  0.29751800  0.77411700  0.70650400  1
  H  H174  1  0.23935100  0.78624700  0.73418500  1
  H  H175  1  0.34446300  0.80581500  0.75297300  1
  H  H176  1  0.29918900  0.87875600  0.75167900  1
  H  H177  1  0.34773300  0.90043300  0.70402300  1
  H  H178  1  0.39857400  0.83245200  0.70901700  1
  H  H179  1  0.14732300  0.25106700  0.70764800  1
  H  H180  1  0.21843900  0.29798700  0.70789400  1
  H  H181  1  0.20515400  0.23992900  0.73551100  1
  H  H182  1  0.18569400  0.34513900  0.75417400  1
  H  H183  1  0.11248800  0.30037100  0.75242600  1
  H  H184  1  0.09269300  0.34903600  0.70459900  1
  H  H185  1  0.16075000  0.39952100  0.71010100  1
  H  H186  1  0.74726900  0.14730700  0.70808500  1
  H  H187  1  0.70044900  0.21848900  0.70818800  1
  H  H188  1  0.75820700  0.20520400  0.73593600  1
  H  H189  1  0.65278700  0.18595100  0.75439200  1
  H  H190  1  0.69745100  0.11267000  0.75277500  1
  H  H191  1  0.64923200  0.09287100  0.70484700  1
  H  H192  1  0.59876400  0.16098200  0.71023300  1
  C  C1  1  0.99765400  0.12081100  0.99990800  1
  C  C2  1  0.87889700  0.99825500  0.99944800  1
  C  C3  1  0.00153200  0.87945200  0.99991100  1
  C  C4  1  0.12026900  0.00196100  0.00037200  1
  C  C5  1  0.49919900  0.61924200  0.49949900  1
  C  C6  1  0.38086700  0.49920700  0.49969500  1
  C  C7  1  0.50090800  0.38089700  0.49969900  1
  C  C8  1  0.61921700  0.50091800  0.49950400  1
  C  C9  1  0.50315800  0.00459600  0.23484200  1
  C  C10  1  0.00438600  0.49884800  0.23485300  1
  C  C11  1  0.99613200  0.49969500  0.73486900  1
  C  C12  1  0.49830400  0.99640700  0.73486500  1
  C  C13  1  0.50237500  0.00314000  0.08627100  1
  C  C14  1  0.00291200  0.49965300  0.08628700  1
  C  C15  1  0.99890600  0.50015700  0.58629700  1
  C  C16  1  0.49922400  0.99895700  0.58628900  1
  C  C17  1  0.91328900  0.57518700  0.76488300  1
  C  C18  1  0.42257400  0.91358700  0.76476600  1
  C  C19  1  0.07803900  0.42395100  0.76527900  1
  C  C20  1  0.57371100  0.07842200  0.76538900  1
  C  C21  1  0.42062500  0.07997300  0.26509200  1
  C  C22  1  0.92808700  0.41689100  0.26495100  1
  C  C23  1  0.58498000  0.92830800  0.26502000  1
  C  C24  1  0.07986000  0.58114600  0.26518600  1
  C  C25  1  0.46039400  0.04222000  0.22001300  1
  C  C26  1  0.96711800  0.45588500  0.21996100  1
  C  C27  1  0.54622900  0.96737100  0.21999100  1
  C  C28  1  0.04202900  0.54166900  0.22006700  1
  C  C29  1  0.95335400  0.53706400  0.71991800  1
  C  C30  1  0.46111300  0.95357000  0.71985800  1
  C  C31  1  0.03940200  0.46247000  0.72014000  1
  C  C32  1  0.53566100  0.03965400  0.72019200  1
  C  C33  1  0.21414500  0.05058800  0.02187000  1
  C  C34  1  0.98393400  0.21543100  0.02981100  1
  C  C35  1  0.78402700  0.98446300  0.02897200  1
  C  C36  1  0.05059700  0.78550800  0.02091400  1
  C  C37  1  0.71357800  0.54146500  0.52387800  1
  C  C38  1  0.45869100  0.71360200  0.52388500  1
  C  C39  1  0.28662600  0.45876000  0.52423000  1
  C  C40  1  0.54138900  0.28664100  0.52421900  1
  C  C41  1  0.28488300  0.04508100  0.02427300  1
  C  C42  1  0.97690100  0.28615800  0.02863600  1
  C  C43  1  0.71339600  0.97720400  0.02770000  1
  C  C44  1  0.04535700  0.71477800  0.02319900  1
  C  C45  1  0.78463400  0.53752100  0.52516900  1
  C  C46  1  0.46252900  0.78466500  0.52514200  1
  C  C47  1  0.21557500  0.46279500  0.52562200  1
  C  C48  1  0.53725300  0.21559900  0.52563900  1
  C  C49  1  0.21341600  0.93764100  0.00953800  1
  C  C50  1  0.06131300  0.21401600  0.99024200  1
  C  C51  1  0.78570200  0.06188000  0.98942600  1
  C  C52  1  0.93748800  0.78617500  0.00886800  1
  C  C53  1  0.71300800  0.43427100  0.50346800  1
  C  C54  1  0.56585400  0.71303800  0.50343400  1
  C  C55  1  0.28710000  0.56587500  0.50373000  1
  C  C56  1  0.43424200  0.28712700  0.50375600  1
  C  C57  1  0.21500300  0.01741700  0.97100300  1
  C  C58  1  0.94760900  0.21477800  0.97942200  1
  C  C59  1  0.78511800  0.94821100  0.97857000  1
  C  C60  1  0.01682100  0.78499700  0.97013200  1
  C  C61  1  0.71415100  0.52660900  0.47129300  1
  C  C62  1  0.47345500  0.71417100  0.47129400  1
  C  C63  1  0.28578000  0.47341000  0.47163500  1
  C  C64  1  0.52665600  0.28580600  0.47163000  1
  C  C65  1  0.19017800  0.00203400  0.00070400  1
  C  C66  1  0.99749400  0.19071300  0.99990700  1
  C  C67  1  0.80898900  0.99807800  0.99910900  1
  C  C68  1  0.00174700  0.80955200  0.99990700  1
  C  C69  1  0.68943900  0.50091900  0.49950200  1
  C  C70  1  0.49919700  0.68946500  0.49949400  1
  C  C71  1  0.31064500  0.49921000  0.49979200  1
  C  C72  1  0.50090200  0.31067400  0.49979600  1
  C  C73  1  0.30894500  0.00130900  0.00104200  1
  C  C74  1  0.99830500  0.30944600  0.99957900  1
  C  C75  1  0.69024900  0.99875200  0.99866100  1
  C  C76  1  0.00115900  0.69079000  0.00012900  1
  C  C77  1  0.80881500  0.50026200  0.49972100  1
  C  C78  1  0.49984600  0.80884300  0.49971100  1
  C  C79  1  0.19127300  0.49987900  0.50014600  1
  C  C80  1  0.50022400  0.19129800  0.50014500  1
  C  C81  1  0.28414900  0.93535500  0.00645200  1
  C  C82  1  0.06395400  0.28465900  0.99353600  1
  C  C83  1  0.71502700  0.06446100  0.99270600  1
  C  C84  1  0.93528400  0.71546700  0.00581900  1
  C  C85  1  0.78406500  0.43333900  0.50151800  1
  C  C86  1  0.56677000  0.78409900  0.50153900  1
  C  C87  1  0.21603700  0.56681200  0.50182000  1
  C  C88  1  0.43328900  0.21607200  0.50178900  1
  C  C89  1  0.28566300  0.02416900  0.97224200  1
  C  C90  1  0.95344600  0.28539600  0.97680200  1
  C  C91  1  0.71446500  0.95403100  0.97585600  1
  C  C92  1  0.02341600  0.71424600  0.97124100  1
  C  C93  1  0.78520200  0.53038700  0.47235100  1
  C  C94  1  0.46978300  0.78522700  0.47232700  1
  C  C95  1  0.21475200  0.46956500  0.47279500  1
  C  C96  1  0.53060200  0.21478600  0.47281100  1
  C  C97  1  0.50323500  0.00456200  0.14560900  1
  C  C98  1  0.00432100  0.49920400  0.14562400  1
  C  C99  1  0.99767600  0.50008800  0.64563600  1
  C  C100  1  0.49876300  0.99778400  0.64563000  1
  C  C101  1  0.99546700  0.50029400  0.85412000  1
  C  C102  1  0.49678500  0.99581200  0.85411700  1
  C  C103  1  0.50157000  0.00251700  0.35409300  1
  C  C104  1  0.00248600  0.49968000  0.35410400  1
  C  C105  1  0.42006000  0.08249900  0.23541900  1
  C  C106  1  0.92643200  0.41577400  0.23527200  1
  C  C107  1  0.58626600  0.92668400  0.23534100  1
  C  C108  1  0.08235800  0.58187900  0.23551300  1
  C  C109  1  0.91279900  0.57735300  0.73520200  1
  C  C110  1  0.42071200  0.91301200  0.73508000  1
  C  C111  1  0.07941100  0.42198700  0.73560700  1
  C  C112  1  0.57598500  0.07970400  0.73572100  1
  C  C113  1  0.94167400  0.48556500  0.86926500  1
  C  C114  1  0.51160100  0.94199600  0.86922500  1
  C  C115  1  0.04973000  0.51546400  0.86879200  1
  C  C116  1  0.48160900  0.05002300  0.86882900  1
  C  C117  1  0.44733800  0.98737000  0.36881000  1
  C  C118  1  0.01701000  0.44568100  0.36911900  1
  C  C119  1  0.55545600  0.01704400  0.36919500  1
  C  C120  1  0.98736900  0.55380700  0.36890600  1
  C  C121  1  0.45906300  0.03771200  0.19014500  1
  C  C122  1  0.97217000  0.45432700  0.19011900  1
  C  C123  1  0.54795500  0.97245600  0.19015000  1
  C  C124  1  0.03749900  0.54316400  0.19020100  1
  C  C125  1  0.95234800  0.53240800  0.69005200  1
  C  C126  1  0.46605600  0.95251100  0.69000000  1
  C  C127  1  0.04146700  0.46746900  0.69030400  1
  C  C128  1  0.53095100  0.04165900  0.69034500  1
  C  C129  1  0.94207900  0.48618200  0.89879700  1
  C  C130  1  0.51116800  0.94235000  0.89875500  1
  C  C131  1  0.05047600  0.51524900  0.89829500  1
  C  C132  1  0.48200500  0.05071800  0.89833400  1
  C  C133  1  0.44683800  0.98714700  0.39833100  1
  C  C134  1  0.01597800  0.44561900  0.39863200  1
  C  C135  1  0.55529400  0.01600000  0.39870800  1
  C  C136  1  0.98715600  0.55408300  0.39842800  1
  C  C137  1  0.99661300  0.50071600  0.91346400  1
  C  C138  1  0.49672900  0.99685500  0.91346400  1
  C  C139  1  0.50090500  0.00124200  0.41343800  1
  C  C140  1  0.00123400  0.49989700  0.41344800  1
  C  C141  1  0.50165600  0.00216000  0.05488800  1
  C  C142  1  0.00191200  0.49974700  0.05490400  1
  C  C143  1  0.99946200  0.50015500  0.55491200  1
  C  C144  1  0.49949500  0.99949400  0.55490300  1
  C  C145  1  0.37890300  0.00094000  0.00082100  1
  C  C146  1  0.99868500  0.37937500  0.99944200  1
  C  C147  1  0.62032000  0.99904700  0.99861600  1
  C  C148  1  0.00078500  0.62082700  0.00000400  1
  C  C149  1  0.87909400  0.50025100  0.49966900  1
  C  C150  1  0.49985300  0.87912200  0.49966000  1
  C  C151  1  0.12099700  0.49989100  0.50011500  1
  C  C152  1  0.50020900  0.12102000  0.50010800  1
  C  C153  1  0.49752000  0.99784700  0.94483200  1
  C  C154  1  0.99759600  0.50050700  0.94483400  1
  C  C155  1  0.00064900  0.49997800  0.44482000  1
  C  C156  1  0.50057400  0.00066600  0.44481100  1
  C  C157  1  0.49731500  0.94845800  0.13101000  1
  C  C158  1  0.05975700  0.49358500  0.13045100  1
  C  C159  1  0.50873000  0.05999500  0.13042400  1
  C  C160  1  0.94823200  0.50516500  0.13101500  1
  C  C161  1  0.99260100  0.44430400  0.63070600  1
  C  C162  1  0.55468500  0.99272000  0.63080300  1
  C  C163  1  0.00334900  0.55591600  0.63078100  1
  C  C164  1  0.44306500  0.00341800  0.63067000  1
  C  C165  1  0.49718700  0.94765500  0.10150800  1
  C  C166  1  0.05914400  0.49409400  0.10092100  1
  C  C167  1  0.50801500  0.05937600  0.10089400  1
  C  C168  1  0.94743400  0.50508900  0.10151200  1
  C  C169  1  0.99352000  0.44424700  0.60119300  1
  C  C170  1  0.55500500  0.99360900  0.60129000  1
  C  C171  1  0.00365300  0.55604000  0.60126000  1
  C  C172  1  0.44320400  0.00369400  0.60114900  1
  C  C173  1  0.03558600  0.46245100  0.80927700  1
  C  C174  1  0.53481800  0.03604100  0.80932900  1
  C  C175  1  0.95482000  0.53679300  0.80910000  1
  C  C176  1  0.46053100  0.95522700  0.80904200  1
  C  C177  1  0.54246200  0.96607300  0.30914000  1
  C  C178  1  0.04052900  0.53965100  0.30923700  1
  C  C179  1  0.46188100  0.04061400  0.30918400  1
  C  C180  1  0.96593600  0.45911800  0.30911100  1
  C  C181  1  0.95429500  0.53679500  0.77941800  1
  C  C182  1  0.46079000  0.95465700  0.77936000  1
  C  C183  1  0.03668100  0.46233500  0.77960900  1
  C  C184  1  0.53519800  0.03708800  0.77966100  1
  C  C185  1  0.46149800  0.04121800  0.27950600  1
  C  C186  1  0.96636500  0.45807400  0.27944000  1
  C  C187  1  0.54369000  0.96654500  0.27947000  1
  C  C188  1  0.04109200  0.54021700  0.27955900  1
  C  C189  1  0.99568700  0.49959400  0.76451200  1
  C  C190  1  0.49811000  0.99603800  0.76450900  1
  C  C191  1  0.50279700  0.00413700  0.26448600  1
  C  C192  1  0.00396400  0.49903400  0.26449700  1
  C  C193  1  0.37863100  0.13028200  0.22044500  1
  C  C194  1  0.34971400  0.18042000  0.23963400  1
  C  C195  1  0.31785000  0.22976900  0.22126100  1
  C  C196  1  0.87906900  0.37406700  0.22017300  1
  C  C197  1  0.82863400  0.34511800  0.23919100  1
  C  C198  1  0.77989900  0.31274900  0.22066100  1
  C  C199  1  0.62806300  0.87934300  0.22028100  1
  C  C200  1  0.65689200  0.82888200  0.23932200  1
  C  C201  1  0.68935200  0.78015800  0.22081900  1
  C  C202  1  0.13016500  0.62335000  0.22057900  1
  C  C203  1  0.18033800  0.65212600  0.23979300  1
  C  C204  1  0.22970000  0.68405100  0.22144900  1
  C  C205  1  0.87128700  0.62485200  0.72008600  1
  C  C206  1  0.84195700  0.67498600  0.73914600  1
  C  C207  1  0.80993300  0.72399500  0.72064300  1
  C  C208  1  0.37343000  0.87138600  0.71988800  1
  C  C209  1  0.32318700  0.84196900  0.73886100  1
  C  C210  1  0.27444100  0.80977400  0.72027400  1
  C  C211  1  0.12132300  0.37454800  0.72068200  1
  C  C212  1  0.14982100  0.32410900  0.73983800  1
  C  C213  1  0.18224600  0.27514600  0.72145400  1
  C  C214  1  0.62360100  0.12154700  0.72087400  1
  C  C215  1  0.67389900  0.15000900  0.74011800  1
  C  C216  1  0.72309900  0.18230600  0.72181800  1
  N  N1  1  0.50355000  0.00513300  0.17617900  1
  N  N2  1  0.00485900  0.49879000  0.17619300  1
  N  N3  1  0.99715300  0.50001000  0.67620700  1
  N  N4  1  0.49856600  0.99730500  0.67620200  1
  N  N5  1  0.99514000  0.49971900  0.82353500  1
  N  N6  1  0.49745600  0.99558800  0.82353200  1
  N  N7  1  0.50196500  0.00307700  0.32350800  1
  N  N8  1  0.00299000  0.49949900  0.32351900  1
  O  O1  1  0.99512400  0.09121900  0.02452300  1
  O  O2  1  0.90753200  0.99610300  0.02427500  1
  O  O3  1  0.99745100  0.90845300  0.02459700  1
  O  O4  1  0.09030100  0.99842700  0.02486500  1
  O  O5  1  0.51735700  0.58989300  0.52304600  1
  O  O6  1  0.41039200  0.51738800  0.52319100  1
  O  O7  1  0.48290000  0.41042800  0.52322200  1
  O  O8  1  0.58986300  0.48293200  0.52307600  1
  O  O9  1  0.00158900  0.09185300  0.97521000  1
  O  O10  1  0.90882000  0.00169100  0.97494300  1
  O  O11  1  0.00418200  0.90899800  0.97529100  1
  O  O12  1  0.09167800  0.00428400  0.97554100  1
  O  O13  1  0.48165700  0.58955000  0.47594500  1
  O  O14  1  0.41038100  0.48167900  0.47609200  1
  O  O15  1  0.51825600  0.41040700  0.47606700  1
  O  O16  1  0.58953000  0.51827600  0.47592000  1
  O  O17  1  0.07387500  0.42406600  0.82406500  1
  O  O18  1  0.57307400  0.07435300  0.82417300  1
  O  O19  1  0.91630700  0.57527200  0.82371300  1
  O  O20  1  0.42197800  0.91668400  0.82359800  1
  O  O21  1  0.58055300  0.92727200  0.32380700  1
  O  O22  1  0.07881700  0.57806400  0.32400900  1
  O  O23  1  0.42335400  0.07885900  0.32391700  1
  O  O24  1  0.92713300  0.42096100  0.32374000  1
  O  O25  1  0.41253400  0.06306900  0.17453600  1
  O  O26  1  0.94696800  0.40777000  0.17447500  1
  O  O27  1  0.59460900  0.94728700  0.17455500  1
  O  O28  1  0.06291400  0.58973100  0.17463500  1
  O  O29  1  0.90592900  0.55758300  0.67431300  1
  O  O30  1  0.44104100  0.90606300  0.67422700  1
  O  O31  1  0.08847100  0.44251400  0.67485500  1
  O  O32  1  0.55602200  0.08865300  0.67493000  1
  O  O33  1  0.49926500  0.05587700  0.04105400  1
  O  O34  1  0.94718500  0.49791800  0.04194100  1
  O  O35  1  0.50316100  0.94743900  0.04191400  1
  O  O36  1  0.05562900  0.50168900  0.04105700  1
  O  O37  1  0.99708100  0.55434000  0.54148100  1
  O  O38  1  0.44542000  0.99710900  0.54138000  1
  O  O39  1  0.00219500  0.44593800  0.54152800  1
  O  O40  1  0.55382400  0.00222300  0.54161100  1
  O  O41  1  0.40837800  0.05500100  0.00143500  1
  O  O42  1  0.94478600  0.40881800  0.00153500  1
  O  O43  1  0.59098200  0.94512900  0.00092400  1
  O  O44  1  0.05482200  0.59132800  0.00084800  1
  O  O45  1  0.90836400  0.55445300  0.50086000  1
  O  O46  1  0.44564000  0.90839200  0.50076100  1
  O  O47  1  0.09171400  0.44569200  0.50126800  1
  O  O48  1  0.55439900  0.09173700  0.50135000  1
  O  O49  1  0.40806400  0.94671400  0.00188300  1
  O  O50  1  0.05300900  0.40841600  0.00011700  1
  O  O51  1  0.59125400  0.05333900  0.99951000  1
  O  O52  1  0.94654500  0.59173600  0.00128900  1
  O  O53  1  0.90871400  0.44619900  0.50069800  1
  O  O54  1  0.55389800  0.90874300  0.50078100  1
  O  O55  1  0.09136800  0.55394900  0.50102800  1
  O  O56  1  0.44614200  0.09139100  0.50092600  1
  O  O57  1  0.49494200  0.05239600  0.95783000  1
  O  O58  1  0.94406100  0.49732500  0.95869200  1
  O  O59  1  0.50113300  0.94431900  0.95867000  1
  O  O60  1  0.05214700  0.50341400  0.95781500  1
  O  O61  1  0.99734700  0.55403100  0.45821700  1
  O  O62  1  0.44641100  0.99736800  0.45811800  1
  O  O63  1  0.00358400  0.44597400  0.45827100  1
  O  O64  1  0.55446900  0.00360700  0.45835400  1
