# generated using pymatgen
data_ZnH11C21N3O8
_symmetry_space_group_name_H-M   'P 1'
_cell_length_a   13.39855800
_cell_length_b   8.55062800
_cell_length_c   19.33462100
_cell_angle_alpha   90.00000000
_cell_angle_beta   91.03921600
_cell_angle_gamma   90.00000000
_symmetry_Int_Tables_number   1
_chemical_formula_structural   ZnH11C21N3O8
_chemical_formula_sum   'Zn2 H22 C42 N6 O16'
_cell_volume   2214.72748883
_cell_formula_units_Z   2
loop_
 _symmetry_equiv_pos_site_id
 _symmetry_equiv_pos_as_xyz
  1  'x, y, z'
loop_
 _atom_site_type_symbol
 _atom_site_label
 _atom_site_symmetry_multiplicity
 _atom_site_fract_x
 _atom_site_fract_y
 _atom_site_fract_z
 _atom_site_occupancy
  Zn  Zn1  1  0.88889200  0.50071600  0.50240400  1
  Zn  Zn2  1  0.11110100  0.50090100  0.49762500  1
  H  H1  1  0.03534100  0.00235400  0.54925800  1
  H  H2  1  0.96472600  0.00141200  0.45075000  1
  H  H3  1  0.85265800  0.91103000  0.04647200  1
  H  H4  1  0.85061500  0.09185000  0.95413300  1
  H  H5  1  0.14602300  0.90461400  0.95356300  1
  H  H6  1  0.15116700  0.08579400  0.04600300  1
  H  H7  1  0.85734400  0.90926200  0.17313600  1
  H  H8  1  0.84758700  0.09387900  0.82726100  1
  H  H9  1  0.14105700  0.90239400  0.82688500  1
  H  H10  1  0.15400500  0.08824200  0.17289700  1
  H  H11  1  0.25022100  0.51266000  0.60468700  1
  H  H12  1  0.74979900  0.48802200  0.39530100  1
  H  H13  1  0.40436300  0.49812200  0.67020800  1
  H  H14  1  0.59565600  0.50148800  0.32970700  1
  H  H15  1  0.54093000  0.33097400  0.36888000  1
  H  H16  1  0.45882700  0.66919000  0.63128600  1
  H  H17  1  0.53995500  0.33514700  0.63355200  1
  H  H18  1  0.46031600  0.66529200  0.36625900  1
  H  H19  1  0.40617600  0.49310200  0.32667900  1
  H  H20  1  0.59385400  0.50741300  0.67322900  1
  H  H21  1  0.25045200  0.51074400  0.38753500  1
  H  H22  1  0.74950200  0.49115300  0.61243700  1
  C  C1  1  0.00613200  0.14054500  0.63712300  1
  C  C2  1  0.98928200  0.86087300  0.36289900  1
  C  C3  1  0.99401200  0.14015800  0.36304700  1
  C  C4  1  0.01056800  0.86127700  0.63696400  1
  C  C5  1  0.98880600  0.14022000  0.70749700  1
  C  C6  1  0.99638200  0.85899900  0.29177400  1
  C  C7  1  0.01127100  0.14022800  0.29266700  1
  C  C8  1  0.00350200  0.85905100  0.70808000  1
  C  C9  1  0.99414900  0.99952600  0.74371800  1
  C  C10  1  0.00589300  0.99969600  0.25630900  1
  C  C11  1  0.02048800  0.00150300  0.60351000  1
  C  C12  1  0.97951500  0.00094100  0.39649200  1
  C  C13  1  0.91888800  0.95106100  0.07384100  1
  C  C14  1  0.91455600  0.04946600  0.92647000  1
  C  C15  1  0.08044800  0.94727000  0.92620900  1
  C  C16  1  0.08647700  0.04629100  0.07363800  1
  C  C17  1  0.92172000  0.94869300  0.14509100  1
  C  C18  1  0.91293300  0.05175600  0.85508300  1
  C  C19  1  0.07743400  0.94467700  0.85494800  1
  C  C20  1  0.08799600  0.04888300  0.14502400  1
  C  C21  1  0.00559500  0.99960100  0.18076200  1
  C  C22  1  0.99442300  0.99903500  0.81928800  1
  C  C23  1  0.00144300  0.99907000  0.03786400  1
  C  C24  1  0.99881900  0.99894000  0.96221500  1
  C  C25  1  0.00601600  0.71975400  0.59440600  1
  C  C26  1  0.99515100  0.28215000  0.40542000  1
  C  C27  1  0.99381100  0.71925000  0.40540000  1
  C  C28  1  0.00501100  0.28271400  0.59487000  1
  C  C29  1  0.29158000  0.50486000  0.43608900  1
  C  C30  1  0.70838500  0.49662500  0.56387700  1
  C  C31  1  0.29148500  0.50623400  0.55725900  1
  C  C32  1  0.70852700  0.49465300  0.44271700  1
  C  C33  1  0.39435800  0.50823600  0.55969600  1
  C  C34  1  0.60564400  0.49224500  0.44025100  1
  C  C35  1  0.44590200  0.50131700  0.49906100  1
  C  C36  1  0.55409000  0.49917400  0.50086400  1
  C  C37  1  0.39472100  0.50670300  0.43677500  1
  C  C38  1  0.60526200  0.49417400  0.56315000  1
  C  C39  1  0.44857200  0.54099400  0.62613900  1
  C  C40  1  0.55139300  0.45915900  0.37384900  1
  C  C41  1  0.55024600  0.46320400  0.62802200  1
  C  C42  1  0.44981600  0.53729400  0.37187900  1
  N  N1  1  0.24189800  0.50088700  0.49603500  1
  N  N2  1  0.75809300  0.50058200  0.50395800  1
  N  N3  1  0.97047000  0.28415500  0.74240700  1
  N  N4  1  0.99044000  0.71358800  0.25566300  1
  N  N5  1  0.02988500  0.28436300  0.25794300  1
  N  N6  1  0.00905700  0.71341100  0.74399500  1
  O  O1  1  0.08962500  0.67006000  0.56835700  1
  O  O2  1  0.91082000  0.33105400  0.43172700  1
  O  O3  1  0.91023000  0.66966800  0.43155400  1
  O  O4  1  0.08933200  0.33145700  0.56843500  1
  O  O5  1  0.91791500  0.66487200  0.57505700  1
  O  O6  1  0.08238600  0.33754600  0.42481800  1
  O  O7  1  0.08193600  0.66446700  0.42474100  1
  O  O8  1  0.91772800  0.33796200  0.57545800  1
  O  O9  1  0.91723800  0.39198200  0.71199700  1
  O  O10  1  0.00599000  0.30856800  0.80449700  1
  O  O11  1  0.93849600  0.59964500  0.28119100  1
  O  O12  1  0.03239200  0.69580000  0.19605400  1
  O  O13  1  0.08270000  0.39216800  0.28871200  1
  O  O14  1  0.99597900  0.30839400  0.19540900  1
  O  O15  1  0.06128300  0.59964300  0.71858700  1
  O  O16  1  0.96614500  0.69509200  0.80323000  1
