# generated using pymatgen
data_CuH26C30NO7
_symmetry_space_group_name_H-M   'P 1'
_cell_length_a   10.92256900
_cell_length_b   17.71660300
_cell_length_c   16.23792700
_cell_angle_alpha   89.97500600
_cell_angle_beta   89.99792400
_cell_angle_gamma   89.99845800
_symmetry_Int_Tables_number   1
_chemical_formula_structural   CuH26C30NO7
_chemical_formula_sum   'Cu2 H52 C60 N2 O14'
_cell_volume   3142.21424580
_cell_formula_units_Z   2
loop_
 _symmetry_equiv_pos_site_id
 _symmetry_equiv_pos_as_xyz
  1  'x, y, z'
loop_
 _atom_site_type_symbol
 _atom_site_label
 _atom_site_symmetry_multiplicity
 _atom_site_fract_x
 _atom_site_fract_y
 _atom_site_fract_z
 _atom_site_occupancy
  Cu  Cu1  1  0.49160300  0.49928700  0.57928300  1
  Cu  Cu2  1  0.49761100  0.49930700  0.41484700  1
  H  H1  1  0.22983300  0.59859600  0.13294800  1
  H  H2  1  0.77974900  0.42330200  0.87438400  1
  H  H3  1  0.25796300  0.67990300  0.25406600  1
  H  H4  1  0.71521700  0.34307600  0.75879400  1
  H  H5  1  0.17668400  0.64095700  0.38856600  1
  H  H6  1  0.78772900  0.36990000  0.61874900  1
  H  H7  1  0.03915600  0.43841600  0.28093400  1
  H  H8  1  0.98814000  0.55898300  0.70950900  1
  H  H9  1  0.87450100  0.52394200  0.37328100  1
  H  H10  1  0.11632000  0.47223400  0.62045300  1
  H  H11  1  0.44241900  0.87772200  0.62232600  1
  H  H12  1  0.54233500  0.12097500  0.37056500  1
  H  H13  1  0.54157600  0.73645200  0.37052700  1
  H  H14  1  0.45717400  0.26181900  0.62487400  1
  H  H15  1  0.57917400  0.60433000  0.86169800  1
  H  H16  1  0.37872900  0.40405600  0.13438900  1
  H  H17  1  0.58397100  0.60183600  0.71114700  1
  H  H18  1  0.38270000  0.40578200  0.28507700  1
  H  H19  1  0.39453300  0.39471000  0.71042200  1
  H  H20  1  0.61509200  0.59534100  0.28261500  1
  H  H21  1  0.39520500  0.39286400  0.86140500  1
  H  H22  1  0.61171300  0.59654700  0.13129800  1
  H  H23  1  0.70845000  0.82986400  0.31300000  1
  H  H24  1  0.72115300  0.87554000  0.41245300  1
  H  H25  1  0.70043900  0.00052700  0.34577600  1
  H  H26  1  0.82830400  0.94810800  0.30382300  1
  H  H27  1  0.68682000  0.95527500  0.24621300  1
  H  H28  1  0.56347600  0.16641000  0.72780600  1
  H  H29  1  0.64208600  0.11824300  0.64476400  1
  H  H30  1  0.56878300  0.99529600  0.69771500  1
  H  H31  1  0.65466300  0.04614300  0.77526600  1
  H  H32  1  0.48911900  0.04303400  0.78047500  1
  H  H33  1  0.03976900  0.52454000  0.03540100  1
  H  H34  1  0.96012500  0.53260200  0.13268200  1
  H  H35  1  0.90568000  0.39663100  0.12612700  1
  H  H36  1  0.84875700  0.44816500  0.03776700  1
  H  H37  1  0.98332100  0.38912900  0.02791900  1
  H  H38  1  0.79207200  0.60546600  0.81866800  1
  H  H39  1  0.93963000  0.64993200  0.83210400  1
  H  H40  1  0.91830800  0.64110700  0.98284400  1
  H  H41  1  0.78815800  0.68961800  0.93870100  1
  H  H42  1  0.77361900  0.59227200  0.97131600  1
  H  H43  1  0.25910200  0.72694600  0.58020500  1
  H  H44  1  0.26942600  0.79340000  0.66489400  1
  H  H45  1  0.28841000  0.68700800  0.76312300  1
  H  H46  1  0.14806600  0.68189100  0.70407000  1
  H  H47  1  0.27535900  0.62081200  0.67867500  1
  H  H48  1  0.71057900  0.20601200  0.32109300  1
  H  H49  1  0.72698100  0.27131200  0.40641300  1
  H  H50  1  0.70364200  0.37879100  0.31064200  1
  H  H51  1  0.82836100  0.31803300  0.27936500  1
  H  H52  1  0.68335100  0.31398800  0.22553100  1
  C  C1  1  0.49853000  0.35394500  0.49674900  1
  C  C2  1  0.49098500  0.64464000  0.49733100  1
  C  C3  1  0.25857800  0.49897700  0.49270500  1
  C  C4  1  0.73075000  0.49939900  0.50150200  1
  C  C5  1  0.21010000  0.62677600  0.26004500  1
  C  C6  1  0.77355900  0.39130200  0.74767300  1
  C  C7  1  0.16506600  0.60466100  0.33563400  1
  C  C8  1  0.81375800  0.40669200  0.66888000  1
  C  C9  1  0.10504600  0.53639400  0.34362300  1
  C  C10  1  0.88739600  0.46875000  0.65432000  1
  C  C11  1  0.08717600  0.49152200  0.27520400  1
  C  C12  1  0.92613000  0.51237200  0.71991600  1
  C  C13  1  0.13126500  0.51395100  0.19940500  1
  C  C14  1  0.88648400  0.49686300  0.79883700  1
  C  C15  1  0.19388000  0.58128800  0.19204700  1
  C  C16  1  0.80954200  0.43641600  0.81253000  1
  C  C17  1  0.92632000  0.51119200  0.42820100  1
  C  C18  1  0.06370600  0.48508000  0.56592900  1
  C  C19  1  0.86647800  0.49730100  0.50193700  1
  C  C20  1  0.12311200  0.49980600  0.49254200  1
  C  C21  1  0.93752400  0.48402600  0.57207500  1
  C  C22  1  0.05250100  0.51403200  0.42292100  1
  C  C23  1  0.46396800  0.84614400  0.56724700  1
  C  C24  1  0.52524100  0.15248300  0.42639200  1
  C  C25  1  0.45924800  0.76831700  0.56821900  1
  C  C26  1  0.52855100  0.23033400  0.42516900  1
  C  C27  1  0.48927500  0.72776600  0.49759600  1
  C  C28  1  0.50212100  0.27080400  0.49652600  1
  C  C29  1  0.51916300  0.76663300  0.42635200  1
  C  C30  1  0.47845200  0.23180800  0.56875300  1
  C  C31  1  0.52356000  0.84457900  0.42600900  1
  C  C32  1  0.47955600  0.15383100  0.56993600  1
  C  C33  1  0.49519900  0.88424400  0.49653500  1
  C  C34  1  0.50105400  0.11427100  0.49826500  1
  C  C35  1  0.49737100  0.96525400  0.49692400  1
  C  C36  1  0.49890100  0.03326500  0.49786000  1
  C  C37  1  0.53891000  0.55751400  0.82881700  1
  C  C38  1  0.43186100  0.44633200  0.16641100  1
  C  C39  1  0.54038000  0.55615500  0.74397200  1
  C  C40  1  0.43477900  0.44731600  0.25122500  1
  C  C41  1  0.43624200  0.44080800  0.74367300  1
  C  C42  1  0.56341400  0.55292200  0.24979300  1
  C  C43  1  0.43586100  0.43975200  0.82872500  1
  C  C44  1  0.56170800  0.55371700  0.16473400  1
  C  C45  1  0.48720200  0.49877100  0.87165800  1
  C  C46  1  0.49582200  0.49978100  0.12270500  1
  C  C47  1  0.48938700  0.49887100  0.96008200  1
  C  C48  1  0.49237400  0.49943400  0.03430000  1
  C  C49  1  0.68054700  0.87957800  0.35000900  1
  C  C50  1  0.72711000  0.95062700  0.30869900  1
  C  C51  1  0.56200700  0.11643000  0.68670800  1
  C  C52  1  0.56911100  0.04547800  0.73849200  1
  C  C53  1  0.01255000  0.49400000  0.09212200  1
  C  C54  1  0.93222500  0.42753300  0.06946600  1
  C  C55  1  0.87413100  0.60862800  0.85847400  1
  C  C56  1  0.83601000  0.63458500  0.94352700  1
  C  C57  1  0.29796100  0.73700500  0.64233100  1
  C  C58  1  0.24925800  0.67769000  0.70094000  1
  C  C59  1  0.68356500  0.26203900  0.34551600  1
  C  C60  1  0.72759200  0.32226000  0.28633300  1
  N  N1  1  0.48652900  0.49922900  0.70243600  1
  N  N2  1  0.50232600  0.49908200  0.29172000  1
  O  O1  1  0.49883700  0.38961300  0.56751500  1
  O  O2  1  0.49144600  0.60901300  0.42650400  1
  O  O3  1  0.49448300  0.38964100  0.42632700  1
  O  O4  1  0.49382900  0.60896800  0.56784200  1
  O  O5  1  0.31424700  0.50056200  0.56420700  1
  O  O6  1  0.67501200  0.49738700  0.42990100  1
  O  O7  1  0.31926300  0.49577600  0.42313700  1
  O  O8  1  0.66992000  0.50338800  0.57099900  1
  O  O9  1  0.55292700  0.88245400  0.35523600  1
  O  O10  1  0.45342400  0.11588700  0.64122800  1
  O  O11  1  0.11727500  0.46794300  0.13243400  1
  O  O12  1  0.93003500  0.53788100  0.86406500  1
  O  O13  1  0.42571700  0.73258000  0.63956200  1
  O  O14  1  0.55616200  0.26613600  0.35272400  1
