# generated using pymatgen
data_Zn2H14C27(N2O3)3
_symmetry_space_group_name_H-M   'P 1'
_cell_length_a   9.28810400
_cell_length_b   8.55228800
_cell_length_c   15.00075100
_cell_angle_alpha   90.00000000
_cell_angle_beta   91.02411500
_cell_angle_gamma   90.00000000
_symmetry_Int_Tables_number   1
_chemical_formula_structural   Zn2H14C27(N2O3)3
_chemical_formula_sum   'Zn2 H14 C27 N6 O9'
_cell_volume   1191.38741977
_cell_formula_units_Z   1
loop_
 _symmetry_equiv_pos_site_id
 _symmetry_equiv_pos_as_xyz
  1  'x, y, z'
loop_
 _atom_site_type_symbol
 _atom_site_label
 _atom_site_symmetry_multiplicity
 _atom_site_fract_x
 _atom_site_fract_y
 _atom_site_fract_z
 _atom_site_occupancy
  Zn  Zn1  1  0.83573100  0.50026500  0.50305400  1
  Zn  Zn2  1  0.15749700  0.50026400  0.49969000  1
  H  H1  1  0.04120300  0.00026200  0.56393800  1
  H  H2  1  0.98474700  0.25141800  0.80348000  1
  H  H3  1  0.98474800  0.74911100  0.80348200  1
  H  H4  1  0.02038900  0.25124700  0.20099400  1
  H  H5  1  0.02039100  0.74928400  0.20099500  1
  H  H6  1  0.94033900  0.00026700  0.43768300  1
  H  H7  1  0.62801700  0.50027700  0.64065500  1
  H  H8  1  0.75461700  0.50026700  0.33072200  1
  H  H9  1  0.36178400  0.50025100  0.19579400  1
  H  H10  1  0.23833000  0.50026800  0.32511300  1
  H  H11  1  0.36423600  0.50027700  0.63711200  1
  H  H12  1  0.72403800  0.39473300  0.17393000  1
  H  H13  1  0.72412000  0.60561200  0.17369000  1
  H  H14  1  0.56759400  0.39101400  0.07795100  1
  C  C1  1  0.00509500  0.14008600  0.67750900  1
  C  C2  1  0.00509600  0.86044000  0.67751000  1
  C  C3  1  0.99132700  0.14090900  0.76887400  1
  C  C4  1  0.99132700  0.85961900  0.76887500  1
  C  C5  1  0.99137300  0.00026500  0.81523500  1
  C  C6  1  0.02093400  0.00026300  0.63394200  1
  C  C7  1  0.01290500  0.00026600  0.09108600  1
  C  C8  1  0.99513200  0.00026500  0.91293800  1
  C  C9  1  0.01014600  0.14066800  0.23515000  1
  C  C10  1  0.01014700  0.85986400  0.23515000  1
  C  C11  1  0.98817400  0.13939600  0.32579900  1
  C  C12  1  0.98817500  0.86113500  0.32580000  1
  C  C13  1  0.96665800  0.00026600  0.36849000  1
  C  C14  1  0.01276300  0.00026600  0.18874800  1
  C  C15  1  0.00169000  0.71760900  0.62370500  1
  C  C16  1  0.00168900  0.28291700  0.62370300  1
  C  C17  1  0.99149800  0.71988400  0.38024000  1
  C  C18  1  0.99149700  0.28064800  0.38023800  1
  C  C19  1  0.64216000  0.50024800  0.33931700  1
  C  C20  1  0.56983600  0.50022000  0.25901300  1
  C  C21  1  0.42338400  0.50023300  0.25755500  1
  C  C22  1  0.35089300  0.50025100  0.33601700  1
  C  C23  1  0.42150500  0.50025400  0.41936000  1
  C  C24  1  0.57161200  0.50025500  0.42131400  1
  C  C25  1  0.57113000  0.50027200  0.57715900  1
  C  C26  1  0.42164000  0.50027100  0.57506600  1
  C  C27  1  0.65463300  0.50021200  0.17527800  1
  N  N1  1  0.00009100  0.86427900  0.95797100  1
  N  N2  1  0.00009100  0.13625300  0.95797100  1
  N  N3  1  0.00818100  0.86427800  0.04604900  1
  N  N4  1  0.00818100  0.13625300  0.04604900  1
  N  N5  1  0.64587200  0.50026500  0.50100300  1
  N  N6  1  0.34719100  0.50026300  0.49697600  1
  O  O1  1  0.12498000  0.66836000  0.59137200  1
  O  O2  1  0.12497900  0.33216500  0.59137100  1
  O  O3  1  0.87421000  0.66317900  0.59783400  1
  O  O4  1  0.87420900  0.33734800  0.59783300  1
  O  O5  1  0.87106600  0.67052100  0.41318700  1
  O  O6  1  0.87106500  0.33001100  0.41318600  1
  O  O7  1  0.11623900  0.66513200  0.40663200  1
  O  O8  1  0.11623800  0.33539900  0.40663000  1
  O  O9  1  0.56389000  0.49987100  0.10024300  1
