# generated using pymatgen
data_Cu6H60C79O46
_symmetry_space_group_name_H-M   'P 1'
_cell_length_a   21.29889500
_cell_length_b   21.39023100
_cell_length_c   21.91039800
_cell_angle_alpha   60.82276300
_cell_angle_beta   119.06130300
_cell_angle_gamma   89.96036700
_symmetry_Int_Tables_number   1
_chemical_formula_structural   Cu6H60C79O46
_chemical_formula_sum   'Cu6 H60 C79 O46'
_cell_volume   7239.99588766
_cell_formula_units_Z   1
loop_
 _symmetry_equiv_pos_site_id
 _symmetry_equiv_pos_as_xyz
  1  'x, y, z'
loop_
 _atom_site_type_symbol
 _atom_site_label
 _atom_site_symmetry_multiplicity
 _atom_site_fract_x
 _atom_site_fract_y
 _atom_site_fract_z
 _atom_site_occupancy
  Cu  Cu1  1  0.50172700  0.42824500  0.51028300  1
  Cu  Cu2  1  0.50220700  0.55320200  0.50945100  1
  Cu  Cu3  1  0.07015700  0.99628800  0.50850300  1
  Cu  Cu4  1  0.94653400  0.99428600  0.51140600  1
  Cu  Cu5  1  0.03049700  0.46814400  0.56958500  1
  Cu  Cu6  1  0.95313500  0.54390700  0.40604100  1
  H  H1  1  0.37654100  0.76596500  0.06643800  1
  H  H2  1  0.32763500  0.71255800  0.96070400  1
  H  H3  1  0.23121300  0.87259400  0.95801700  1
  H  H4  1  0.18736200  0.76716600  0.05893900  1
  H  H5  1  0.13846600  0.71374700  0.95325400  1
  H  H6  1  0.28376000  0.60711000  0.06163200  1
  H  H7  1  0.66297000  0.43827300  0.43518900  1
  H  H8  1  0.71923000  0.37577500  0.54856000  1
  H  H9  1  0.82760300  0.38270700  0.56135500  1
  H  H10  1  0.60892200  0.58016700  0.36813300  1
  H  H11  1  0.73839900  0.53588100  0.57957300  1
  H  H12  1  0.77174500  0.43509400  0.63251600  1
  H  H13  1  0.86739800  0.44739000  0.61914200  1
  H  H14  1  0.83669500  0.54589600  0.56420600  1
  H  H15  1  0.65671900  0.61457900  0.43022700  1
  H  H16  1  0.63179700  0.31861800  0.95705000  1
  H  H17  1  0.69130700  0.15969700  0.06407200  1
  H  H18  1  0.77363900  0.32604200  0.06059900  1
  H  H19  1  0.81653400  0.32884600  0.95597100  1
  H  H20  1  0.87599500  0.16995900  0.06294800  1
  H  H21  1  0.73417100  0.16251700  0.95941600  1
  H  H22  1  0.32066800  0.37626100  0.56213500  1
  H  H23  1  0.27642400  0.43140700  0.44927400  1
  H  H24  1  0.16118000  0.45909900  0.42218700  1
  H  H25  1  0.20216000  0.38790000  0.53248700  1
  H  H26  1  0.37037900  0.43670400  0.64182700  1
  H  H27  1  0.26188100  0.42487000  0.63468200  1
  H  H28  1  0.27174700  0.61693700  0.42597400  1
  H  H29  1  0.23409200  0.57053900  0.37185700  1
  H  H30  1  0.12960700  0.59766800  0.36948200  1
  H  H31  1  0.18029400  0.61845700  0.44840700  1
  H  H32  1  0.33615200  0.53809000  0.58423500  1
  H  H33  1  0.23864300  0.52320000  0.59815000  1
  H  H34  1  0.03117500  0.85311200  0.40569700  1
  H  H35  1  0.09676900  0.69044200  0.50199800  1
  H  H36  1  0.08363900  0.72975900  0.63133900  1
  H  H37  1  0.07969900  0.63448600  0.61226400  1
  H  H38  1  0.88865800  0.82224700  0.46699500  1
  H  H39  1  0.88085000  0.72836500  0.45985000  1
  H  H40  1  0.98803300  0.74591700  0.59950300  1
  H  H41  1  0.98709300  0.64605400  0.59395100  1
  H  H42  1  0.10281600  0.19554500  0.49701200  1
  H  H43  1  0.12843600  0.15628100  0.60188100  1
  H  H44  1  0.12611300  0.27112100  0.57708000  1
  H  H45  1  0.97912800  0.26383000  0.38429700  1
  H  H46  1  0.92765900  0.37200400  0.36209200  1
  H  H47  1  0.92461400  0.18808300  0.53858800  1
  H  H48  1  0.93779400  0.28001700  0.55559500  1
  H  H49  1  0.88499800  0.32866500  0.41787800  1
  H  H50  1  0.78226700  0.42706500  0.34431900  1
  H  H51  1  0.62339200  0.55581200  0.23998400  1
  H  H52  1  0.75739500  0.72173700  0.41808700  1
  H  H53  1  0.22196900  0.82311900  0.53345200  1
  H  H54  1  0.97260900  0.83302300  0.24909300  1
  H  H55  1  0.86507000  0.97874500  0.24862000  1
  H  H56  1  0.74839700  0.83786800  0.23588500  1
  H  H57  1  0.06226900  0.41957300  0.34469200  1
  H  H58  1  0.10911000  0.01664200  0.74526400  1
  H  H59  1  0.07149200  0.23553200  0.75534900  1
  H  H60  1  0.78199000  0.22539400  0.35445300  1
  C  C1  1  0.62154800  0.49040600  0.50775500  1
  C  C2  1  0.42044200  0.57039900  0.34839500  1
  C  C3  1  0.38150400  0.49191200  0.51024100  1
  C  C4  1  0.58370500  0.41107000  0.67134200  1
  C  C5  1  0.29645100  0.72427900  0.98426400  1
  C  C6  1  0.32194400  0.75477500  0.03946100  1
  C  C7  1  0.37637100  0.61530600  0.25813600  1
  C  C8  1  0.13703100  0.86588800  0.76153800  1
  C  C9  1  0.27125600  0.66795200  0.03684900  1
  C  C10  1  0.29594600  0.69929200  0.09037300  1
  C  C11  1  0.19306500  0.72493500  0.98022900  1
  C  C12  1  0.21905200  0.78041800  0.92930900  1
  C  C13  1  0.21854700  0.75544200  0.03538300  1
  C  C14  1  0.24375200  0.81173900  0.98285000  1
  C  C15  1  0.33988400  0.65315400  0.18235200  1
  C  C16  1  0.17454200  0.82707300  0.83732500  1
  C  C17  1  0.70926200  0.43063200  0.49426000  1
  C  C18  1  0.78178100  0.42918400  0.49681700  1
  C  C19  1  0.66504900  0.56965900  0.42089900  1
  C  C20  1  0.75384400  0.49025000  0.57404400  1
  C  C21  1  0.68732800  0.49456200  0.49966100  1
  C  C22  1  0.79854600  0.50361500  0.48220500  1
  C  C23  1  0.72661600  0.57370800  0.40310800  1
  C  C24  1  0.81867900  0.49810400  0.56260600  1
  C  C25  1  0.71901600  0.19869700  0.03823300  1
  C  C26  1  0.68781700  0.28427800  0.98236300  1
  C  C27  1  0.62913400  0.36630900  0.76161400  1
  C  C28  1  0.87934400  0.12271700  0.25831900  1
  C  C29  1  0.74376300  0.19895800  0.98364500  1
  C  C30  1  0.71340000  0.28372800  0.92943100  1
  C  C31  1  0.81997300  0.20431000  0.03761800  1
  C  C32  1  0.79439500  0.20486500  0.09054800  1
  C  C33  1  0.78878600  0.28987500  0.98177100  1
  C  C34  1  0.76403100  0.28962700  0.03633500  1
  C  C35  1  0.66720500  0.32891300  0.83741800  1
  C  C36  1  0.84083700  0.15986200  0.18253700  1
  C  C37  1  0.28135300  0.43112000  0.50219600  1
  C  C38  1  0.20382400  0.44174300  0.48740500  1
  C  C39  1  0.32260300  0.48796000  0.58445300  1
  C  C40  1  0.25003900  0.56913900  0.42891100  1
  C  C41  1  0.30968300  0.49478200  0.50668600  1
  C  C42  1  0.18689200  0.50215200  0.49947100  1
  C  C43  1  0.25170100  0.48293400  0.58475500  1
  C  C44  1  0.18128500  0.57726900  0.43195700  1
  C  C45  1  0.00629700  0.87761200  0.50487900  1
  C  C46  1  0.09111900  0.91263200  0.67130800  1
  C  C47  1  0.00857300  0.11484000  0.51127700  1
  C  C48  1  0.92551600  0.07829100  0.34855600  1
  C  C49  1  0.99915300  0.38323000  0.49618200  1
  C  C50  1  0.86946400  0.50511900  0.48186100  1
  C  C51  1  0.98418500  0.62906800  0.47948900  1
  C  C52  1  0.11397900  0.50592700  0.49415600  1
  C  C53  1  0.05033600  0.80069300  0.46647100  1
  C  C54  1  0.04144000  0.73523400  0.45598500  1
  C  C55  1  0.02615100  0.74042700  0.58033100  1
  C  C56  1  0.91821900  0.82380700  0.43657700  1
  C  C57  1  0.00170100  0.81154600  0.49691700  1
  C  C58  1  0.98707700  0.70004100  0.47923900  1
  C  C59  1  0.02178800  0.67443700  0.57100400  1
  C  C60  1  0.90865400  0.75746300  0.42734900  1
  C  C61  1  0.08449900  0.19911500  0.53495900  1
  C  C62  1  0.07901900  0.27712700  0.51971300  1
  C  C63  1  0.95214100  0.25304800  0.41931700  1
  C  C64  1  0.98501500  0.18397400  0.56722800  1
  C  C65  1  0.00768000  0.18581500  0.50967800  1
  C  C66  1  0.00310500  0.31018300  0.50154100  1
  C  C67  1  0.93746900  0.32180100  0.42001300  1
  C  C68  1  0.99245900  0.25329600  0.57082100  1
  C  C69  1  0.77814200  0.40636700  0.44049000  1
  C  C70  1  0.69629500  0.57585000  0.32308800  1
  C  C71  1  0.74015300  0.64829400  0.38601900  1
  C  C72  1  0.13332500  0.78796800  0.52214800  1
  C  C73  1  0.02427800  0.75784200  0.37152700  1
  C  C74  1  0.87793500  0.90055500  0.35548900  1
  C  C75  1  0.85302300  0.78277700  0.33730700  1
  C  C76  1  0.09304000  0.32536700  0.45249100  1
  C  C77  1  0.02500300  0.11224800  0.65363000  1
  C  C78  1  0.05037900  0.23327400  0.65803800  1
  C  C79  1  0.87944000  0.24096300  0.37175100  1
  O  O1  1  0.59069200  0.43784300  0.50555300  1
  O  O2  1  0.59462000  0.54235600  0.51193300  1
  O  O3  1  0.44238400  0.49689700  0.38783100  1
  O  O4  1  0.43779400  0.60502200  0.38726100  1
  O  O5  1  0.40924700  0.43906400  0.50770800  1
  O  O6  1  0.41305400  0.54372700  0.51379400  1
  O  O7  1  0.56627500  0.37646700  0.63246600  1
  O  O8  1  0.56147100  0.48453100  0.63189300  1
  O  O9  1  0.06158300  0.90580900  0.50762300  1
  O  O10  1  0.95655800  0.90241100  0.51341900  1
  O  O11  1  0.12454100  0.92986600  0.63087400  1
  O  O12  1  0.01751900  0.93034100  0.63348800  1
  O  O13  1  0.06475100  0.08345400  0.51560000  1
  O  O14  1  0.95653300  0.08339400  0.51500100  1
  O  O15  1  0.99905200  0.05780000  0.38635900  1
  O  O16  1  0.89219900  0.05379600  0.38888600  1
  O  O17  1  0.04826800  0.38217900  0.56372700  1
  O  O18  1  0.94673100  0.44578000  0.42424100  1
  O  O19  1  0.93387200  0.45545000  0.55323500  1
  O  O20  1  0.86645600  0.55569300  0.41334900  1
  O  O21  1  0.00063100  0.56608600  0.54961100  1
  O  O22  1  0.97169400  0.63007200  0.41365500  1
  O  O23  1  0.11511300  0.49257900  0.56031300  1
  O  O24  1  0.05193200  0.52016500  0.42450800  1
  O  O25  1  0.76025400  0.35023100  0.44766300  1
  O  O26  1  0.79609000  0.44607300  0.38192700  1
  O  O27  1  0.72693700  0.59717600  0.28500300  1
  O  O28  1  0.63449400  0.55140500  0.29261300  1
  O  O29  1  0.72515900  0.69687400  0.31654200  1
  O  O30  1  0.75938200  0.66704400  0.44404900  1
  O  O31  1  0.17315800  0.73178200  0.59354400  1
  O  O32  1  0.16601600  0.83978400  0.48956800  1
  O  O33  1  0.05932500  0.71647100  0.36769900  1
  O  O34  1  0.97443600  0.82755200  0.29852300  1
  O  O35  1  0.82474800  0.94188200  0.33905800  1
  O  O36  1  0.89924000  0.92602700  0.29889900  1
  O  O37  1  0.86865400  0.76103200  0.30293500  1
  O  O38  1  0.77929700  0.82675400  0.29460100  1
  O  O39  1  0.15200000  0.30344100  0.46209300  1
  O  O40  1  0.04307900  0.39635700  0.38236000  1
  O  O41  1  0.99745300  0.09752800  0.69464000  1
  O  O42  1  0.09123900  0.06114200  0.68699000  1
  O  O43  1  0.11682300  0.19970000  0.69544800  1
  O  O44  1  0.02687000  0.25276900  0.69733900  1
  O  O45  1  0.86397800  0.24228000  0.30970200  1
  O  O46  1  0.82778500  0.23165500  0.39455300  1
