# generated using pymatgen
data_Fe2H16C41SO16
_symmetry_space_group_name_H-M   'P 1'
_cell_length_a   14.45745400
_cell_length_b   12.34882200
_cell_length_c   13.28324000
_cell_angle_alpha   80.95675800
_cell_angle_beta   93.01971600
_cell_angle_gamma   114.69507300
_symmetry_Int_Tables_number   1
_chemical_formula_structural   Fe2H16C41SO16
_chemical_formula_sum   'Fe2 H16 C41 S1 O16'
_cell_volume   2127.59893634
_cell_formula_units_Z   1
loop_
 _symmetry_equiv_pos_site_id
 _symmetry_equiv_pos_as_xyz
  1  'x, y, z'
loop_
 _atom_site_type_symbol
 _atom_site_label
 _atom_site_symmetry_multiplicity
 _atom_site_fract_x
 _atom_site_fract_y
 _atom_site_fract_z
 _atom_site_occupancy
  Fe  Fe1  1  0.49441500  0.00305700  0.13745200  1
  Fe  Fe2  1  0.50509800  0.01385100  0.70196300  1
  H  H1  1  0.10816100  0.86227900  0.75928700  1
  H  H2  1  0.98026200  0.86840600  0.86214100  1
  H  H3  1  0.96280500  0.04274700  0.81932400  1
  H  H4  1  0.79944700  0.01783700  0.75762400  1
  H  H5  1  0.28859700  0.10714700  0.11044400  1
  H  H6  1  0.16208500  0.10995300  0.21559800  1
  H  H7  1  0.99533900  0.07740600  0.24744900  1
  H  H8  1  0.82734700  0.03796800  0.19394300  1
  H  H9  1  0.43344700  0.84871700  0.44152700  1
  H  H10  1  0.50900100  0.60249600  0.64487900  1
  H  H11  1  0.51475800  0.13739300  0.41169700  1
  H  H12  1  0.42861400  0.36359400  0.19702100  1
  H  H13  1  0.51018100  0.43339600  0.59631700  1
  H  H14  1  0.15378900  0.38030100  0.27031800  1
  H  H15  1  0.21680500  0.47866700  0.36344600  1
  H  H16  1  0.23439000  0.34123200  0.36315100  1
  C  C1  1  0.23266800  0.95255400  0.85389700  1
  C  C2  1  0.13178800  0.90702400  0.82583100  1
  C  C3  1  0.05855700  0.91528400  0.88297600  1
  C  C4  1  0.90303600  0.01710900  0.87511800  1
  C  C5  1  0.25687900  0.99752600  0.94594900  1
  C  C6  1  0.18457500  0.01654800  0.99773000  1
  C  C7  1  0.08524500  0.98202000  0.96341500  1
  C  C8  1  0.01469900  0.00608300  0.01647000  1
  C  C9  1  0.81037200  0.00882600  0.83910300  1
  C  C10  1  0.73185200  0.98670100  0.90450000  1
  C  C11  1  0.92012100  0.00130100  0.97875800  1
  C  C12  1  0.84688700  0.00004600  0.04441900  1
  C  C13  1  0.74975200  0.98582400  0.00863600  1
  C  C14  1  0.21165600  0.06944900  0.08516900  1
  C  C15  1  0.13976300  0.07442400  0.14450000  1
  C  C16  1  0.04176000  0.04116400  0.11157400  1
  C  C17  1  0.97293100  0.05007500  0.17330700  1
  C  C18  1  0.87542900  0.02497900  0.14232500  1
  C  C19  1  0.66879300  0.97765200  0.07757700  1
  C  C20  1  0.45025700  0.77590100  0.27007000  1
  C  C21  1  0.35553400  0.01826500  0.99354200  1
  C  C22  1  0.46311700  0.16334700  0.22994300  1
  C  C23  1  0.49010400  0.80896300  0.62749900  1
  C  C24  1  0.63509000  0.97554400  0.85717400  1
  C  C25  1  0.50131100  0.21955900  0.57581000  1
  C  C26  1  0.31043600  0.95417300  0.78437200  1
  C  C27  1  0.43807300  0.70307100  0.37351300  1
  C  C28  1  0.44020000  0.76383800  0.45428700  1
  C  C29  1  0.46475500  0.72752000  0.55127700  1
  C  C30  1  0.48486800  0.62749400  0.56979100  1
  C  C31  1  0.47166100  0.55752100  0.49444600  1
  C  C32  1  0.44420000  0.59052500  0.39625800  1
  C  C33  1  0.48694500  0.45383000  0.51981500  1
  C  C34  1  0.48008000  0.38255900  0.44743500  1
  C  C35  1  0.45300900  0.41349400  0.34898000  1
  C  C36  1  0.42351900  0.50873900  0.32700400  1
  C  C37  1  0.49846100  0.27958500  0.47198300  1
  C  C38  1  0.50306500  0.21920800  0.39541200  1
  C  C39  1  0.48026500  0.25113100  0.29773400  1
  C  C40  1  0.45061700  0.34465600  0.27439100  1
  C  C41  1  0.22420900  0.41725400  0.31497800  1
  S  S1  1  0.33192800  0.49955700  0.22771100  1
  O  O1  1  0.60738200  0.02949600  0.04504100  1
  O  O2  1  0.47022200  0.74168900  0.18843000  1
  O  O3  1  0.65580800  0.91572200  0.16932500  1
  O  O4  1  0.46175000  0.88799400  0.26619000  1
  O  O5  1  0.36473300  0.93277700  0.06068200  1
  O  O6  1  0.42876800  0.12754300  0.98239800  1
  O  O7  1  0.53895200  0.16773300  0.17667000  1
  O  O8  1  0.38430200  0.05956100  0.25071700  1
  O  O9  1  0.43008100  0.86113700  0.64219200  1
  O  O10  1  0.58161100  0.84665000  0.66599200  1
  O  O11  1  0.63909200  0.04432500  0.77014800  1
  O  O12  1  0.54807900  0.88960000  0.89301400  1
  O  O13  1  0.28369100  0.92546900  0.69298200  1
  O  O14  1  0.54790000  0.14739500  0.58623800  1
  O  O15  1  0.40745600  0.99770300  0.80856300  1
  O  O16  1  0.43525600  0.20797200  0.64530400  1
