# generated using pymatgen
data_CuH13C26N(ClO2)2
_symmetry_space_group_name_H-M   'P 1'
_cell_length_a   14.47442800
_cell_length_b   15.92006500
_cell_length_c   17.39103300
_cell_angle_alpha   90.00302700
_cell_angle_beta   86.29566500
_cell_angle_gamma   90.00692100
_symmetry_Int_Tables_number   1
_chemical_formula_structural   CuH13C26N(ClO2)2
_chemical_formula_sum   'Cu2 H26 C52 N2 Cl4 O8'
_cell_volume   3999.10968738
_cell_formula_units_Z   2
loop_
 _symmetry_equiv_pos_site_id
 _symmetry_equiv_pos_as_xyz
  1  'x, y, z'
loop_
 _atom_site_type_symbol
 _atom_site_label
 _atom_site_symmetry_multiplicity
 _atom_site_fract_x
 _atom_site_fract_y
 _atom_site_fract_z
 _atom_site_occupancy
  Cu  Cu1  1  0.40565600  0.50048400  0.49995600  1
  Cu  Cu2  1  0.59059000  0.49950300  0.49810200  1
  H  H1  1  0.63066200  0.50172300  0.74002700  1
  H  H2  1  0.36558400  0.49826500  0.25803200  1
  H  H3  1  0.66129000  0.48847600  0.25415400  1
  H  H4  1  0.33495600  0.51151100  0.74390400  1
  H  H5  1  0.59607200  0.46311100  0.99584800  1
  H  H6  1  0.40017200  0.53687600  0.00221000  1
  H  H7  1  0.32757700  0.51547400  0.88372600  1
  H  H8  1  0.66866800  0.48451300  0.11433200  1
  H  H9  1  0.37284600  0.49243800  0.11985500  1
  H  H10  1  0.62339900  0.50755000  0.87820400  1
  H  H11  1  0.42318700  0.05862400  0.38997500  1
  H  H12  1  0.57307000  0.94136200  0.60809100  1
  H  H13  1  0.65387000  0.05680200  0.50151800  1
  H  H14  1  0.34238800  0.94318600  0.49654500  1
  H  H15  1  0.92901600  0.46317600  0.62555100  1
  H  H16  1  0.06723000  0.53681100  0.37250800  1
  H  H17  1  0.05332100  0.36200100  0.53419200  1
  H  H18  1  0.94292500  0.63798600  0.46386600  1
  H  H19  1  0.04655500  0.60205100  0.59221400  1
  H  H20  1  0.94969200  0.39793700  0.40584500  1
  H  H21  1  0.71434400  0.06612700  0.21116400  1
  H  H22  1  0.68364100  0.80349100  0.24672900  1
  H  H23  1  0.59466100  0.82845900  0.36621100  1
  H  H24  1  0.28190900  0.93386000  0.78689800  1
  H  H25  1  0.31272300  0.19649500  0.75138700  1
  H  H26  1  0.40167700  0.17152600  0.63189100  1
  C  C1  1  0.49901500  0.66116400  0.49604200  1
  C  C2  1  0.49723100  0.33882300  0.50201700  1
  C  C3  1  0.48841300  0.50327100  0.64715800  1
  C  C4  1  0.50783300  0.49671700  0.35090100  1
  C  C5  1  0.48337200  0.50540800  0.73165000  1
  C  C6  1  0.51287400  0.49458000  0.26640900  1
  C  C7  1  0.56344600  0.50395300  0.77081800  1
  C  C8  1  0.43279900  0.49603500  0.22724100  1
  C  C9  1  0.55906200  0.50619000  0.85023600  1
  C  C10  1  0.43718400  0.49379700  0.14782200  1
  C  C11  1  0.47411600  0.50933000  0.89174200  1
  C  C12  1  0.52212800  0.49065700  0.10631700  1
  C  C13  1  0.39439200  0.51214000  0.85231200  1
  C  C14  1  0.60185300  0.48784700  0.14574700  1
  C  C15  1  0.39871500  0.50978500  0.77292400  1
  C  C16  1  0.59753000  0.49020200  0.22513400  1
  C  C17  1  0.46486200  0.51281000  0.97663600  1
  C  C18  1  0.53138300  0.48717600  0.02142300  1
  C  C19  1  0.45755900  0.03133500  0.43937200  1
  C  C20  1  0.53869900  0.96865100  0.55869300  1
  C  C21  1  0.54597800  0.97983800  0.43477200  1
  C  C22  1  0.45028100  0.02014900  0.56329300  1
  C  C23  1  0.49987300  0.75126400  0.49462200  1
  C  C24  1  0.49637500  0.24872300  0.50343800  1
  C  C25  1  0.41313200  0.96962000  0.49801400  1
  C  C26  1  0.58312600  0.03036700  0.50005100  1
  C  C27  1  0.50183000  0.91896300  0.49305300  1
  C  C28  1  0.49442800  0.08102400  0.50501200  1
  C  C29  1  0.50091100  0.82696200  0.49350400  1
  C  C30  1  0.49534100  0.17302500  0.50455800  1
  C  C31  1  0.02688700  0.42456600  0.51821400  1
  C  C32  1  0.96935900  0.57542200  0.47984500  1
  C  C33  1  0.96176900  0.47989200  0.56819100  1
  C  C34  1  0.03447800  0.52009600  0.42986800  1
  C  C35  1  0.97304700  0.44421500  0.44811800  1
  C  C36  1  0.02319900  0.55577300  0.54994100  1
  C  C37  1  0.90972500  0.49954700  0.49810600  1
  C  C38  1  0.08652100  0.50044100  0.49995300  1
  C  C39  1  0.80874400  0.49914900  0.49729700  1
  C  C40  1  0.18750300  0.50083800  0.50076200  1
  C  C41  1  0.60182900  0.96346500  0.35967900  1
  C  C42  1  0.63676900  0.02980100  0.31423700  1
  C  C43  1  0.68760700  0.01417400  0.24589100  1
  C  C44  1  0.70456300  0.93322000  0.22153800  1
  C  C45  1  0.67051400  0.86729300  0.26568200  1
  C  C46  1  0.61964900  0.88214900  0.33405300  1
  C  C47  1  0.39444100  0.03652200  0.63839200  1
  C  C48  1  0.35948200  0.97018700  0.68382400  1
  C  C49  1  0.30866000  0.98581300  0.75217900  1
  C  C50  1  0.29174300  0.06676700  0.77655000  1
  C  C51  1  0.32581400  0.13269300  0.73241700  1
  C  C52  1  0.37666300  0.11783700  0.66403700  1
  N  N1  1  0.72884500  0.49897600  0.49695600  1
  N  N2  1  0.26740100  0.50101100  0.50110300  1
  Cl  Cl1  1  0.61908000  0.13525500  0.33994300  1
  Cl  Cl2  1  0.76917700  0.91422500  0.13467500  1
  Cl  Cl3  1  0.37713100  0.86473300  0.65809900  1
  Cl  Cl4  1  0.22715600  0.08576200  0.86342600  1
  O  O1  1  0.41901300  0.62255100  0.50029100  1
  O  O2  1  0.57723300  0.37743600  0.49776800  1
  O  O3  1  0.57836500  0.62152100  0.49325400  1
  O  O4  1  0.41788100  0.37846600  0.50480500  1
  O  O5  1  0.41125000  0.50582800  0.61175500  1
  O  O6  1  0.58499600  0.49415900  0.38630300  1
  O  O7  1  0.57005400  0.49909500  0.61019400  1
  O  O8  1  0.42619200  0.50089300  0.38786500  1
