# generated using pymatgen
data_FeH7C26NO8
_symmetry_space_group_name_H-M   'P 1'
_cell_length_a   15.82830200
_cell_length_b   14.63537600
_cell_length_c   11.11202900
_cell_angle_alpha   93.94189500
_cell_angle_beta   89.26233900
_cell_angle_gamma   104.39223000
_symmetry_Int_Tables_number   1
_chemical_formula_structural   FeH7C26NO8
_chemical_formula_sum   'Fe2 H14 C52 N2 O16'
_cell_volume   2487.42987759
_cell_formula_units_Z   2
loop_
 _symmetry_equiv_pos_site_id
 _symmetry_equiv_pos_as_xyz
  1  'x, y, z'
loop_
 _atom_site_type_symbol
 _atom_site_label
 _atom_site_symmetry_multiplicity
 _atom_site_fract_x
 _atom_site_fract_y
 _atom_site_fract_z
 _atom_site_occupancy
  Fe  Fe1  1  0.50022700  0.99520300  0.26774000  1
  Fe  Fe2  1  0.49628300  0.00408100  0.73632600  1
  H  H1  1  0.17377500  0.01213300  0.81100200  1
  H  H2  1  0.23114800  0.97047800  0.23152200  1
  H  H3  1  0.06075200  0.04937800  0.77619800  1
  H  H4  1  0.93575500  0.94987900  0.22801100  1
  H  H5  1  0.76536100  0.02873800  0.77266800  1
  H  H6  1  0.82273300  0.98713800  0.19320700  1
  H  H7  1  0.58870200  0.32629800  0.79348600  1
  H  H8  1  0.61353500  0.48364400  0.88317900  1
  H  H9  1  0.41983500  0.23063000  0.23225900  1
  H  H10  1  0.39089200  0.35631100  0.12675600  1
  H  H11  1  0.60574500  0.64297000  0.87723800  1
  H  H12  1  0.57679500  0.76865000  0.77173800  1
  H  H13  1  0.38309500  0.51563400  0.12081800  1
  H  H14  1  0.40791300  0.67297500  0.21051600  1
  C  C1  1  0.28385200  0.99526100  0.05899500  1
  C  C2  1  0.26771800  0.00546700  0.93869100  1
  C  C3  1  0.18392200  0.00702800  0.90519400  1
  C  C4  1  0.21590000  0.97913700  0.13935600  1
  C  C5  1  0.13247400  0.98046600  0.10570700  1
  C  C6  1  0.11582200  0.99881000  0.98902500  1
  C  C7  1  0.03160900  0.00690900  0.95915700  1
  C  C8  1  0.01301500  0.03143100  0.84575100  1
  C  C9  1  0.93066700  0.03539800  0.81517300  1
  C  C10  1  0.06584100  0.96384500  0.18903200  1
  C  C11  1  0.98349300  0.96782300  0.15845800  1
  C  C12  1  0.96489800  0.99234500  0.04505400  1
  C  C13  1  0.88068400  0.00044200  0.01518300  1
  C  C14  1  0.86403300  0.01877500  0.89849500  1
  C  C15  1  0.78060800  0.02009200  0.86483900  1
  C  C16  1  0.81258300  0.99223400  0.09901300  1
  C  C17  1  0.72878500  0.99379300  0.06550800  1
  C  C18  1  0.71265500  0.00397700  0.94519600  1
  C  C19  1  0.66057100  0.98865800  0.15959500  1
  C  C20  1  0.49909000  0.81976400  0.34488200  1
  C  C21  1  0.37101700  0.00542700  0.10887100  1
  C  C22  1  0.46730600  0.14997200  0.39958600  1
  C  C23  1  0.52926100  0.84929000  0.60444100  1
  C  C24  1  0.62549900  0.99382600  0.89530000  1
  C  C25  1  0.49748600  0.17951600  0.65914200  1
  C  C26  1  0.33593200  0.01063200  0.84460200  1
  C  C27  1  0.47861400  0.24396900  0.46111800  1
  C  C28  1  0.50312700  0.26038400  0.58233300  1
  C  C29  1  0.52637400  0.35384200  0.63181100  1
  C  C30  1  0.56659900  0.37681600  0.74405600  1
  C  C31  1  0.58372600  0.46768000  0.79474300  1
  C  C32  1  0.43386300  0.29976700  0.27887900  1
  C  C33  1  0.46492700  0.31713300  0.39662900  1
  C  C34  1  0.48057200  0.40799900  0.45020200  1
  C  C35  1  0.41681600  0.37140000  0.21748000  1
  C  C36  1  0.43247200  0.46141500  0.27097400  1
  C  C37  1  0.51282400  0.42662900  0.56635900  1
  C  C38  1  0.53091100  0.51852100  0.61756200  1
  C  C39  1  0.56416000  0.53786400  0.73302200  1
  C  C40  1  0.57981800  0.62788000  0.78651600  1
  C  C41  1  0.46572000  0.48075900  0.38643500  1
  C  C42  1  0.48380300  0.57265000  0.43764000  1
  C  C43  1  0.51605600  0.59128000  0.55379700  1
  C  C44  1  0.53169500  0.68214400  0.60737300  1
  C  C45  1  0.56276500  0.69951200  0.72512000  1
  C  C46  1  0.41290400  0.53159900  0.20925400  1
  C  C47  1  0.43002200  0.62246100  0.25994500  1
  C  C48  1  0.47024600  0.64543700  0.37219100  1
  C  C49  1  0.49347700  0.73889300  0.42167800  1
  C  C50  1  0.51799400  0.75530600  0.54289200  1
  C  C51  1  0.91721300  0.05956700  0.69488600  1
  C  C52  1  0.07929500  0.93967100  0.30931600  1
  N  N1  1  0.90657000  0.07905000  0.59802100  1
  N  N2  1  0.08993800  0.92018500  0.40617900  1
  O  O1  1  0.58601100  0.00773300  0.13490600  1
  O  O2  1  0.51922200  0.81206800  0.23032100  1
  O  O3  1  0.67568000  0.96917700  0.26961600  1
  O  O4  1  0.49327100  0.90282000  0.39179100  1
  O  O5  1  0.38154000  0.94974100  0.19200300  1
  O  O6  1  0.43398700  0.07982500  0.08785700  1
  O  O7  1  0.53543900  0.12447400  0.35272200  1
  O  O8  1  0.38937700  0.09211000  0.38977400  1
  O  O9  1  0.46111000  0.87473200  0.65133000  1
  O  O10  1  0.60716900  0.90719800  0.61424000  1
  O  O11  1  0.61499700  0.04954700  0.81220200  1
  O  O12  1  0.56253200  0.91940400  0.91623400  1
  O  O13  1  0.32086000  0.03026100  0.73463500  1
  O  O14  1  0.50327600  0.09644700  0.61224500  1
  O  O15  1  0.41044900  0.99143500  0.86922600  1
  O  O16  1  0.47735700  0.18722900  0.77370300  1
