# generated using pymatgen
data_CuH10C20SNO4
_symmetry_space_group_name_H-M   'P 1'
_cell_length_a   14.96542200
_cell_length_b   13.53187700
_cell_length_c   11.82448800
_cell_angle_alpha   90.00000000
_cell_angle_beta   89.98629000
_cell_angle_gamma   90.00000000
_symmetry_Int_Tables_number   1
_chemical_formula_structural   CuH10C20SNO4
_chemical_formula_sum   'Cu2 H20 C40 S2 N2 O8'
_cell_volume   2394.57994958
_cell_formula_units_Z   2
loop_
 _symmetry_equiv_pos_site_id
 _symmetry_equiv_pos_as_xyz
  1  'x, y, z'
loop_
 _atom_site_type_symbol
 _atom_site_label
 _atom_site_symmetry_multiplicity
 _atom_site_fract_x
 _atom_site_fract_y
 _atom_site_fract_z
 _atom_site_occupancy
  Cu  Cu1  1  0.50108100  0.59349000  0.50946400  1
  Cu  Cu2  1  0.49930400  0.39571400  0.50638300  1
  H  H1  1  0.77672600  0.40531000  0.36680400  1
  H  H2  1  0.22411400  0.58374400  0.64799000  1
  H  H3  1  0.92801100  0.62847600  0.74961900  1
  H  H4  1  0.07180400  0.36122800  0.26521100  1
  H  H5  1  0.08830200  0.62950200  0.73864700  1
  H  H6  1  0.91179300  0.35985600  0.27675000  1
  H  H7  1  0.37567100  0.75041900  0.58957700  1
  H  H8  1  0.62513300  0.23884200  0.42745900  1
  H  H9  1  0.62637700  0.75116400  0.42788500  1
  H  H10  1  0.37333300  0.23814500  0.58659800  1
  H  H11  1  0.70132500  0.90486900  0.38853100  1
  H  H12  1  0.29980700  0.08446400  0.62968500  1
  H  H13  1  0.30058200  0.90339400  0.63048600  1
  H  H14  1  0.70108400  0.08592000  0.38902600  1
  H  H15  1  0.80307900  0.76596000  0.70887500  1
  H  H16  1  0.69017300  0.75072700  0.65628200  1
  H  H17  1  0.78410200  0.71681400  0.56850100  1
  H  H18  1  0.20394200  0.48686700  0.13254200  1
  H  H19  1  0.30725800  0.53085800  0.19560800  1
  H  H20  1  0.20116500  0.56262900  0.25809700  1
  C  C1  1  0.32870500  0.49623500  0.49957100  1
  C  C2  1  0.67161600  0.49316600  0.51560700  1
  C  C3  1  0.50493400  0.49724600  0.29097800  1
  C  C4  1  0.49574800  0.49174000  0.72492500  1
  C  C5  1  0.50413800  0.49744300  0.16961000  1
  C  C6  1  0.49692100  0.49107200  0.84637100  1
  C  C7  1  0.50202900  0.49545200  0.06768400  1
  C  C8  1  0.49902400  0.49253800  0.94826000  1
  C  C9  1  0.81395300  0.44346900  0.43191000  1
  C  C10  1  0.18637900  0.54669300  0.58255300  1
  C  C11  1  0.76912500  0.49248900  0.51651000  1
  C  C12  1  0.23104500  0.49776400  0.49775600  1
  C  C13  1  0.81620100  0.54218900  0.59966700  1
  C  C14  1  0.18375500  0.44955500  0.41364600  1
  C  C15  1  0.90929500  0.54306400  0.59667900  1
  C  C16  1  0.09067700  0.44845500  0.41702200  1
  C  C17  1  0.95371200  0.49530500  0.50951000  1
  C  C18  1  0.04628100  0.49622900  0.50427500  1
  C  C19  1  0.90580300  0.44576500  0.42775600  1
  C  C20  1  0.09436200  0.54518300  0.58642500  1
  C  C21  1  0.95874500  0.59068800  0.67950900  1
  C  C22  1  0.04121500  0.39976400  0.33497200  1
  C  C23  1  0.05059400  0.59173700  0.67381600  1
  C  C24  1  0.94947400  0.39836300  0.34099100  1
  C  C25  1  0.43128100  0.79055800  0.55382300  1
  C  C26  1  0.56952400  0.19869900  0.46322700  1
  C  C27  1  0.57106100  0.79097000  0.46468400  1
  C  C28  1  0.42909700  0.19827700  0.55083600  1
  C  C29  1  0.57209400  0.89294100  0.46490000  1
  C  C30  1  0.42844800  0.09634000  0.55163900  1
  C  C31  1  0.42947400  0.89249900  0.55281400  1
  C  C32  1  0.57142800  0.09678400  0.46455400  1
  C  C33  1  0.50071700  0.94381100  0.50890300  1
  C  C34  1  0.50017300  0.04549000  0.50827300  1
  C  C35  1  0.64434900  0.94416100  0.42201100  1
  C  C36  1  0.35669200  0.04516700  0.59578700  1
  C  C37  1  0.35711400  0.94318500  0.59618400  1
  C  C38  1  0.64419700  0.04613000  0.42225000  1
  C  C39  1  0.75856400  0.71919500  0.65653000  1
  C  C40  1  0.23866600  0.50394100  0.21301700  1
  S  S1  1  0.75519000  0.59536700  0.71549900  1
  S  S2  1  0.24427300  0.39318600  0.29959100  1
  N  N1  1  0.50227600  0.74133800  0.51196600  1
  N  N2  1  0.49805800  0.24788300  0.50396000  1
  O  O1  1  0.37126700  0.58066700  0.50053400  1
  O  O2  1  0.62912800  0.40853800  0.51547900  1
  O  O3  1  0.63083600  0.57838800  0.51016700  1
  O  O4  1  0.36956800  0.41080900  0.50530000  1
  O  O5  1  0.50786100  0.58181700  0.34498000  1
  O  O6  1  0.49236700  0.40736200  0.67088000  1
  O  O7  1  0.50043000  0.57726200  0.67352600  1
  O  O8  1  0.50020100  0.41185100  0.34236700  1
