# generated using pymatgen
data_ZnH8C9NO4
_symmetry_space_group_name_H-M   'P 1'
_cell_length_a   12.76208500
_cell_length_b   12.55367800
_cell_length_c   14.77717400
_cell_angle_alpha   90.00000000
_cell_angle_beta   79.06677600
_cell_angle_gamma   90.00000000
_symmetry_Int_Tables_number   1
_chemical_formula_structural   ZnH8C9NO4
_chemical_formula_sum   'Zn4 H32 C36 N4 O16'
_cell_volume   2324.49524170
_cell_formula_units_Z   4
loop_
 _symmetry_equiv_pos_site_id
 _symmetry_equiv_pos_as_xyz
  1  'x, y, z'
loop_
 _atom_site_type_symbol
 _atom_site_label
 _atom_site_symmetry_multiplicity
 _atom_site_fract_x
 _atom_site_fract_y
 _atom_site_fract_z
 _atom_site_occupancy
  Zn  Zn1  1  0.00189900  0.99988900  0.89843000  1
  Zn  Zn2  1  0.99810200  0.99988900  0.10157000  1
  Zn  Zn3  1  0.50189900  0.49988900  0.89843000  1
  Zn  Zn4  1  0.49810200  0.49988900  0.10157000  1
  H  H1  1  0.60819200  0.36485100  0.55998700  1
  H  H2  1  0.39180800  0.36485100  0.44001200  1
  H  H3  1  0.10819200  0.86485100  0.55998700  1
  H  H4  1  0.89180800  0.86485100  0.44001200  1
  H  H5  1  0.59021600  0.35574300  0.41112000  1
  H  H6  1  0.40978400  0.35574300  0.58888000  1
  H  H7  1  0.09021600  0.85574300  0.41112000  1
  H  H8  1  0.90978400  0.85574300  0.58888000  1
  H  H9  1  0.82686800  0.99292500  0.45887100  1
  H  H10  1  0.17313200  0.99292500  0.54112900  1
  H  H11  1  0.32686800  0.49292500  0.45887100  1
  H  H12  1  0.67313200  0.49292500  0.54112900  1
  H  H13  1  0.83141900  0.97607200  0.61017700  1
  H  H14  1  0.16858100  0.97607200  0.38982300  1
  H  H15  1  0.33141900  0.47607200  0.61017700  1
  H  H16  1  0.66858100  0.47607200  0.38982300  1
  H  H17  1  0.57751300  0.65203600  0.41337700  1
  H  H18  1  0.42248800  0.65203600  0.58662300  1
  H  H19  1  0.07751300  0.15203600  0.41337700  1
  H  H20  1  0.92248800  0.15203600  0.58662300  1
  H  H21  1  0.43368500  0.65975600  0.43245400  1
  H  H22  1  0.56631600  0.65975600  0.56754600  1
  H  H23  1  0.93368500  0.15975600  0.43245400  1
  H  H24  1  0.06631600  0.15975600  0.56754600  1
  H  H25  1  0.76135800  0.75936000  0.89498000  1
  H  H26  1  0.23864200  0.75936000  0.10502000  1
  H  H27  1  0.26135800  0.25936000  0.89498000  1
  H  H28  1  0.73864200  0.25936000  0.10502000  1
  H  H29  1  0.23860500  0.24045600  0.10502800  1
  H  H30  1  0.76139500  0.24045600  0.89497200  1
  H  H31  1  0.73860500  0.74045600  0.10502800  1
  H  H32  1  0.26139500  0.74045600  0.89497200  1
  C  C1  1  0.64880900  0.35141700  0.97703900  1
  C  C2  1  0.35119200  0.35141700  0.02296100  1
  C  C3  1  0.14880900  0.85141700  0.97703900  1
  C  C4  1  0.85119200  0.85141700  0.02296100  1
  C  C5  1  0.64878000  0.64839200  0.97704800  1
  C  C6  1  0.35122100  0.64839200  0.02295200  1
  C  C7  1  0.14878000  0.14839200  0.97704800  1
  C  C8  1  0.85122100  0.14839200  0.02295200  1
  C  C9  1  0.09562500  0.94030400  0.43147100  1
  C  C10  1  0.90437500  0.94030400  0.56852900  1
  C  C11  1  0.59562500  0.44030400  0.43147100  1
  C  C12  1  0.40437500  0.44030400  0.56852900  1
  C  C13  1  0.89829900  0.94641800  0.46723600  1
  C  C14  1  0.10170100  0.94641800  0.53276400  1
  C  C15  1  0.39829900  0.44641800  0.46723600  1
  C  C16  1  0.60170100  0.44641800  0.53276400  1
  C  C17  1  0.99788100  0.00023000  0.41477900  1
  C  C18  1  0.00211900  0.00023000  0.58522100  1
  C  C19  1  0.49788100  0.50023000  0.41477900  1
  C  C20  1  0.50211900  0.50023000  0.58522100  1
  C  C21  1  0.49774300  0.61397100  0.55160900  1
  C  C22  1  0.50225700  0.61397100  0.44839100  1
  C  C23  1  0.99774300  0.11397100  0.55160900  1
  C  C24  1  0.00225700  0.11397100  0.44839100  1
  C  C25  1  0.00443500  0.00021600  0.68401400  1
  C  C26  1  0.99556500  0.00021600  0.31598500  1
  C  C27  1  0.50443500  0.50021600  0.68401400  1
  C  C28  1  0.49556500  0.50021600  0.31598500  1
  C  C29  1  0.73128000  0.73058900  0.96415400  1
  C  C30  1  0.26872000  0.73058900  0.03584600  1
  C  C31  1  0.23128000  0.23058900  0.96415400  1
  C  C32  1  0.76872000  0.23058900  0.03584600  1
  C  C33  1  0.26868300  0.26922700  0.03585300  1
  C  C34  1  0.73131700  0.26922700  0.96414700  1
  C  C35  1  0.76868300  0.76922700  0.03585300  1
  C  C36  1  0.23131700  0.76922700  0.96414700  1
  N  N1  1  0.00594800  0.00018900  0.76212100  1
  N  N2  1  0.99405200  0.00018900  0.23787900  1
  N  N3  1  0.50594800  0.50018900  0.76212100  1
  N  N4  1  0.49405200  0.50018900  0.23787900  1
  O  O1  1  0.61388700  0.38783800  0.90501600  1
  O  O2  1  0.38611400  0.38783800  0.09498400  1
  O  O3  1  0.11388700  0.88783800  0.90501600  1
  O  O4  1  0.88611400  0.88783800  0.09498400  1
  O  O5  1  0.11060900  0.88792200  0.05992700  1
  O  O6  1  0.88939100  0.88792200  0.94007300  1
  O  O7  1  0.61060900  0.38792200  0.05992700  1
  O  O8  1  0.38939100  0.38792200  0.94007300  1
  O  O9  1  0.61386200  0.61196300  0.90502500  1
  O  O10  1  0.38613900  0.61196300  0.09497500  1
  O  O11  1  0.11386200  0.11196300  0.90502500  1
  O  O12  1  0.88613900  0.11196300  0.09497500  1
  O  O13  1  0.11059100  0.11188100  0.05993700  1
  O  O14  1  0.88940900  0.11188100  0.94006300  1
  O  O15  1  0.61059100  0.61188100  0.05993700  1
  O  O16  1  0.38940900  0.61188100  0.94006300  1
