# generated using pymatgen
data_FeH10C18NO4
_symmetry_space_group_name_H-M   'P 1'
_cell_length_a   11.75210000
_cell_length_b   15.51845500
_cell_length_c   9.54623600
_cell_angle_alpha   90.00000000
_cell_angle_beta   103.86231500
_cell_angle_gamma   90.00000000
_symmetry_Int_Tables_number   1
_chemical_formula_structural   FeH10C18NO4
_chemical_formula_sum   'Fe2 H20 C36 N2 O8'
_cell_volume   1690.28182052
_cell_formula_units_Z   2
loop_
 _symmetry_equiv_pos_site_id
 _symmetry_equiv_pos_as_xyz
  1  'x, y, z'
loop_
 _atom_site_type_symbol
 _atom_site_label
 _atom_site_symmetry_multiplicity
 _atom_site_fract_x
 _atom_site_fract_y
 _atom_site_fract_z
 _atom_site_occupancy
  Fe  Fe1  1  0.02354800  0.00000000  0.15706800  1
  Fe  Fe2  1  0.97645200  0.00000000  0.84293100  1
  H  H1  1  0.30696700  0.50000000  0.05693500  1
  H  H2  1  0.69303200  0.50000000  0.94306400  1
  H  H3  1  0.10991700  0.00000000  0.63369400  1
  H  H4  1  0.89008200  0.00000000  0.36630600  1
  H  H5  1  0.39542700  0.69777100  0.81068100  1
  H  H6  1  0.60457200  0.30222900  0.18931800  1
  H  H7  1  0.60457200  0.69777100  0.18931800  1
  H  H8  1  0.39542700  0.30222900  0.81068100  1
  H  H9  1  0.23335200  0.76332900  0.22787900  1
  H  H10  1  0.76664700  0.23667100  0.77212100  1
  H  H11  1  0.76664700  0.76332900  0.77212100  1
  H  H12  1  0.23335200  0.23667100  0.22787900  1
  H  H13  1  0.27583800  0.82637500  0.80732700  1
  H  H14  1  0.72416100  0.17362500  0.19267200  1
  H  H15  1  0.72416100  0.82637500  0.19267200  1
  H  H16  1  0.27583800  0.17362500  0.80732700  1
  H  H17  1  0.35074100  0.63370400  0.22876000  1
  H  H18  1  0.64925900  0.36629600  0.77124000  1
  H  H19  1  0.64925900  0.63370400  0.77124000  1
  H  H20  1  0.35074100  0.36629600  0.22876000  1
  C  C1  1  0.83343800  0.12309600  0.98874700  1
  C  C2  1  0.16656100  0.87690400  0.01125200  1
  C  C3  1  0.16656100  0.12309600  0.01125200  1
  C  C4  1  0.83343800  0.87690400  0.98874700  1
  C  C5  1  0.98224800  0.00000000  0.42087900  1
  C  C6  1  0.01775100  0.00000000  0.57912000  1
  C  C7  1  0.24720700  0.80428600  0.01785800  1
  C  C8  1  0.75279300  0.19571400  0.98214100  1
  C  C9  1  0.75279300  0.80428600  0.98214100  1
  C  C10  1  0.24720700  0.19571400  0.01785800  1
  C  C11  1  0.44616800  0.57725700  0.01731200  1
  C  C12  1  0.55383200  0.42274300  0.98268700  1
  C  C13  1  0.55383200  0.57725700  0.98268700  1
  C  C14  1  0.44616800  0.42274300  0.01731200  1
  C  C15  1  0.36228800  0.71305400  0.90403000  1
  C  C16  1  0.63771200  0.28694600  0.09596900  1
  C  C17  1  0.63771200  0.71305400  0.09596900  1
  C  C18  1  0.36228800  0.28694600  0.90403000  1
  C  C19  1  0.27032300  0.75040700  0.13670300  1
  C  C20  1  0.72967600  0.24959300  0.86329600  1
  C  C21  1  0.72967600  0.75040700  0.86329600  1
  C  C22  1  0.27032300  0.24959300  0.13670300  1
  C  C23  1  0.29370600  0.78539800  0.90161800  1
  C  C24  1  0.70629300  0.21460200  0.09838100  1
  C  C25  1  0.70629300  0.78539800  0.09838100  1
  C  C26  1  0.29370600  0.21460200  0.90161800  1
  C  C27  1  0.38232200  0.65787900  0.02093800  1
  C  C28  1  0.61767700  0.34212100  0.97906100  1
  C  C29  1  0.61767700  0.65787900  0.97906100  1
  C  C30  1  0.38232200  0.34212100  0.02093800  1
  C  C31  1  0.33594100  0.67670800  0.13707800  1
  C  C32  1  0.66405900  0.32329200  0.86292200  1
  C  C33  1  0.66405900  0.67670800  0.86292200  1
  C  C34  1  0.33594100  0.32329200  0.13707800  1
  C  C35  1  0.39337500  0.50000000  0.03599100  1
  C  C36  1  0.60662500  0.50000000  0.96400900  1
  N  N1  1  0.06062000  0.00000000  0.34804400  1
  N  N2  1  0.93937900  0.00000000  0.65195600  1
  O  O1  1  0.86001800  0.09640100  0.87018500  1
  O  O2  1  0.13998200  0.90359900  0.12981500  1
  O  O3  1  0.13998200  0.09640100  0.12981500  1
  O  O4  1  0.86001800  0.90359900  0.87018500  1
  O  O5  1  0.88566200  0.08995800  0.11420200  1
  O  O6  1  0.11433800  0.91004200  0.88579800  1
  O  O7  1  0.11433800  0.08995800  0.88579800  1
  O  O8  1  0.88566200  0.91004200  0.11420200  1
