# generated using pymatgen
data_Zn3H30C41N4O17
_symmetry_space_group_name_H-M   'P 1'
_cell_length_a   30.46127700
_cell_length_b   30.36375100
_cell_length_c   24.61582300
_cell_angle_alpha   90.00000000
_cell_angle_beta   128.21644400
_cell_angle_gamma   90.00000000
_symmetry_Int_Tables_number   1
_chemical_formula_structural   Zn3H30C41N4O17
_chemical_formula_sum   'Zn12 H120 C164 N16 O68'
_cell_volume   17888.05992130
_cell_formula_units_Z   4
loop_
 _symmetry_equiv_pos_site_id
 _symmetry_equiv_pos_as_xyz
  1  'x, y, z'
loop_
 _atom_site_type_symbol
 _atom_site_label
 _atom_site_symmetry_multiplicity
 _atom_site_fract_x
 _atom_site_fract_y
 _atom_site_fract_z
 _atom_site_occupancy
  Zn  Zn1  1  0.78379100  0.71873700  0.49940200  1
  Zn  Zn2  1  0.21620900  0.71873700  0.50059800  1
  Zn  Zn3  1  0.28379100  0.21873700  0.49940200  1
  Zn  Zn4  1  0.71620900  0.21873700  0.50059800  1
  Zn  Zn5  1  0.71441600  0.78911500  0.50148900  1
  Zn  Zn6  1  0.28558400  0.78911500  0.49851100  1
  Zn  Zn7  1  0.21441600  0.28911500  0.50148900  1
  Zn  Zn8  1  0.78558400  0.28911500  0.49851100  1
  Zn  Zn9  1  0.96323400  0.00297500  0.42161400  1
  Zn  Zn10  1  0.03676700  0.00297500  0.57838600  1
  Zn  Zn11  1  0.46323400  0.50297500  0.42161400  1
  Zn  Zn12  1  0.53676700  0.50297500  0.57838600  1
  H  H1  1  0.56521800  0.81518900  0.15108200  1
  H  H2  1  0.43478200  0.81518900  0.84891800  1
  H  H3  1  0.06521800  0.31518900  0.15108200  1
  H  H4  1  0.93478200  0.31518900  0.84891800  1
  H  H5  1  0.89306400  0.87491100  0.60591500  1
  H  H6  1  0.10693600  0.87491100  0.39408500  1
  H  H7  1  0.39306400  0.37491100  0.60591500  1
  H  H8  1  0.60693600  0.37491100  0.39408500  1
  H  H9  1  0.96934500  0.85955900  0.57749300  1
  H  H10  1  0.03065500  0.85955900  0.42250700  1
  H  H11  1  0.46934500  0.35955900  0.57749300  1
  H  H12  1  0.53065500  0.35955900  0.42250700  1
  H  H13  1  0.88806100  0.80677600  0.46442000  1
  H  H14  1  0.11193900  0.80677600  0.53558000  1
  H  H15  1  0.38806100  0.30677600  0.46442000  1
  H  H16  1  0.61193900  0.30677600  0.53558000  1
  H  H17  1  0.84880500  0.88155900  0.37888800  1
  H  H18  1  0.15119500  0.88155900  0.62111200  1
  H  H19  1  0.34880500  0.38155900  0.37888800  1
  H  H20  1  0.65119500  0.38155900  0.62111200  1
  H  H21  1  0.77202500  0.89615100  0.40588100  1
  H  H22  1  0.22797500  0.89615100  0.59411900  1
  H  H23  1  0.27202500  0.39615100  0.40588100  1
  H  H24  1  0.72797500  0.39615100  0.59411900  1
  H  H25  1  0.79520100  0.77781100  0.71917600  1
  H  H26  1  0.20479900  0.77781100  0.28082400  1
  H  H27  1  0.29520100  0.27781100  0.71917600  1
  H  H28  1  0.70479900  0.27781100  0.28082400  1
  H  H29  1  0.85641600  0.77847200  0.84412400  1
  H  H30  1  0.14358400  0.77847200  0.15587600  1
  H  H31  1  0.35641600  0.27847200  0.84412400  1
  H  H32  1  0.64358400  0.27847200  0.15587600  1
  H  H33  1  0.99334200  0.73979100  0.84812700  1
  H  H34  1  0.00665800  0.73979100  0.15187300  1
  H  H35  1  0.49334200  0.23979100  0.84812700  1
  H  H36  1  0.50665800  0.23979100  0.15187300  1
  H  H37  1  0.57048500  0.66018700  0.53502700  1
  H  H38  1  0.42951500  0.66018700  0.46497300  1
  H  H39  1  0.07048500  0.16018700  0.53502700  1
  H  H40  1  0.92951500  0.16018700  0.46497300  1
  H  H41  1  0.56836100  0.68467000  0.42259100  1
  H  H42  1  0.43163900  0.68467000  0.57740900  1
  H  H43  1  0.06836100  0.18467000  0.42259100  1
  H  H44  1  0.93163900  0.18467000  0.57740900  1
  H  H45  1  0.56828000  0.59472000  0.39442800  1
  H  H46  1  0.43172000  0.59472000  0.60557200  1
  H  H47  1  0.06828000  0.09472000  0.39442800  1
  H  H48  1  0.93172000  0.09472000  0.60557200  1
  H  H49  1  0.68564100  0.59670500  0.48077600  1
  H  H50  1  0.31435900  0.59670500  0.51922400  1
  H  H51  1  0.18564100  0.09670500  0.48077600  1
  H  H52  1  0.81435900  0.09670500  0.51922400  1
  H  H53  1  0.68813700  0.57249200  0.59328300  1
  H  H54  1  0.31186300  0.57249200  0.40671700  1
  H  H55  1  0.18813700  0.07249200  0.59328300  1
  H  H56  1  0.81186300  0.07249200  0.40671700  1
  H  H57  1  0.68855800  0.66290700  0.62144000  1
  H  H58  1  0.31144200  0.66290700  0.37856000  1
  H  H59  1  0.18855800  0.16290700  0.62144000  1
  H  H60  1  0.81144200  0.16290700  0.37856000  1
  H  H61  1  0.55970600  0.81258400  0.27425400  1
  H  H62  1  0.55759500  0.86309100  0.23331900  1
  H  H63  1  0.59994700  0.85966800  0.32650000  1
  H  H64  1  0.44029400  0.81258400  0.72574600  1
  H  H65  1  0.44240500  0.86309100  0.76668100  1
  H  H66  1  0.40005300  0.85966800  0.67350000  1
  H  H67  1  0.05970600  0.31258400  0.27425400  1
  H  H68  1  0.05759500  0.36309100  0.23331900  1
  H  H69  1  0.09994700  0.35966800  0.32650000  1
  H  H70  1  0.94029400  0.31258400  0.72574600  1
  H  H71  1  0.94240500  0.36309100  0.76668100  1
  H  H72  1  0.90005300  0.35966800  0.67350000  1
  H  H73  1  0.91264300  0.67462100  0.72737000  1
  H  H74  1  0.98596100  0.68113300  0.76649800  1
  H  H75  1  0.93412600  0.67622400  0.67367600  1
  H  H76  1  0.08735700  0.67462100  0.27263000  1
  H  H77  1  0.01403900  0.68113300  0.23350200  1
  H  H78  1  0.06587400  0.67622400  0.32632400  1
  H  H79  1  0.41264300  0.17462100  0.72737000  1
  H  H80  1  0.48596100  0.18113300  0.76649800  1
  H  H81  1  0.43412600  0.17622400  0.67367600  1
  H  H82  1  0.58735700  0.17462100  0.27263000  1
  H  H83  1  0.51403900  0.18113300  0.23350200  1
  H  H84  1  0.56587400  0.17622400  0.32632400  1
  H  H85  1  0.50764600  0.67796600  0.15767800  1
  H  H86  1  0.53353600  0.62189700  0.17578700  1
  H  H87  1  0.49134700  0.64254500  0.08855600  1
  H  H88  1  0.49235400  0.67796600  0.84232200  1
  H  H89  1  0.46646500  0.62189700  0.82421300  1
  H  H90  1  0.50865300  0.64254500  0.91144400  1
  H  H91  1  0.00764600  0.17796600  0.15767800  1
  H  H92  1  0.03353600  0.12189700  0.17578700  1
  H  H93  1  0.99134700  0.14254500  0.08855600  1
  H  H94  1  0.99235400  0.17796600  0.84232200  1
  H  H95  1  0.96646500  0.12189700  0.82421300  1
  H  H96  1  0.00865300  0.14254500  0.91144400  1
  H  H97  1  0.59742400  0.62468000  0.30196000  1
  H  H98  1  0.57322100  0.68100600  0.28746100  1
  H  H99  1  0.63582600  0.66449400  0.37060100  1
  H  H100  1  0.40257600  0.62468000  0.69804000  1
  H  H101  1  0.42677900  0.68100600  0.71253900  1
  H  H102  1  0.36417400  0.66449400  0.62940000  1
  H  H103  1  0.09742400  0.12468000  0.30196000  1
  H  H104  1  0.07322100  0.18100600  0.28746100  1
  H  H105  1  0.13582600  0.16449400  0.37060100  1
  H  H106  1  0.90257600  0.12468000  0.69804000  1
  H  H107  1  0.92677900  0.18100600  0.71253900  1
  H  H108  1  0.86417400  0.16449400  0.62940000  1
  H  H109  1  0.80178100  0.92637300  0.53702800  1
  H  H110  1  0.76897700  0.96191900  0.46152500  1
  H  H111  1  0.80662100  0.98514700  0.54675400  1
  H  H112  1  0.19821900  0.92637300  0.46297200  1
  H  H113  1  0.23102300  0.96191900  0.53847500  1
  H  H114  1  0.19337900  0.98514700  0.45324600  1
  H  H115  1  0.30178100  0.42637300  0.53702800  1
  H  H116  1  0.26897700  0.46191900  0.46152500  1
  H  H117  1  0.30662100  0.48514700  0.54675400  1
  H  H118  1  0.69821900  0.42637300  0.46297200  1
  H  H119  1  0.73102300  0.46191900  0.53847500  1
  H  H120  1  0.69337900  0.48514700  0.45324600  1
  C  C1  1  0.80671200  0.81426500  0.49362000  1
  C  C2  1  0.19328800  0.81426500  0.50638000  1
  C  C3  1  0.30671200  0.31426500  0.49362000  1
  C  C4  1  0.69328800  0.31426500  0.50638000  1
  C  C5  1  0.67811900  0.75074600  0.36512300  1
  C  C6  1  0.32188100  0.75074600  0.63487700  1
  C  C7  1  0.17811900  0.25074600  0.36512300  1
  C  C8  1  0.82188100  0.25074600  0.63487700  1
  C  C9  1  0.69165400  0.69357700  0.50752900  1
  C  C10  1  0.30834600  0.69357700  0.49247100  1
  C  C11  1  0.19165400  0.19357700  0.50752900  1
  C  C12  1  0.80834600  0.19357700  0.49247100  1
  C  C13  1  0.81992000  0.75702900  0.63574200  1
  C  C14  1  0.18008000  0.75702900  0.36425800  1
  C  C15  1  0.31992000  0.25702900  0.63574200  1
  C  C16  1  0.68008000  0.25702900  0.36425800  1
  C  C17  1  0.61428500  0.78657500  0.25082400  1
  C  C18  1  0.38571500  0.78657500  0.74917600  1
  C  C19  1  0.11428500  0.28657500  0.25082400  1
  C  C20  1  0.88571500  0.28657500  0.74917600  1
  C  C21  1  0.57982800  0.78460000  0.17957100  1
  C  C22  1  0.42017200  0.78460000  0.82042900  1
  C  C23  1  0.07982800  0.28460000  0.17957100  1
  C  C24  1  0.92017200  0.28460000  0.82042900  1
  C  C25  1  0.56540500  0.74459400  0.14548300  1
  C  C26  1  0.43459500  0.74459400  0.85451700  1
  C  C27  1  0.06540500  0.24459400  0.14548300  1
  C  C28  1  0.93459500  0.24459400  0.85451700  1
  C  C29  1  0.58488600  0.70592100  0.18443600  1
  C  C30  1  0.41511400  0.70592100  0.81556400  1
  C  C31  1  0.08488600  0.20592100  0.18443600  1
  C  C32  1  0.91511400  0.20592100  0.81556400  1
  C  C33  1  0.62121700  0.70806800  0.25601700  1
  C  C34  1  0.37878300  0.70806800  0.74398300  1
  C  C35  1  0.12121700  0.20806800  0.25601700  1
  C  C36  1  0.87878300  0.20806800  0.74398300  1
  C  C37  1  0.63698900  0.74843600  0.28943900  1
  C  C38  1  0.36301100  0.74843600  0.71056100  1
  C  C39  1  0.13698900  0.24843600  0.28943900  1
  C  C40  1  0.86301100  0.24843600  0.71056100  1
  C  C41  1  0.46908100  0.74437200  0.93076900  1
  C  C42  1  0.53091900  0.74437200  0.06923100  1
  C  C43  1  0.96908100  0.24437200  0.93076900  1
  C  C44  1  0.03091900  0.24437200  0.06923100  1
  C  C45  1  0.88387000  0.87641800  0.55476400  1
  C  C46  1  0.11613000  0.87641800  0.44523600  1
  C  C47  1  0.38387000  0.37641800  0.55476400  1
  C  C48  1  0.61613000  0.37641800  0.44523600  1
  C  C49  1  0.86133800  0.91563900  0.50708000  1
  C  C50  1  0.13866200  0.91563900  0.49292000  1
  C  C51  1  0.36133800  0.41563900  0.50708000  1
  C  C52  1  0.63866200  0.41563900  0.49292000  1
  C  C53  1  0.90138900  0.90740900  0.49225600  1
  C  C54  1  0.09861100  0.90740900  0.50774400  1
  C  C55  1  0.40138900  0.40740900  0.49225600  1
  C  C56  1  0.59861100  0.40740900  0.50774400  1
  C  C57  1  0.92435500  0.86769600  0.53918900  1
  C  C58  1  0.07564500  0.86769600  0.46081100  1
  C  C59  1  0.42435500  0.36769600  0.53918900  1
  C  C60  1  0.57564500  0.36769600  0.46081100  1
  C  C61  1  0.88063100  0.83958000  0.47716100  1
  C  C62  1  0.11936900  0.83958000  0.52283900  1
  C  C63  1  0.38063100  0.33958000  0.47716100  1
  C  C64  1  0.61936900  0.33958000  0.52283900  1
  C  C65  1  0.85818200  0.87985500  0.43012800  1
  C  C66  1  0.14181800  0.87985500  0.56987200  1
  C  C67  1  0.35818200  0.37985500  0.43012800  1
  C  C68  1  0.64181800  0.37985500  0.56987200  1
  C  C69  1  0.81712200  0.88858600  0.44488600  1
  C  C70  1  0.18287800  0.88858600  0.55511400  1
  C  C71  1  0.31712200  0.38858600  0.44488600  1
  C  C72  1  0.68287800  0.38858600  0.55511400  1
  C  C73  1  0.84049500  0.84885100  0.49231200  1
  C  C74  1  0.15950500  0.84885100  0.50768800  1
  C  C75  1  0.34049500  0.34885100  0.49231200  1
  C  C76  1  0.65950500  0.34885100  0.50768800  1
  C  C77  1  0.83866500  0.76929300  0.74691100  1
  C  C78  1  0.16133500  0.76929300  0.25308900  1
  C  C79  1  0.33866500  0.26929300  0.74691100  1
  C  C80  1  0.66133500  0.26929300  0.25308900  1
  C  C81  1  0.87343900  0.76937300  0.81808800  1
  C  C82  1  0.12656100  0.76937300  0.18191200  1
  C  C83  1  0.37343900  0.26937300  0.81808800  1
  C  C84  1  0.62656100  0.26937300  0.18191200  1
  C  C85  1  0.92924300  0.75889300  0.85510200  1
  C  C86  1  0.07075700  0.75889300  0.14489800  1
  C  C87  1  0.42924300  0.25889300  0.85510200  1
  C  C88  1  0.57075700  0.25889300  0.14489800  1
  C  C89  1  0.94971500  0.74784600  0.82008500  1
  C  C90  1  0.05028500  0.74784600  0.17991500  1
  C  C91  1  0.44971500  0.24784600  0.82008500  1
  C  C92  1  0.55028500  0.24784600  0.17991500  1
  C  C93  1  0.91445800  0.74593100  0.74869900  1
  C  C94  1  0.08554200  0.74593100  0.25130100  1
  C  C95  1  0.41445800  0.24593100  0.74869900  1
  C  C96  1  0.58554200  0.24593100  0.25130100  1
  C  C97  1  0.85861200  0.75731100  0.71162800  1
  C  C98  1  0.14138800  0.75731100  0.28837200  1
  C  C99  1  0.35861200  0.25731100  0.71162800  1
  C  C100  1  0.64138800  0.25731100  0.28837200  1
  C  C101  1  0.03372100  0.75928000  0.06912500  1
  C  C102  1  0.96627900  0.75928000  0.93087500  1
  C  C103  1  0.53372100  0.25928000  0.06912500  1
  C  C104  1  0.46627900  0.25928000  0.93087500  1
  C  C105  1  0.59506700  0.65880300  0.46139200  1
  C  C106  1  0.40493300  0.65880300  0.53860800  1
  C  C107  1  0.09506700  0.15880300  0.46139200  1
  C  C108  1  0.90493300  0.15880300  0.53860800  1
  C  C109  1  0.59719700  0.64637900  0.52284500  1
  C  C110  1  0.40280400  0.64637900  0.47715500  1
  C  C111  1  0.09719700  0.14637900  0.52284500  1
  C  C112  1  0.90280400  0.14637900  0.47715500  1
  C  C113  1  0.59848700  0.59857000  0.50750800  1
  C  C114  1  0.40151300  0.59857000  0.49249200  1
  C  C115  1  0.09848700  0.09857000  0.50750800  1
  C  C116  1  0.90151300  0.09857000  0.49249200  1
  C  C117  1  0.59579700  0.61047000  0.44608900  1
  C  C118  1  0.40420300  0.61047000  0.55391100  1
  C  C119  1  0.09579700  0.11047000  0.44608900  1
  C  C120  1  0.90420300  0.11047000  0.55391100  1
  C  C121  1  0.65928800  0.61091300  0.49324800  1
  C  C122  1  0.34071200  0.61091300  0.50675200  1
  C  C123  1  0.15928800  0.11091300  0.49324800  1
  C  C124  1  0.84071200  0.11091300  0.50675200  1
  C  C125  1  0.66141500  0.59843300  0.55465100  1
  C  C126  1  0.33858500  0.59843300  0.44534900  1
  C  C127  1  0.16141500  0.09843300  0.55465100  1
  C  C128  1  0.83858500  0.09843300  0.44534900  1
  C  C129  1  0.66073100  0.64690400  0.57001300  1
  C  C130  1  0.33926900  0.64690400  0.42998700  1
  C  C131  1  0.16073100  0.14690400  0.57001300  1
  C  C132  1  0.83926900  0.14690400  0.42998700  1
  C  C133  1  0.65799100  0.65874400  0.50854700  1
  C  C134  1  0.34200900  0.65874400  0.49145300  1
  C  C135  1  0.15799100  0.15874400  0.50854700  1
  C  C136  1  0.84200900  0.15874400  0.49145300  1
  C  C137  1  0.43665700  0.56383900  0.49429700  1
  C  C138  1  0.56334300  0.56383900  0.50570300  1
  C  C139  1  0.93665700  0.06383900  0.49429700  1
  C  C140  1  0.06334300  0.06383900  0.50570300  1
  C  C141  1  0.93663900  0.94211500  0.49422400  1
  C  C142  1  0.06336100  0.94211500  0.50577600  1
  C  C143  1  0.43663900  0.44211500  0.49422400  1
  C  C144  1  0.56336100  0.44211500  0.50577600  1
  C  C145  1  0.58440700  0.84121500  0.27878700  1
  C  C146  1  0.41559300  0.84121500  0.72121300  1
  C  C147  1  0.08440700  0.34121500  0.27878700  1
  C  C148  1  0.91559300  0.34121500  0.72121300  1
  C  C149  1  0.94260300  0.68956300  0.72128100  1
  C  C150  1  0.05739700  0.68956300  0.27871900  1
  C  C151  1  0.44260300  0.18956300  0.72128100  1
  C  C152  1  0.55739700  0.18956300  0.27871900  1
  C  C153  1  0.52389900  0.65137500  0.14360300  1
  C  C154  1  0.47610100  0.65137500  0.85639700  1
  C  C155  1  0.02389900  0.15137500  0.14360300  1
  C  C156  1  0.97610100  0.15137500  0.85639700  1
  C  C157  1  0.61069400  0.65960800  0.31421700  1
  C  C158  1  0.38930600  0.65960800  0.68578300  1
  C  C159  1  0.11069400  0.15960800  0.31421700  1
  C  C160  1  0.88930600  0.15960800  0.68578300  1
  C  C161  1  0.80556900  0.95745100  0.51660900  1
  C  C162  1  0.19443100  0.95745100  0.48339100  1
  C  C163  1  0.30556900  0.45745100  0.51660900  1
  C  C164  1  0.69443100  0.45745100  0.48339100  1
  N  N1  1  0.51533400  0.70629500  0.03402300  1
  N  N2  1  0.48466600  0.70629500  0.96597700  1
  N  N3  1  0.01533400  0.20629500  0.03402300  1
  N  N4  1  0.98466600  0.20629500  0.96597700  1
  N  N5  1  0.48479000  0.78260300  0.96591100  1
  N  N6  1  0.51521000  0.78260300  0.03408900  1
  N  N7  1  0.98479000  0.28260300  0.96591100  1
  N  N8  1  0.01521000  0.28260300  0.03408900  1
  N  N9  1  0.02206500  0.75920400  0.96695800  1
  N  N10  1  0.97793500  0.75920400  0.03304200  1
  N  N11  1  0.52206500  0.25920400  0.96695800  1
  N  N12  1  0.47793500  0.25920400  0.03304200  1
  N  N13  1  0.05538800  0.75938300  0.03528300  1
  N  N14  1  0.94461200  0.75938300  0.96471700  1
  N  N15  1  0.55538800  0.25938300  0.03528300  1
  N  N16  1  0.44461200  0.25938300  0.96471700  1
  O  O1  1  0.81851300  0.77300200  0.49209400  1
  O  O2  1  0.18148700  0.77300200  0.50790600  1
  O  O3  1  0.31851300  0.27300200  0.49209400  1
  O  O4  1  0.68148700  0.27300200  0.50790600  1
  O  O5  1  0.76785800  0.82653600  0.49828300  1
  O  O6  1  0.23214200  0.82653600  0.50171700  1
  O  O7  1  0.26785800  0.32653600  0.49828300  1
  O  O8  1  0.73214200  0.32653600  0.50171700  1
  O  O9  1  0.72212400  0.72504200  0.39630700  1
  O  O10  1  0.27787700  0.72504200  0.60369400  1
  O  O11  1  0.22212400  0.22504200  0.39630700  1
  O  O12  1  0.77787700  0.22504200  0.60369400  1
  O  O13  1  0.66863500  0.77758500  0.39866100  1
  O  O14  1  0.33136500  0.77758500  0.60133900  1
  O  O15  1  0.16863500  0.27758500  0.39866100  1
  O  O16  1  0.83136500  0.27758500  0.60133900  1
  O  O17  1  0.73079800  0.68133300  0.50342500  1
  O  O18  1  0.26920200  0.68133300  0.49657500  1
  O  O19  1  0.23079800  0.18133300  0.50342500  1
  O  O20  1  0.76920200  0.18133300  0.49657500  1
  O  O21  1  0.67928700  0.73484800  0.50813900  1
  O  O22  1  0.32071300  0.73484800  0.49186100  1
  O  O23  1  0.17928700  0.23484800  0.50813900  1
  O  O24  1  0.82071300  0.23484800  0.49186100  1
  O  O25  1  0.82975800  0.73058300  0.60216600  1
  O  O26  1  0.17024200  0.73058300  0.39783400  1
  O  O27  1  0.32975800  0.23058300  0.60216600  1
  O  O28  1  0.67024200  0.23058300  0.39783400  1
  O  O29  1  0.77560400  0.78233900  0.60454200  1
  O  O30  1  0.22439700  0.78233900  0.39545800  1
  O  O31  1  0.27560400  0.28233900  0.60454200  1
  O  O32  1  0.72439700  0.28233900  0.39545800  1
  O  O33  1  0.42268000  0.54890600  0.43547000  1
  O  O34  1  0.57732000  0.54890600  0.56453000  1
  O  O35  1  0.92268000  0.04890600  0.43547000  1
  O  O36  1  0.07732000  0.04890600  0.56453000  1
  O  O37  1  0.48023700  0.54989000  0.55496500  1
  O  O38  1  0.51976400  0.54989000  0.44503500  1
  O  O39  1  0.98023700  0.04989000  0.55496500  1
  O  O40  1  0.01976400  0.04989000  0.44503500  1
  O  O41  1  0.92270800  0.95705700  0.43544200  1
  O  O42  1  0.07729200  0.95705700  0.56455800  1
  O  O43  1  0.42270800  0.45705700  0.43544200  1
  O  O44  1  0.57729200  0.45705700  0.56455800  1
  O  O45  1  0.98023300  0.95604400  0.55494300  1
  O  O46  1  0.01976700  0.95604400  0.44505700  1
  O  O47  1  0.48023300  0.45604400  0.55494300  1
  O  O48  1  0.51976700  0.45604400  0.44505700  1
  O  O49  1  0.62984700  0.82679500  0.28272100  1
  O  O50  1  0.37015300  0.82679500  0.71727900  1
  O  O51  1  0.12984700  0.32679500  0.28272100  1
  O  O52  1  0.87015300  0.32679500  0.71727900  1
  O  O53  1  0.93606800  0.73528600  0.71547300  1
  O  O54  1  0.06393200  0.73528600  0.28452700  1
  O  O55  1  0.43606800  0.23528600  0.71547300  1
  O  O56  1  0.56393200  0.23528600  0.28452700  1
  O  O57  1  0.57218500  0.66537700  0.15353600  1
  O  O58  1  0.42781500  0.66537700  0.84646400  1
  O  O59  1  0.07218500  0.16537700  0.15353600  1
  O  O60  1  0.92781500  0.16537700  0.84646400  1
  O  O61  1  0.64305300  0.66985700  0.29340000  1
  O  O62  1  0.35694700  0.66985700  0.70660100  1
  O  O63  1  0.14305300  0.16985700  0.29340000  1
  O  O64  1  0.85694700  0.16985700  0.70660100  1
  O  O65  1  0.85478600  0.95794900  0.52372800  1
  O  O66  1  0.14521400  0.95794900  0.47627200  1
  O  O67  1  0.35478600  0.45794900  0.52372800  1
  O  O68  1  0.64521400  0.45794900  0.47627200  1
