# generated using pymatgen
data_ZnH21C34N4O5
_symmetry_space_group_name_H-M   'P 1'
_cell_length_a   14.27753500
_cell_length_b   16.53567800
_cell_length_c   16.66615600
_cell_angle_alpha   90.11206200
_cell_angle_beta   81.46356300
_cell_angle_gamma   109.29013100
_symmetry_Int_Tables_number   1
_chemical_formula_structural   ZnH21C34N4O5
_chemical_formula_sum   'Zn2 H42 C68 N8 O10'
_cell_volume   3667.97189744
_cell_formula_units_Z   2
loop_
 _symmetry_equiv_pos_site_id
 _symmetry_equiv_pos_as_xyz
  1  'x, y, z'
loop_
 _atom_site_type_symbol
 _atom_site_label
 _atom_site_symmetry_multiplicity
 _atom_site_fract_x
 _atom_site_fract_y
 _atom_site_fract_z
 _atom_site_occupancy
  Zn  Zn1  1  0.11251600  0.53005800  0.48377800  1
  Zn  Zn2  1  0.88854900  0.46711000  0.50828200  1
  H  H1  1  0.07165300  0.09352100  0.27653800  1
  H  H2  1  0.92941200  0.90363600  0.71553300  1
  H  H3  1  0.00250300  0.68754100  0.06815500  1
  H  H4  1  0.99860500  0.30963800  0.92388900  1
  H  H5  1  0.00383600  0.69113500  0.91092100  1
  H  H6  1  0.99730900  0.30605700  0.08111700  1
  H  H7  1  0.92769400  0.06227200  0.71870800  1
  H  H8  1  0.07334200  0.93487800  0.27336600  1
  H  H9  1  0.04737500  0.01377900  0.92522100  1
  H  H10  1  0.95375500  0.98341200  0.06681400  1
  H  H11  1  0.16260500  0.26545700  0.18331800  1
  H  H12  1  0.83853200  0.73158300  0.80889200  1
  H  H13  1  0.84380600  0.26376700  0.34390000  1
  H  H14  1  0.15726700  0.73360400  0.64794000  1
  H  H15  1  0.84363000  0.16200400  0.23801500  1
  H  H16  1  0.15746300  0.83535800  0.75383800  1
  H  H17  1  0.16440000  0.81037900  0.17059300  1
  H  H18  1  0.83666700  0.18677600  0.82146200  1
  H  H19  1  0.16590200  0.70878800  0.27630300  1
  H  H20  1  0.83515300  0.28836500  0.71575400  1
  H  H21  1  0.84701400  0.64329200  0.34109100  1
  H  H22  1  0.15404500  0.35386500  0.65094900  1
  H  H23  1  0.84768400  0.74557400  0.23594000  1
  H  H24  1  0.15338200  0.25158700  0.75610300  1
  H  H25  1  0.16493500  0.36762400  0.28962300  1
  H  H26  1  0.83617400  0.62942100  0.70257900  1
  H  H27  1  0.59386000  0.72206700  0.44651900  1
  H  H28  1  0.40795500  0.27389000  0.54056100  1
  H  H29  1  0.75440500  0.55288000  0.50297400  1
  H  H30  1  0.24620800  0.44442900  0.49063600  1
  H  H31  1  0.74627400  0.30215100  0.54137100  1
  H  H32  1  0.25489400  0.69511200  0.45118200  1
  H  H33  1  0.68229000  0.63137900  0.46814900  1
  H  H34  1  0.31959000  0.36419600  0.51822400  1
  H  H35  1  0.42469000  0.79983100  0.39664600  1
  H  H36  1  0.48796800  0.93378300  0.44368600  1
  H  H37  1  0.55217300  0.94011200  0.53019300  1
  H  H38  1  0.41878700  0.92270800  0.54550800  1
  H  H39  1  0.58708100  0.18741000  0.52760800  1
  H  H40  1  0.50291900  0.07313800  0.61694900  1
  H  H41  1  0.41212700  0.09051500  0.69657200  1
  H  H42  1  0.54047100  0.11226500  0.71266900  1
  C  C1  1  0.00259900  0.74176800  0.03197300  1
  C  C2  1  0.99850900  0.25541200  0.96007200  1
  C  C3  1  0.00384700  0.74385000  0.94939900  1
  C  C4  1  0.99727800  0.25333600  0.04264400  1
  C  C5  1  0.00324500  0.82431900  0.92777800  1
  C  C6  1  0.99787300  0.17286500  0.06426700  1
  C  C7  1  0.00257600  0.82138900  0.05722500  1
  C  C8  1  0.99851900  0.17578700  0.93482300  1
  C  C9  1  0.99995100  0.85001400  0.85241300  1
  C  C10  1  0.00117800  0.14717400  0.13963100  1
  C  C11  1  0.98947300  0.93305000  0.83124200  1
  C  C12  1  0.01164000  0.06413100  0.16080600  1
  C  C13  1  0.95380500  0.94789200  0.76206300  1
  C  C14  1  0.04727500  0.04927300  0.22999800  1
  C  C15  1  0.95296200  0.03078800  0.76365300  1
  C  C16  1  0.04810000  0.96637300  0.22841100  1
  C  C17  1  0.98819900  0.06385800  0.83369200  1
  C  C18  1  0.01288400  0.93331300  0.15836200  1
  C  C19  1  0.99653300  0.15159300  0.85821900  1
  C  C20  1  0.00454500  0.84557700  0.13383300  1
  C  C21  1  0.09282000  0.26514900  0.21907900  1
  C  C22  1  0.90830000  0.73196100  0.77305200  1
  C  C23  1  0.09378300  0.32262400  0.27927300  1
  C  C24  1  0.90732000  0.67449200  0.71285100  1
  C  C25  1  0.00451200  0.32314400  0.32443000  1
  C  C26  1  0.99657200  0.67405800  0.66759800  1
  C  C27  1  0.91461700  0.26494700  0.30941000  1
  C  C28  1  0.08646600  0.73234500  0.68251700  1
  C  C29  1  0.91405900  0.20716000  0.24971500  1
  C  C30  1  0.08703700  0.79012900  0.74221800  1
  C  C31  1  0.00293800  0.20747100  0.20421100  1
  C  C32  1  0.99817900  0.78971900  0.78783000  1
  C  C33  1  0.09483900  0.77337600  0.20817100  1
  C  C34  1  0.90622600  0.22378300  0.78388400  1
  C  C35  1  0.09538200  0.71603000  0.26806700  1
  C  C36  1  0.90567700  0.28112900  0.72399100  1
  C  C37  1  0.00653300  0.66839000  0.31627300  1
  C  C38  1  0.99452600  0.32877600  0.67578800  1
  C  C39  1  0.91749200  0.67921100  0.30411300  1
  C  C40  1  0.08356900  0.31795200  0.68793700  1
  C  C41  1  0.91742000  0.73711800  0.24478700  1
  C  C42  1  0.08364500  0.26004500  0.74726100  1
  C  C43  1  0.00582100  0.78401100  0.19649000  1
  C  C44  1  0.99524800  0.21315400  0.79556300  1
  C  C45  1  0.00443000  0.38581400  0.38669700  1
  C  C46  1  0.99663800  0.61137600  0.60534200  1
  C  C47  1  0.00596400  0.60719300  0.38020200  1
  C  C48  1  0.99509400  0.38997600  0.61186600  1
  C  C49  1  0.39707100  0.68143000  0.45474300  1
  C  C50  1  0.60361800  0.31611300  0.54092800  1
  C  C51  1  0.29474700  0.65079700  0.45779900  1
  C  C52  1  0.70636000  0.34638600  0.53461400  1
  C  C53  1  0.29213600  0.51054700  0.48171800  1
  C  C54  1  0.70870700  0.48662700  0.51120700  1
  C  C55  1  0.39595100  0.53832800  0.48145200  1
  C  C56  1  0.60498200  0.45864100  0.51103900  1
  C  C57  1  0.44812200  0.62508400  0.46611900  1
  C  C58  1  0.55277900  0.37200000  0.52724400  1
  C  C59  1  0.44845200  0.48236500  0.49664100  1
  C  C60  1  0.55264400  0.51433200  0.49465100  1
  C  C61  1  0.60236100  0.60122200  0.47467500  1
  C  C62  1  0.39912500  0.39502500  0.51441800  1
  C  C63  1  0.55089100  0.65525000  0.46118600  1
  C  C64  1  0.45057200  0.34115500  0.52847300  1
  C  C65  1  0.45985400  0.81376800  0.50880800  1
  C  C66  1  0.48090500  0.90840000  0.50663300  1
  C  C67  1  0.51764300  0.20516300  0.63621700  1
  C  C68  1  0.49187400  0.11463600  0.66725900  1
  N  N1  1  0.00276200  0.87163700  0.99360800  1
  N  N2  1  0.99834000  0.12554200  0.99843900  1
  N  N3  1  0.01210000  0.00450400  0.87407800  1
  N  N4  1  0.98901400  0.99267900  0.11796600  1
  N  N5  1  0.24411100  0.56663700  0.47152900  1
  N  N6  1  0.75695700  0.43051800  0.52055100  1
  N  N7  1  0.44810400  0.77034000  0.44023500  1
  N  N8  1  0.55251100  0.22736500  0.55671100  1
  O  O1  1  0.91766100  0.39003100  0.42140900  1
  O  O2  1  0.08340400  0.60716500  0.57062200  1
  O  O3  1  0.09062500  0.43588100  0.40450300  1
  O  O4  1  0.91044100  0.56129500  0.58755000  1
  O  O5  1  0.09190300  0.60411900  0.39670200  1
  O  O6  1  0.90917500  0.39305100  0.59535100  1
  O  O7  1  0.91882500  0.55836200  0.41911600  1
  O  O8  1  0.08221200  0.43882100  0.57296300  1
  O  O9  1  0.45286800  0.77572000  0.57319300  1
  O  O10  1  0.50729300  0.25921500  0.68330300  1
