# generated using pymatgen
data_Cu3H4C40(BrO)12
_symmetry_space_group_name_H-M   'P 1'
_cell_length_a   35.17108100
_cell_length_b   35.17108100
_cell_length_c   28.73855100
_cell_angle_alpha   90.00000000
_cell_angle_beta   90.00000000
_cell_angle_gamma   90.00000000
_symmetry_Int_Tables_number   1
_chemical_formula_structural   Cu3H4C40(BrO)12
_chemical_formula_sum   'Cu12 H16 C160 Br48 O48'
_cell_volume   35549.72951833
_cell_formula_units_Z   4
loop_
 _symmetry_equiv_pos_site_id
 _symmetry_equiv_pos_as_xyz
  1  'x, y, z'
loop_
 _atom_site_type_symbol
 _atom_site_label
 _atom_site_symmetry_multiplicity
 _atom_site_fract_x
 _atom_site_fract_y
 _atom_site_fract_z
 _atom_site_occupancy
  Cu  Cu1  1  0.96284000  0.50000000  0.50000000  1
  Cu  Cu2  1  0.50000000  0.03716000  0.50000000  1
  Cu  Cu3  1  0.03716000  0.50000000  0.50000000  1
  Cu  Cu4  1  0.50000000  0.96284000  0.50000000  1
  Cu  Cu5  1  0.46284000  0.00000000  0.00000000  1
  Cu  Cu6  1  0.00000000  0.53716000  0.00000000  1
  Cu  Cu7  1  0.53716000  0.00000000  0.00000000  1
  Cu  Cu8  1  0.00000000  0.46284000  0.00000000  1
  Cu  Cu9  1  0.00000000  0.00000000  0.45444800  1
  Cu  Cu10  1  0.00000000  0.00000000  0.54555200  1
  Cu  Cu11  1  0.50000000  0.50000000  0.95444800  1
  Cu  Cu12  1  0.50000000  0.50000000  0.04555200  1
  H  H1  1  0.04794700  0.31186400  0.54508400  1
  H  H2  1  0.31186400  0.95205300  0.54508400  1
  H  H3  1  0.95205300  0.68813600  0.54508400  1
  H  H4  1  0.68813600  0.04794700  0.54508400  1
  H  H5  1  0.04794700  0.68813700  0.45491600  1
  H  H6  1  0.31186400  0.04794700  0.45491600  1
  H  H7  1  0.95205300  0.31186400  0.45491600  1
  H  H8  1  0.68813700  0.95205300  0.45491600  1
  H  H9  1  0.54794700  0.81186400  0.04508400  1
  H  H10  1  0.81186400  0.45205300  0.04508400  1
  H  H11  1  0.45205300  0.18813700  0.04508300  1
  H  H12  1  0.18813700  0.54794700  0.04508400  1
  H  H13  1  0.54794700  0.18813700  0.95491600  1
  H  H14  1  0.81186400  0.54794700  0.95491600  1
  H  H15  1  0.45205300  0.81186400  0.95491600  1
  H  H16  1  0.18813700  0.45205300  0.95491600  1
  C  C1  1  0.00000000  0.42793900  0.50000000  1
  C  C2  1  0.42793900  0.00000000  0.50000000  1
  C  C3  1  0.00000000  0.57206100  0.50000000  1
  C  C4  1  0.57206100  0.00000000  0.50000000  1
  C  C5  1  0.50000000  0.92793900  0.00000000  1
  C  C6  1  0.92793900  0.50000000  0.00000000  1
  C  C7  1  0.50000000  0.07206100  0.00000000  1
  C  C8  1  0.07206100  0.50000000  0.00000000  1
  C  C9  1  0.00000000  0.50000000  0.41192600  1
  C  C10  1  0.50000000  0.00000000  0.41192600  1
  C  C11  1  0.00000000  0.50000000  0.58807400  1
  C  C12  1  0.50000000  0.00000000  0.58807400  1
  C  C13  1  0.50000000  0.00000000  0.91192600  1
  C  C14  1  0.00000000  0.50000000  0.91192600  1
  C  C15  1  0.50000000  0.00000000  0.08807400  1
  C  C16  1  0.00000000  0.50000000  0.08807400  1
  C  C17  1  0.00000000  0.50000000  0.36201800  1
  C  C18  1  0.50000000  0.00000000  0.36201800  1
  C  C19  1  0.00000000  0.50000000  0.63798200  1
  C  C20  1  0.50000000  0.00000000  0.63798200  1
  C  C21  1  0.50000000  0.00000000  0.86201800  1
  C  C22  1  0.00000000  0.50000000  0.86201800  1
  C  C23  1  0.50000000  0.00000000  0.13798200  1
  C  C24  1  0.00000000  0.50000000  0.13798200  1
  C  C25  1  0.00000000  0.50000000  0.32009400  1
  C  C26  1  0.50000000  0.00000000  0.32009400  1
  C  C27  1  0.00000000  0.50000000  0.67990600  1
  C  C28  1  0.50000000  0.00000000  0.67990600  1
  C  C29  1  0.50000000  0.00000000  0.82009400  1
  C  C30  1  0.00000000  0.50000000  0.82009400  1
  C  C31  1  0.50000000  0.00000000  0.17990600  1
  C  C32  1  0.00000000  0.50000000  0.17990600  1
  C  C33  1  0.00000000  0.50000000  0.27096400  1
  C  C34  1  0.50000000  0.00000000  0.27096400  1
  C  C35  1  0.00000000  0.50000000  0.72903600  1
  C  C36  1  0.50000000  0.00000000  0.72903600  1
  C  C37  1  0.50000000  0.00000000  0.77096400  1
  C  C38  1  0.00000000  0.50000000  0.77096400  1
  C  C39  1  0.50000000  0.00000000  0.22903600  1
  C  C40  1  0.00000000  0.50000000  0.22903600  1
  C  C41  1  0.02385600  0.17238100  0.52950500  1
  C  C42  1  0.17238100  0.97614400  0.52950500  1
  C  C43  1  0.97614400  0.82761900  0.52950500  1
  C  C44  1  0.82761900  0.02385600  0.52950500  1
  C  C45  1  0.02385600  0.82761900  0.47049500  1
  C  C46  1  0.17238100  0.02385700  0.47049500  1
  C  C47  1  0.97614300  0.17238100  0.47049500  1
  C  C48  1  0.82761900  0.97614400  0.47049500  1
  C  C49  1  0.52385600  0.67238100  0.02950500  1
  C  C50  1  0.67238100  0.47614400  0.02950500  1
  C  C51  1  0.47614400  0.32761900  0.02950500  1
  C  C52  1  0.32761900  0.52385600  0.02950500  1
  C  C53  1  0.52385600  0.32761900  0.97049500  1
  C  C54  1  0.67238100  0.52385600  0.97049500  1
  C  C55  1  0.47614400  0.67238100  0.97049500  1
  C  C56  1  0.32761900  0.47614400  0.97049500  1
  C  C57  1  0.02384600  0.13319600  0.52965800  1
  C  C58  1  0.13319600  0.97615400  0.52965800  1
  C  C59  1  0.97615400  0.86680400  0.52965800  1
  C  C60  1  0.86680400  0.02384600  0.52965800  1
  C  C61  1  0.02384600  0.86680400  0.47034200  1
  C  C62  1  0.13319600  0.02384600  0.47034200  1
  C  C63  1  0.97615400  0.13319600  0.47034200  1
  C  C64  1  0.86680400  0.97615400  0.47034200  1
  C  C65  1  0.52384600  0.63319600  0.02965800  1
  C  C66  1  0.63319600  0.47615400  0.02965800  1
  C  C67  1  0.47615400  0.36680400  0.02965800  1
  C  C68  1  0.36680400  0.52384600  0.02965800  1
  C  C69  1  0.52384600  0.36680400  0.97034200  1
  C  C70  1  0.63319600  0.52384600  0.97034200  1
  C  C71  1  0.47615400  0.63319600  0.97034200  1
  C  C72  1  0.36680400  0.47615400  0.97034200  1
  C  C73  1  0.00000000  0.11346900  0.50000000  1
  C  C74  1  0.11346900  0.00000000  0.50000000  1
  C  C75  1  0.00000000  0.88653100  0.50000000  1
  C  C76  1  0.88653100  0.00000000  0.50000000  1
  C  C77  1  0.50000000  0.61346900  0.00000000  1
  C  C78  1  0.61346900  0.50000000  0.00000000  1
  C  C79  1  0.50000000  0.38653100  0.00000000  1
  C  C80  1  0.38653100  0.50000000  0.00000000  1
  C  C81  1  0.00000000  0.19196700  0.50000000  1
  C  C82  1  0.19196700  0.00000000  0.50000000  1
  C  C83  1  0.00000000  0.80803300  0.50000000  1
  C  C84  1  0.80803300  0.00000000  0.50000000  1
  C  C85  1  0.50000000  0.69196700  0.00000000  1
  C  C86  1  0.69196700  0.50000000  0.00000000  1
  C  C87  1  0.50000000  0.30803300  0.00000000  1
  C  C88  1  0.30803300  0.50000000  0.00000000  1
  C  C89  1  0.00000000  0.23274100  0.50000000  1
  C  C90  1  0.23274100  0.00000000  0.50000000  1
  C  C91  1  0.00000000  0.76725900  0.50000000  1
  C  C92  1  0.76725900  0.00000000  0.50000000  1
  C  C93  1  0.50000000  0.73274100  0.00000000  1
  C  C94  1  0.73274100  0.50000000  0.00000000  1
  C  C95  1  0.50000000  0.26725900  0.00000000  1
  C  C96  1  0.26725900  0.50000000  0.00000000  1
  C  C97  1  0.00000000  0.26698600  0.50000000  1
  C  C98  1  0.26698600  0.00000000  0.50000000  1
  C  C99  1  0.00000000  0.73301400  0.50000000  1
  C  C100  1  0.73301400  0.00000000  0.50000000  1
  C  C101  1  0.50000000  0.76698600  0.00000000  1
  C  C102  1  0.76698600  0.50000000  0.00000000  1
  C  C103  1  0.50000000  0.23301400  0.00000000  1
  C  C104  1  0.23301400  0.50000000  0.00000000  1
  C  C105  1  0.02697900  0.32729500  0.52509500  1
  C  C106  1  0.32729500  0.97302100  0.52509500  1
  C  C107  1  0.97302100  0.67270500  0.52509500  1
  C  C108  1  0.67270500  0.02697900  0.52509500  1
  C  C109  1  0.02697900  0.67270500  0.47490500  1
  C  C110  1  0.32729500  0.02697900  0.47490500  1
  C  C111  1  0.97302100  0.32729500  0.47490500  1
  C  C112  1  0.67270500  0.97302100  0.47490500  1
  C  C113  1  0.52697900  0.82729500  0.02509500  1
  C  C114  1  0.82729500  0.47302100  0.02509500  1
  C  C115  1  0.47302100  0.17270500  0.02509500  1
  C  C116  1  0.17270500  0.52697900  0.02509500  1
  C  C117  1  0.52697900  0.17270500  0.97490500  1
  C  C118  1  0.82729500  0.52697900  0.97490500  1
  C  C119  1  0.47302100  0.82729500  0.97490500  1
  C  C120  1  0.17270500  0.47302100  0.97490500  1
  C  C121  1  0.02714200  0.36648500  0.52512100  1
  C  C122  1  0.36648500  0.97285800  0.52512100  1
  C  C123  1  0.97285800  0.63351500  0.52512100  1
  C  C124  1  0.63351500  0.02714200  0.52512100  1
  C  C125  1  0.02714200  0.63351500  0.47487900  1
  C  C126  1  0.36648500  0.02714200  0.47487900  1
  C  C127  1  0.97285800  0.36648500  0.47487900  1
  C  C128  1  0.63351500  0.97285800  0.47487900  1
  C  C129  1  0.52714200  0.86648500  0.02512100  1
  C  C130  1  0.86648500  0.47285800  0.02512100  1
  C  C131  1  0.47285800  0.13351500  0.02512100  1
  C  C132  1  0.13351500  0.52714200  0.02512100  1
  C  C133  1  0.52714200  0.13351500  0.97487900  1
  C  C134  1  0.86648500  0.52714200  0.97487900  1
  C  C135  1  0.47285800  0.86648500  0.97487900  1
  C  C136  1  0.13351500  0.47285800  0.97487900  1
  C  C137  1  0.00000000  0.38632100  0.50000000  1
  C  C138  1  0.38632100  0.00000000  0.50000000  1
  C  C139  1  0.00000000  0.61367900  0.50000000  1
  C  C140  1  0.61367900  0.00000000  0.50000000  1
  C  C141  1  0.50000000  0.88632100  0.00000000  1
  C  C142  1  0.88632100  0.50000000  0.00000000  1
  C  C143  1  0.50000000  0.11367900  0.00000000  1
  C  C144  1  0.11367900  0.50000000  0.00000000  1
  C  C145  1  0.00000000  0.30773400  0.50000000  1
  C  C146  1  0.30773400  0.00000000  0.50000000  1
  C  C147  1  0.00000000  0.69226600  0.50000000  1
  C  C148  1  0.69226600  0.00000000  0.50000000  1
  C  C149  1  0.50000000  0.80773400  0.00000000  1
  C  C150  1  0.80773400  0.50000000  0.00000000  1
  C  C151  1  0.50000000  0.19226600  0.00000000  1
  C  C152  1  0.19226600  0.50000000  0.00000000  1
  C  C153  1  0.07195500  0.00000000  0.50000000  1
  C  C154  1  0.00000000  0.92804500  0.50000000  1
  C  C155  1  0.92804500  0.00000000  0.50000000  1
  C  C156  1  0.00000000  0.07195500  0.50000000  1
  C  C157  1  0.57195500  0.50000000  0.00000000  1
  C  C158  1  0.50000000  0.42804500  0.00000000  1
  C  C159  1  0.42804500  0.50000000  0.00000000  1
  C  C160  1  0.50000000  0.57195500  0.00000000  1
  Br  Br1  1  0.05722100  0.19946000  0.56990700  1
  Br  Br2  1  0.19946000  0.94277900  0.56990700  1
  Br  Br3  1  0.94277900  0.80054000  0.56990700  1
  Br  Br4  1  0.80054000  0.05722100  0.56990700  1
  Br  Br5  1  0.05722100  0.80054000  0.43009300  1
  Br  Br6  1  0.19946000  0.05722100  0.43009300  1
  Br  Br7  1  0.94277900  0.19946000  0.43009300  1
  Br  Br8  1  0.80054000  0.94277900  0.43009300  1
  Br  Br9  1  0.55722100  0.69946000  0.06990700  1
  Br  Br10  1  0.69946000  0.44277900  0.06990700  1
  Br  Br11  1  0.44277900  0.30054000  0.06990700  1
  Br  Br12  1  0.30054000  0.55722100  0.06990700  1
  Br  Br13  1  0.55722100  0.30054000  0.93009300  1
  Br  Br14  1  0.69946000  0.55722100  0.93009300  1
  Br  Br15  1  0.44277900  0.69946000  0.93009300  1
  Br  Br16  1  0.30054000  0.44277900  0.93009300  1
  Br  Br17  1  0.05857800  0.10691400  0.56923300  1
  Br  Br18  1  0.10691400  0.94142200  0.56923300  1
  Br  Br19  1  0.94142200  0.89308600  0.56923300  1
  Br  Br20  1  0.89308600  0.05857800  0.56923300  1
  Br  Br21  1  0.05857800  0.89308600  0.43076700  1
  Br  Br22  1  0.10691400  0.05857800  0.43076700  1
  Br  Br23  1  0.94142200  0.10691400  0.43076700  1
  Br  Br24  1  0.89308600  0.94142200  0.43076700  1
  Br  Br25  1  0.55857800  0.60691400  0.06923300  1
  Br  Br26  1  0.60691400  0.44142200  0.06923300  1
  Br  Br27  1  0.44142200  0.39308600  0.06923300  1
  Br  Br28  1  0.39308600  0.55857800  0.06923300  1
  Br  Br29  1  0.55857800  0.39308600  0.93076700  1
  Br  Br30  1  0.60691400  0.55857800  0.93076700  1
  Br  Br31  1  0.44142200  0.60691400  0.93076700  1
  Br  Br32  1  0.39308600  0.44142200  0.93076700  1
  Br  Br33  1  0.06372100  0.39228000  0.56269600  1
  Br  Br34  1  0.39228000  0.93627900  0.56269600  1
  Br  Br35  1  0.93627900  0.60772000  0.56269600  1
  Br  Br36  1  0.60772000  0.06372100  0.56269600  1
  Br  Br37  1  0.06372100  0.60772000  0.43730400  1
  Br  Br38  1  0.39228000  0.06372100  0.43730400  1
  Br  Br39  1  0.93627900  0.39228000  0.43730400  1
  Br  Br40  1  0.60772000  0.93627900  0.43730400  1
  Br  Br41  1  0.56372100  0.89228000  0.06269600  1
  Br  Br42  1  0.89228000  0.43627900  0.06269600  1
  Br  Br43  1  0.43627900  0.10772000  0.06269600  1
  Br  Br44  1  0.10772000  0.56372100  0.06269600  1
  Br  Br45  1  0.56372100  0.10772000  0.93730400  1
  Br  Br46  1  0.89228000  0.56372100  0.93730400  1
  Br  Br47  1  0.43627900  0.89228000  0.93730400  1
  Br  Br48  1  0.10772000  0.43627900  0.93730400  1
  O  O1  1  0.96863200  0.44576900  0.51283800  1
  O  O2  1  0.44576900  0.03136800  0.51283800  1
  O  O3  1  0.03136800  0.55423100  0.51283800  1
  O  O4  1  0.55423100  0.96863200  0.51283800  1
  O  O5  1  0.96863200  0.55423100  0.48716200  1
  O  O6  1  0.44576900  0.96863200  0.48716200  1
  O  O7  1  0.03136800  0.44576900  0.48716200  1
  O  O8  1  0.55423100  0.03136800  0.48716200  1
  O  O9  1  0.46863200  0.94576900  0.01283800  1
  O  O10  1  0.94576900  0.53136800  0.01283800  1
  O  O11  1  0.53136800  0.05423100  0.01283800  1
  O  O12  1  0.05423100  0.46863200  0.01283800  1
  O  O13  1  0.46863200  0.05423100  0.98716200  1
  O  O14  1  0.94576900  0.46863200  0.98716200  1
  O  O15  1  0.53136800  0.94576900  0.98716200  1
  O  O16  1  0.05423100  0.53136800  0.98716200  1
  O  O17  1  0.96861300  0.48951600  0.43362600  1
  O  O18  1  0.48951600  0.03138700  0.43362600  1
  O  O19  1  0.03138700  0.51048400  0.43362600  1
  O  O20  1  0.51048400  0.96861300  0.43362600  1
  O  O21  1  0.96861300  0.51048400  0.56637400  1
  O  O22  1  0.48951600  0.96861300  0.56637400  1
  O  O23  1  0.03138700  0.48951600  0.56637400  1
  O  O24  1  0.51048400  0.03138700  0.56637400  1
  O  O25  1  0.46861300  0.98951600  0.93362600  1
  O  O26  1  0.98951600  0.53138700  0.93362600  1
  O  O27  1  0.53138700  0.01048400  0.93362600  1
  O  O28  1  0.01048400  0.46861300  0.93362600  1
  O  O29  1  0.46861300  0.01048400  0.06637400  1
  O  O30  1  0.98951600  0.46861300  0.06637400  1
  O  O31  1  0.53138700  0.98951600  0.06637400  1
  O  O32  1  0.01048400  0.53138700  0.06637400  1
  O  O33  1  0.05418100  0.98986700  0.46149300  1
  O  O34  1  0.98986700  0.94581900  0.46149300  1
  O  O35  1  0.94581900  0.01013300  0.46149300  1
  O  O36  1  0.01013300  0.05418100  0.46149300  1
  O  O37  1  0.05418100  0.01013300  0.53850700  1
  O  O38  1  0.98986700  0.05418100  0.53850700  1
  O  O39  1  0.94581900  0.98986700  0.53850700  1
  O  O40  1  0.01013300  0.94581900  0.53850700  1
  O  O41  1  0.55418100  0.48986700  0.96149300  1
  O  O42  1  0.48986700  0.44581900  0.96149300  1
  O  O43  1  0.44581900  0.51013300  0.96149300  1
  O  O44  1  0.51013300  0.55418100  0.96149300  1
  O  O45  1  0.55418100  0.51013300  0.03850700  1
  O  O46  1  0.48986700  0.55418100  0.03850700  1
  O  O47  1  0.44581900  0.48986700  0.03850700  1
  O  O48  1  0.51013300  0.44581900  0.03850700  1
