# generated using pymatgen
data_Cu3H9C24NO13
_symmetry_space_group_name_H-M   'P 1'
_cell_length_a   23.63903500
_cell_length_b   21.36561900
_cell_length_c   23.63718400
_cell_angle_alpha   90.00000000
_cell_angle_beta   90.00000000
_cell_angle_gamma   90.00000000
_symmetry_Int_Tables_number   1
_chemical_formula_structural   Cu3H9C24NO13
_chemical_formula_sum   'Cu12 H36 C96 N4 O52'
_cell_volume   11938.25797026
_cell_formula_units_Z   4
loop_
 _symmetry_equiv_pos_site_id
 _symmetry_equiv_pos_as_xyz
  1  'x, y, z'
loop_
 _atom_site_type_symbol
 _atom_site_label
 _atom_site_symmetry_multiplicity
 _atom_site_fract_x
 _atom_site_fract_y
 _atom_site_fract_z
 _atom_site_occupancy
  Cu  Cu1  1  0.56036000  0.49969800  0.00370500  1
  Cu  Cu2  1  0.06036000  0.99969800  0.50370500  1
  Cu  Cu3  1  0.44761700  0.50097500  0.00281900  1
  Cu  Cu4  1  0.94761700  0.00097500  0.50281900  1
  Cu  Cu5  1  0.49907500  0.00045000  0.05901000  1
  Cu  Cu6  1  0.49970400  0.00012700  0.94615700  1
  Cu  Cu7  1  0.99907500  0.50045000  0.55901000  1
  Cu  Cu8  1  0.99970400  0.50012700  0.44615700  1
  Cu  Cu9  1  0.49973300  0.43737800  0.50312300  1
  Cu  Cu10  1  0.49931200  0.56212300  0.50334500  1
  Cu  Cu11  1  0.99973300  0.93737800  0.00312300  1
  Cu  Cu12  1  0.99931200  0.06212300  0.00334500  1
  H  H1  1  0.40981600  0.21219300  0.03396000  1
  H  H2  1  0.40566100  0.78581500  0.99376200  1
  H  H3  1  0.90981600  0.71219300  0.53396000  1
  H  H4  1  0.90566100  0.28581500  0.49376200  1
  H  H5  1  0.42817600  0.28987300  0.93948100  1
  H  H6  1  0.44797200  0.70934200  0.08117700  1
  H  H7  1  0.48330000  0.28862300  0.09761000  1
  H  H8  1  0.46362600  0.71059000  0.91465100  1
  H  H9  1  0.92817600  0.78987300  0.43948100  1
  H  H10  1  0.94797200  0.20934200  0.58117700  1
  H  H11  1  0.98330000  0.78862300  0.59761000  1
  H  H12  1  0.96362600  0.21059000  0.41465100  1
  H  H13  1  0.51979300  0.21144700  0.90696100  1
  H  H14  1  0.54215600  0.79027600  0.09119300  1
  H  H15  1  0.57499700  0.21038200  0.06482100  1
  H  H16  1  0.55834600  0.79187400  0.92401700  1
  H  H17  1  0.01979300  0.71144700  0.40696100  1
  H  H18  1  0.04215600  0.29027600  0.59119300  1
  H  H19  1  0.07499700  0.71038200  0.56482100  1
  H  H20  1  0.05834600  0.29187400  0.42401700  1
  H  H21  1  0.64030500  0.27364200  0.98823800  1
  H  H22  1  0.70024900  0.31878700  0.92343000  1
  H  H23  1  0.66966500  0.38504500  0.88707500  1
  H  H24  1  0.67209300  0.30940400  0.85281500  1
  H  H25  1  0.62411500  0.67642100  0.98534300  1
  H  H26  1  0.71823000  0.69620600  0.98991700  1
  H  H27  1  0.73862800  0.75763300  0.03820600  1
  H  H28  1  0.72501500  0.77582000  0.96477500  1
  H  H29  1  0.14030500  0.77364200  0.48823800  1
  H  H30  1  0.20024900  0.81878700  0.42343000  1
  H  H31  1  0.16966500  0.88504500  0.38707500  1
  H  H32  1  0.17209300  0.80940400  0.35281500  1
  H  H33  1  0.12411500  0.17642100  0.48534300  1
  H  H34  1  0.21823000  0.19620600  0.48991700  1
  H  H35  1  0.23862800  0.25763300  0.53820600  1
  H  H36  1  0.22501500  0.27582000  0.46477500  1
  C  C1  1  0.50440200  0.49923400  0.89477500  1
  C  C2  1  0.50348900  0.50016900  0.11174600  1
  C  C3  1  0.00440200  0.99923400  0.39477500  1
  C  C4  1  0.00348900  0.00016900  0.61174600  1
  C  C5  1  0.50273200  0.38023400  0.00330500  1
  C  C6  1  0.50497200  0.62049100  0.00268000  1
  C  C7  1  0.00273200  0.88023400  0.50330500  1
  C  C8  1  0.00497200  0.12049100  0.50268000  1
  C  C9  1  0.46152300  0.27122200  0.96783400  1
  C  C10  1  0.47305600  0.72881500  0.04566200  1
  C  C11  1  0.49164800  0.27051600  0.05445000  1
  C  C12  1  0.48156800  0.72945300  0.95449700  1
  C  C13  1  0.96152300  0.77122200  0.46783400  1
  C  C14  1  0.97305600  0.22881500  0.54566200  1
  C  C15  1  0.99164800  0.77051600  0.55445000  1
  C  C16  1  0.98156800  0.22945300  0.45449700  1
  C  C17  1  0.45139800  0.23025700  0.01965900  1
  C  C18  1  0.44986200  0.76901900  0.99773900  1
  C  C19  1  0.95139800  0.73025700  0.51965900  1
  C  C20  1  0.94986200  0.26901900  0.49773900  1
  C  C21  1  0.50072700  0.18974600  0.00217300  1
  C  C22  1  0.50099500  0.81092900  0.00289000  1
  C  C23  1  0.00072700  0.68974600  0.50217300  1
  C  C24  1  0.00099500  0.31092900  0.50289000  1
  C  C25  1  0.51082100  0.22925500  0.95010600  1
  C  C26  1  0.52416000  0.77203600  0.05112600  1
  C  C27  1  0.54107700  0.22878700  0.03702000  1
  C  C28  1  0.53272200  0.77274700  0.95930500  1
  C  C29  1  0.01082100  0.72925500  0.45010600  1
  C  C30  1  0.02416000  0.27203600  0.55112600  1
  C  C31  1  0.04107700  0.72878700  0.53702000  1
  C  C32  1  0.03272200  0.27274700  0.45930500  1
  C  C33  1  0.54960600  0.26917000  0.98552100  1
  C  C34  1  0.55457000  0.73334600  0.00731800  1
  C  C35  1  0.04960600  0.76917000  0.48552100  1
  C  C36  1  0.05457000  0.23334600  0.50731800  1
  C  C37  1  0.50174100  0.31066600  0.00274900  1
  C  C38  1  0.50484300  0.69019000  0.00242300  1
  C  C39  1  0.00174100  0.81066600  0.50274900  1
  C  C40  1  0.00484300  0.19019000  0.50242300  1
  C  C41  1  0.50459500  0.49930100  0.83409100  1
  C  C42  1  0.50279700  0.50062600  0.17241600  1
  C  C43  1  0.00459500  0.99930100  0.33409100  1
  C  C44  1  0.00279700  0.00062600  0.67241600  1
  C  C45  1  0.50400600  0.49923300  0.78312100  1
  C  C46  1  0.50188300  0.50074600  0.22337600  1
  C  C47  1  0.00400600  0.99923300  0.28312100  1
  C  C48  1  0.00188300  0.00074600  0.72337600  1
  C  C49  1  0.50270800  0.49911400  0.72340200  1
  C  C50  1  0.50060800  0.50068700  0.28308200  1
  C  C51  1  0.00270800  0.99911400  0.22340200  1
  C  C52  1  0.00060800  0.00068700  0.78308200  1
  C  C53  1  0.50134600  0.49905000  0.67244400  1
  C  C54  1  0.49952000  0.50056400  0.33403900  1
  C  C55  1  0.00134600  0.99905000  0.17244400  1
  C  C56  1  0.99952000  0.00056400  0.83403900  1
  C  C57  1  0.39092300  0.00119900  0.00202000  1
  C  C58  1  0.89092300  0.50119900  0.50202000  1
  C  C59  1  0.50015800  0.12029000  0.00235000  1
  C  C60  1  0.49975800  0.88035200  0.00281200  1
  C  C61  1  0.00015800  0.62029000  0.50235000  1
  C  C62  1  0.99975800  0.38035200  0.50281200  1
  C  C63  1  0.60790700  0.00033800  0.00315400  1
  C  C64  1  0.10790700  0.50033800  0.50315400  1
  C  C65  1  0.39095600  0.49928700  0.50382100  1
  C  C66  1  0.89095600  0.99928700  0.00382100  1
  C  C67  1  0.49969200  0.49908500  0.61177200  1
  C  C68  1  0.49840800  0.50043100  0.39470900  1
  C  C69  1  0.99969200  0.99908500  0.11177200  1
  C  C70  1  0.99840800  0.00043100  0.89470900  1
  C  C71  1  0.60799800  0.50020000  0.50257200  1
  C  C72  1  0.10799800  0.00020000  0.00257200  1
  C  C73  1  0.33026700  0.00085500  0.00176900  1
  C  C74  1  0.83026700  0.50085500  0.50176900  1
  C  C75  1  0.27931200  0.00067800  0.00176300  1
  C  C76  1  0.77931200  0.50067800  0.50176300  1
  C  C77  1  0.71961100  0.50053700  0.50194200  1
  C  C78  1  0.21961100  0.00053700  0.00194200  1
  C  C79  1  0.66865600  0.50041300  0.50219900  1
  C  C80  1  0.16865600  0.00041300  0.00219900  1
  C  C81  1  0.66858700  0.99951700  0.00347800  1
  C  C82  1  0.16858700  0.49951700  0.50347800  1
  C  C83  1  0.71955800  0.99910400  0.00369200  1
  C  C84  1  0.21955800  0.49910400  0.50369200  1
  C  C85  1  0.27928800  0.49894500  0.50385500  1
  C  C86  1  0.77928800  0.99894500  0.00385500  1
  C  C87  1  0.33026300  0.49902700  0.50390100  1
  C  C88  1  0.83026300  0.99902700  0.00390100  1
  C  C89  1  0.60954800  0.31864600  0.91725900  1
  C  C90  1  0.66649000  0.33380500  0.89383400  1
  C  C91  1  0.65155000  0.75905800  0.01487700  1
  C  C92  1  0.71200300  0.74615200  0.00100300  1
  C  C93  1  0.10954800  0.81864600  0.41725900  1
  C  C94  1  0.16649000  0.83380500  0.39383400  1
  C  C95  1  0.15155000  0.25905800  0.51487700  1
  C  C96  1  0.21200300  0.24615200  0.50100300  1
  N  N1  1  0.60477500  0.29037300  0.96816600  1
  N  N2  1  0.61257200  0.71289700  0.01124200  1
  N  N3  1  0.10477500  0.79037300  0.46816600  1
  N  N4  1  0.11257200  0.21289700  0.51124200  1
  O  O1  1  0.55300900  0.50192200  0.92141900  1
  O  O2  1  0.55251900  0.50228600  0.08591800  1
  O  O3  1  0.05300900  0.00192200  0.42141900  1
  O  O4  1  0.05251900  0.00228600  0.58591800  1
  O  O5  1  0.45548400  0.50271800  0.92064800  1
  O  O6  1  0.45502100  0.50370000  0.08502400  1
  O  O7  1  0.95548400  0.00271800  0.42064800  1
  O  O8  1  0.95502100  0.00370000  0.58502400  1
  O  O9  1  0.55181300  0.40847800  0.00610900  1
  O  O10  1  0.55356200  0.59111600  0.00582200  1
  O  O11  1  0.05181300  0.90847800  0.50610900  1
  O  O12  1  0.05356200  0.09111600  0.50582200  1
  O  O13  1  0.45442300  0.41026000  0.00097000  1
  O  O14  1  0.45605900  0.59150100  0.00007600  1
  O  O15  1  0.95442300  0.91026000  0.50097000  1
  O  O16  1  0.95605900  0.09150100  0.50007600  1
  O  O17  1  0.41689200  0.99778500  0.05097100  1
  O  O18  1  0.41740600  0.99867500  0.95328900  1
  O  O19  1  0.91689200  0.49778500  0.55097100  1
  O  O20  1  0.91740600  0.49867500  0.45328900  1
  O  O21  1  0.49670900  0.09139400  0.05109600  1
  O  O22  1  0.49677800  0.90919200  0.95392800  1
  O  O23  1  0.49837200  0.09113400  0.95364700  1
  O  O24  1  0.49732800  0.90943400  0.05162100  1
  O  O25  1  0.99670900  0.59139400  0.55109600  1
  O  O26  1  0.99677800  0.40919200  0.45392800  1
  O  O27  1  0.99837200  0.59113400  0.45364700  1
  O  O28  1  0.99732800  0.40943400  0.55162100  1
  O  O29  1  0.58135100  0.99840000  0.05177800  1
  O  O30  1  0.58186300  0.99694600  0.95431700  1
  O  O31  1  0.08135100  0.49840000  0.55177800  1
  O  O32  1  0.08186300  0.49694600  0.45431700  1
  O  O33  1  0.41742100  0.44526600  0.50583000  1
  O  O34  1  0.41703100  0.55353600  0.50157100  1
  O  O35  1  0.91742100  0.94526600  0.00583000  1
  O  O36  1  0.91703100  0.05353600  0.00157100  1
  O  O37  1  0.50216800  0.44518200  0.58540400  1
  O  O38  1  0.50085300  0.55434300  0.42104500  1
  O  O39  1  0.50142200  0.44645100  0.42092100  1
  O  O40  1  0.50200900  0.55307400  0.58551900  1
  O  O41  1  0.00216800  0.94518200  0.08540400  1
  O  O42  1  0.00085300  0.05434300  0.92104500  1
  O  O43  1  0.00142200  0.94645100  0.92092100  1
  O  O44  1  0.00200900  0.05307400  0.08551900  1
  O  O45  1  0.58183800  0.44630700  0.50510800  1
  O  O46  1  0.58145000  0.55388800  0.50040500  1
  O  O47  1  0.08183800  0.94630700  0.00510800  1
  O  O48  1  0.08145000  0.05388800  0.00040500  1
  O  O49  1  0.56743100  0.33298000  0.89045700  1
  O  O50  1  0.63792900  0.81158000  0.02972000  1
  O  O51  1  0.06743100  0.83298000  0.39045700  1
  O  O52  1  0.13792900  0.31158000  0.52972000  1
