# generated using pymatgen
data_ZnH21C31N3O5
_symmetry_space_group_name_H-M   'P 1'
_cell_length_a   14.17936100
_cell_length_b   16.18390200
_cell_length_c   16.91737700
_cell_angle_alpha   90.00000000
_cell_angle_beta   98.62644500
_cell_angle_gamma   90.00000000
_symmetry_Int_Tables_number   1
_chemical_formula_structural   ZnH21C31N3O5
_chemical_formula_sum   'Zn2 H42 C62 N6 O10'
_cell_volume   3838.23767398
_cell_formula_units_Z   2
loop_
 _symmetry_equiv_pos_site_id
 _symmetry_equiv_pos_as_xyz
  1  'x, y, z'
loop_
 _atom_site_type_symbol
 _atom_site_label
 _atom_site_symmetry_multiplicity
 _atom_site_fract_x
 _atom_site_fract_y
 _atom_site_fract_z
 _atom_site_occupancy
  Zn  Zn1  1  0.13593200  0.49976200  0.50408100  1
  Zn  Zn2  1  0.92369700  0.49974000  0.48407300  1
  H  H1  1  0.83721000  0.91733200  0.83911200  1
  H  H2  1  0.83720700  0.08218300  0.83911600  1
  H  H3  1  0.05956600  0.31458900  0.92187200  1
  H  H4  1  0.05961700  0.68493900  0.92185000  1
  H  H5  1  0.05510500  0.31337800  0.07621200  1
  H  H6  1  0.05512700  0.68612600  0.07619100  1
  H  H7  1  0.91885600  0.08107600  0.25190600  1
  H  H8  1  0.91884500  0.91841500  0.25189800  1
  H  H9  1  0.06858800  0.99974900  0.06677400  1
  H  H10  1  0.12347300  0.99976300  0.85382000  1
  H  H11  1  0.90081400  0.83255200  0.72332100  1
  H  H12  1  0.90095400  0.16682300  0.72321400  1
  H  H13  1  0.17357800  0.64515100  0.72687200  1
  H  H14  1  0.17352400  0.35447400  0.72696200  1
  H  H15  1  0.17105300  0.74482400  0.83442200  1
  H  H16  1  0.17099200  0.25480100  0.83451000  1
  H  H17  1  0.16863900  0.79195300  0.22822600  1
  H  H18  1  0.16866600  0.20755500  0.22822000  1
  H  H19  1  0.17213500  0.69250600  0.33685700  1
  H  H20  1  0.17217000  0.30701400  0.33684400  1
  H  H21  1  0.86828700  0.66877000  0.28384400  1
  H  H22  1  0.86831600  0.33071800  0.28386200  1
  H  H23  1  0.86688000  0.76742800  0.17459000  1
  H  H24  1  0.86690100  0.23205100  0.17461800  1
  H  H25  1  0.57077100  0.57127800  0.38017900  1
  H  H26  1  0.58079600  0.41791800  0.38564500  1
  H  H27  1  0.41827500  0.58379500  0.40224500  1
  H  H28  1  0.42360800  0.43024700  0.39237600  1
  H  H29  1  0.44258500  0.36795200  0.48194100  1
  H  H30  1  0.45583800  0.63245900  0.49787100  1
  H  H31  1  0.60177600  0.36716700  0.48183100  1
  H  H32  1  0.60638800  0.63181900  0.46942800  1
  H  H33  1  0.48437900  0.54762800  0.62173700  1
  H  H34  1  0.49018500  0.43644700  0.61348000  1
  H  H35  1  0.63742800  0.56068300  0.60126500  1
  H  H36  1  0.64715600  0.44945000  0.60596800  1
  H  H37  1  0.76449500  0.29592000  0.64109500  1
  H  H38  1  0.77181100  0.18508900  0.62641000  1
  H  H39  1  0.73936800  0.25216300  0.54191400  1
  H  H40  1  0.76454200  0.70310800  0.64153300  1
  H  H41  1  0.73900700  0.74674200  0.54232400  1
  H  H42  1  0.77143900  0.81394600  0.62673300  1
  C  C1  1  0.05023200  0.26015400  0.95678200  1
  C  C2  1  0.05025900  0.73936500  0.95676600  1
  C  C3  1  0.04711900  0.25975000  0.03768200  1
  C  C4  1  0.04713300  0.73975600  0.03766500  1
  C  C5  1  0.02919700  0.17909900  0.05766600  1
  C  C6  1  0.02919500  0.82040300  0.05765500  1
  C  C7  1  0.03434000  0.17955200  0.93099700  1
  C  C8  1  0.03435400  0.81996700  0.93099000  1
  C  C9  1  0.01634200  0.15333400  0.13032400  1
  C  C10  1  0.01632500  0.84615900  0.13031300  1
  C  C11  1  0.99470400  0.06668500  0.14751700  1
  C  C12  1  0.99469500  0.93280900  0.14751000  1
  C  C13  1  0.94839100  0.04224000  0.20981000  1
  C  C14  1  0.94838600  0.95725200  0.20980500  1
  C  C15  1  0.02620800  0.84793700  0.85604200  1
  C  C16  1  0.02620000  0.15158600  0.85604700  1
  C  C17  1  0.99198200  0.93295100  0.84134700  1
  C  C18  1  0.99197900  0.06657000  0.84135200  1
  C  C19  1  0.89808800  0.95718200  0.83757100  1
  C  C20  1  0.89808600  0.04233500  0.83757400  1
  C  C21  1  0.96003800  0.79074500  0.72409900  1
  C  C22  1  0.96013000  0.20868800  0.72403600  1
  C  C23  1  0.96211300  0.73672000  0.66105600  1
  C  C24  1  0.96223300  0.26269600  0.66098200  1
  C  C25  1  0.03786500  0.68131400  0.66316300  1
  C  C26  1  0.03791800  0.31817900  0.66315400  1
  C  C27  1  0.11355300  0.68666000  0.72479200  1
  C  C28  1  0.11354400  0.31290900  0.72484200  1
  C  C29  1  0.11153600  0.74221100  0.78639600  1
  C  C30  1  0.11151600  0.25736200  0.78644600  1
  C  C31  1  0.03282800  0.79214600  0.78807700  1
  C  C32  1  0.03284400  0.20736900  0.78807800  1
  C  C33  1  0.10286800  0.76452800  0.24053100  1
  C  C34  1  0.10289500  0.23497400  0.24053200  1
  C  C35  1  0.10441300  0.70834500  0.30188200  1
  C  C36  1  0.10444500  0.29116500  0.30187800  1
  C  C37  1  0.02030500  0.67374900  0.31842600  1
  C  C38  1  0.02033700  0.32575500  0.31842700  1
  C  C39  1  0.93484100  0.69543500  0.27254400  1
  C  C40  1  0.93486900  0.30405700  0.27255700  1
  C  C41  1  0.93376000  0.75081600  0.21053300  1
  C  C42  1  0.93378400  0.24867000  0.21055300  1
  C  C43  1  0.01766900  0.78569800  0.19473200  1
  C  C44  1  0.01769100  0.21379200  0.19474600  1
  C  C45  1  0.03695800  0.61436200  0.60403400  1
  C  C46  1  0.03699000  0.38513300  0.60402900  1
  C  C47  1  0.02235400  0.38662100  0.38272300  1
  C  C48  1  0.02232700  0.61288600  0.38272600  1
  C  C49  1  0.46614100  0.57811600  0.46016200  1
  C  C50  1  0.46411900  0.42532400  0.45357200  1
  C  C51  1  0.56988000  0.42219700  0.44906100  1
  C  C52  1  0.56876300  0.57503700  0.44535500  1
  C  C53  1  0.44289600  0.49975000  0.50244600  1
  C  C54  1  0.61691900  0.49972400  0.48650700  1
  C  C55  1  0.60745100  0.50193700  0.57463800  1
  C  C56  1  0.50318900  0.49579300  0.58416900  1
  C  C57  1  0.71809700  0.49972600  0.47830000  1
  C  C58  1  0.34163900  0.49976800  0.51047900  1
  C  C59  1  0.88665100  0.25633500  0.59111600  1
  C  C60  1  0.78442600  0.24659800  0.60118800  1
  C  C61  1  0.88639000  0.74297100  0.59128500  1
  C  C62  1  0.78418900  0.75245700  0.60152900  1
  N  N1  1  0.02088000  0.13036700  0.99252800  1
  N  N2  1  0.02087900  0.86914200  0.99252300  1
  N  N3  1  0.02402800  0.99974700  0.11040300  1
  N  N4  1  0.04908300  0.99976200  0.84470400  1
  N  N5  1  0.79880600  0.49972800  0.47427200  1
  N  N6  1  0.26085500  0.49977400  0.51425000  1
  O  O1  1  0.95440100  0.58390900  0.57206900  1
  O  O2  1  0.95442000  0.41556600  0.57206300  1
  O  O3  1  0.11812200  0.58791400  0.58479400  1
  O  O4  1  0.11814600  0.41160200  0.58479300  1
  O  O5  1  0.10546100  0.41535300  0.41586000  1
  O  O6  1  0.10543900  0.58416900  0.41586200  1
  O  O7  1  0.94124900  0.41153200  0.40315100  1
  O  O8  1  0.94122800  0.58795800  0.40315500  1
  O  O9  1  0.90733400  0.25850200  0.52370900  1
  O  O10  1  0.90692800  0.74089500  0.52382900  1
