# generated using pymatgen
data_ZnH21C28NO12
_symmetry_space_group_name_H-M   'P 1'
_cell_length_a   14.10509600
_cell_length_b   15.22147800
_cell_length_c   17.46752200
_cell_angle_alpha   90.00304500
_cell_angle_beta   86.24394700
_cell_angle_gamma   90.00488000
_symmetry_Int_Tables_number   1
_chemical_formula_structural   ZnH21C28NO12
_chemical_formula_sum   'Zn2 H42 C56 N2 O24'
_cell_volume   3742.22851060
_cell_formula_units_Z   2
loop_
 _symmetry_equiv_pos_site_id
 _symmetry_equiv_pos_as_xyz
  1  'x, y, z'
loop_
 _atom_site_type_symbol
 _atom_site_label
 _atom_site_symmetry_multiplicity
 _atom_site_fract_x
 _atom_site_fract_y
 _atom_site_fract_z
 _atom_site_occupancy
  Zn  Zn1  1  0.39066600  0.46973500  0.52024200  1
  Zn  Zn2  1  0.60576600  0.47784400  0.52651000  1
  H  H1  1  0.58777300  0.39170500  0.76483200  1
  H  H2  1  0.37491900  0.47774700  0.28290400  1
  H  H3  1  0.60044000  0.45241700  0.01514000  1
  H  H4  1  0.39088200  0.50555300  0.02892800  1
  H  H5  1  0.34445600  0.56388000  0.91135900  1
  H  H6  1  0.67659500  0.48742000  0.12892500  1
  H  H7  1  0.37484200  0.46446300  0.14769300  1
  H  H8  1  0.58193200  0.38995200  0.90304600  1
  H  H9  1  0.34929800  0.92336200  0.50769800  1
  H  H10  1  0.62717200  0.03054300  0.44388400  1
  H  H11  1  0.64059700  0.75032000  0.51362500  1
  H  H12  1  0.38355600  0.19692800  0.59575300  1
  H  H13  1  0.64894200  0.90719000  0.52112400  1
  H  H14  1  0.37848600  0.03775500  0.59623500  1
  H  H15  1  0.75645200  0.35759800  0.48470300  1
  H  H16  1  0.23518600  0.51931600  0.62478300  1
  H  H17  1  0.92598700  0.34729500  0.48662200  1
  H  H18  1  0.06468700  0.51824400  0.63377600  1
  H  H19  1  0.05082100  0.80092100  0.48915900  1
  H  H20  1  0.07346700  0.76078000  0.58390500  1
  H  H21  1  0.95872300  0.80687000  0.56577200  1
  H  H22  1  0.96982800  0.51176400  0.23917400  1
  H  H23  1  0.93477400  0.40438900  0.27580200  1
  H  H24  1  0.05406700  0.42233900  0.23380000  1
  H  H25  1  0.77236600  0.83498100  0.63213300  1
  H  H26  1  0.77198400  0.75241300  0.70643000  1
  H  H27  1  0.66551100  0.77288200  0.65664600  1
  H  H28  1  0.23803100  0.34102800  0.21067200  1
  H  H29  1  0.22770100  0.25803100  0.28465500  1
  H  H30  1  0.33935200  0.31491500  0.26458800  1
  H  H31  1  0.78171700  0.65676000  0.39320300  1
  H  H32  1  0.83801800  0.63082100  0.30002500  1
  H  H33  1  0.83056000  0.54847100  0.37530200  1
  H  H34  1  0.12478800  0.67230100  0.80741700  1
  H  H35  1  0.17188300  0.64641900  0.71145700  1
  H  H36  1  0.22580700  0.73256000  0.76592600  1
  H  H37  1  0.23456800  0.62163600  0.36387500  1
  H  H38  1  0.18396500  0.72802200  0.38771000  1
  H  H39  1  0.18088200  0.64126400  0.45904500  1
  H  H40  1  0.86299500  0.15053500  0.35005500  1
  H  H41  1  0.82082600  0.26017300  0.37233000  1
  H  H42  1  0.76879100  0.19683100  0.29760000  1
  C  C1  1  0.48924800  0.64609700  0.52029100  1
  C  C2  1  0.50726100  0.30197700  0.52317500  1
  C  C3  1  0.47756700  0.47531300  0.67343300  1
  C  C4  1  0.51907100  0.47601700  0.37284600  1
  C  C5  1  0.46948400  0.47844400  0.75760700  1
  C  C6  1  0.52621500  0.48205200  0.28788400  1
  C  C7  1  0.53440300  0.43066500  0.79640600  1
  C  C8  1  0.44259600  0.47765800  0.25088500  1
  C  C9  1  0.53125900  0.43014300  0.87536400  1
  C  C10  1  0.44245300  0.47216700  0.17233100  1
  C  C11  1  0.46284000  0.47841200  0.91708600  1
  C  C12  1  0.52696800  0.47338300  0.12790300  1
  C  C13  1  0.39667600  0.52485900  0.87861800  1
  C  C14  1  0.61066300  0.48221500  0.16379000  1
  C  C15  1  0.40042300  0.52739700  0.79932900  1
  C  C16  1  0.61133400  0.48968100  0.24279900  1
  C  C17  1  0.45711100  0.48235500  0.00157900  1
  C  C18  1  0.53159300  0.46632300  0.04344100  1
  C  C19  1  0.41265000  0.88463000  0.51326600  1
  C  C20  1  0.57582000  0.06714100  0.47964900  1
  C  C21  1  0.40698400  0.79402800  0.50819900  1
  C  C22  1  0.57830900  0.15798800  0.47763300  1
  C  C23  1  0.48873300  0.74328100  0.51396500  1
  C  C24  1  0.50921400  0.20558200  0.52067300  1
  C  C25  1  0.57501200  0.78643700  0.51497600  1
  C  C26  1  0.43764800  0.16098500  0.56210500  1
  C  C27  1  0.58021000  0.87660400  0.51779300  1
  C  C28  1  0.43472000  0.07060000  0.56235800  1
  C  C29  1  0.49875300  0.92646900  0.51882000  1
  C  C30  1  0.50382500  0.02295900  0.52112300  1
  C  C31  1  0.89612700  0.55349300  0.55209100  1
  C  C32  1  0.10340500  0.44010000  0.45469100  1
  C  C33  1  0.79670300  0.55279900  0.56031700  1
  C  C34  1  0.20204500  0.43000200  0.45545600  1
  C  C35  1  0.79468800  0.41329300  0.50493200  1
  C  C36  1  0.19907600  0.49544200  0.57648800  1
  C  C37  1  0.89223000  0.40849900  0.50353300  1
  C  C38  1  0.10129700  0.49770900  0.58062600  1
  C  C39  1  0.94548900  0.48033000  0.52274900  1
  C  C40  1  0.05146100  0.47489600  0.51817500  1
  C  C41  1  0.94774600  0.63172800  0.57522400  1
  C  C42  1  0.01928000  0.76729800  0.54107000  1
  C  C43  1  0.05511600  0.41350000  0.38655700  1
  C  C44  1  0.99400000  0.45220500  0.26880400  1
  C  C45  1  0.74669700  0.62319600  0.60485000  1
  C  C46  1  0.74416400  0.76975500  0.65044300  1
  C  C47  1  0.25305800  0.37762700  0.39466500  1
  C  C48  1  0.26094600  0.32180400  0.26783900  1
  C  C49  1  0.70254700  0.51184400  0.27375900  1
  C  C50  1  0.79362700  0.60435700  0.34951000  1
  C  C51  1  0.33549700  0.58819800  0.76317300  1
  C  C52  1  0.19066000  0.66734800  0.76937400  1
  C  C53  1  0.31475200  0.75744800  0.49048200  1
  C  C54  1  0.22304300  0.67126800  0.41003700  1
  C  C55  1  0.64975000  0.19968500  0.42407100  1
  C  C56  1  0.79941200  0.19353400  0.35443200  1
  N  N1  1  0.74715400  0.48451400  0.53254300  1
  N  N2  1  0.24922500  0.46248800  0.51473000  1
  O  O1  1  0.40905300  0.60178600  0.52144000  1
  O  O2  1  0.58709900  0.34582700  0.52572200  1
  O  O3  1  0.57222100  0.60721000  0.52372200  1
  O  O4  1  0.42426700  0.34043200  0.52243300  1
  O  O5  1  0.40038700  0.47170500  0.63548200  1
  O  O6  1  0.59631000  0.47540900  0.41122900  1
  O  O7  1  0.56316500  0.47627100  0.63951400  1
  O  O8  1  0.43327900  0.47200000  0.40719400  1
  O  O9  1  0.94852300  0.65118300  0.64298000  1
  O  O10  1  0.98772600  0.68575900  0.52126500  1
  O  O11  1  0.04922500  0.33583700  0.37008100  1
  O  O12  1  0.02332400  0.47522200  0.33932400  1
  O  O13  1  0.68607700  0.60366900  0.65474000  1
  O  O14  1  0.77315700  0.70803400  0.59656400  1
  O  O15  1  0.30862000  0.32119500  0.41246800  1
  O  O16  1  0.23245700  0.38494200  0.32057900  1
  O  O17  1  0.77524900  0.47922900  0.24498400  1
  O  O18  1  0.70773000  0.57698600  0.32568200  1
  O  O19  1  0.36120200  0.62743200  0.70456800  1
  O  O20  1  0.25028600  0.60681700  0.79902300  1
  O  O21  1  0.24231800  0.78911200  0.52062700  1
  O  O22  1  0.30927900  0.69860000  0.43319000  1
  O  O23  1  0.63069600  0.26642300  0.38962700  1
  O  O24  1  0.73373000  0.15931000  0.40767600  1
