# generated using pymatgen
data_ZnH13C23NO6
_symmetry_space_group_name_H-M   'P 1'
_cell_length_a   8.54943100
_cell_length_b   11.15855200
_cell_length_c   17.52983400
_cell_angle_alpha   90.54387300
_cell_angle_beta   92.61743100
_cell_angle_gamma   80.68108500
_symmetry_Int_Tables_number   1
_chemical_formula_structural   ZnH13C23NO6
_chemical_formula_sum   'Zn2 H26 C46 N2 O12'
_cell_volume   1648.53702774
_cell_formula_units_Z   2
loop_
 _symmetry_equiv_pos_site_id
 _symmetry_equiv_pos_as_xyz
  1  'x, y, z'
loop_
 _atom_site_type_symbol
 _atom_site_label
 _atom_site_symmetry_multiplicity
 _atom_site_fract_x
 _atom_site_fract_y
 _atom_site_fract_z
 _atom_site_occupancy
  Zn  Zn1  1  0.49947600  0.50048400  0.91638500  1
  Zn  Zn2  1  0.50841400  0.51564400  0.08624600  1
  H  H1  1  0.00909400  0.59186500  0.97634900  1
  H  H2  1  0.99875000  0.42429000  0.02629600  1
  H  H3  1  0.28644600  0.91908800  0.99470600  1
  H  H4  1  0.72137400  0.09709100  0.00775300  1
  H  H5  1  0.56903500  0.19992500  0.68739200  1
  H  H6  1  0.49094700  0.81415500  0.31702900  1
  H  H7  1  0.52642600  0.20665400  0.43868300  1
  H  H8  1  0.42451600  0.81079200  0.56189900  1
  H  H9  1  0.57810900  0.20003400  0.55267600  1
  H  H10  1  0.48790400  0.81367300  0.45199600  1
  H  H11  1  0.45237300  0.68506200  0.81288200  1
  H  H12  1  0.53012700  0.33195500  0.18881300  1
  H  H13  1  0.53877500  0.30475300  0.80653000  1
  H  H14  1  0.49687500  0.71049100  0.19700400  1
  H  H15  1  0.58560600  0.00796800  0.10982600  1
  H  H16  1  0.70943800  0.86082000  0.12027400  1
  H  H17  1  0.49757700  0.87090800  0.10309600  1
  H  H18  1  0.50704600  0.14880800  0.89924000  1
  H  H19  1  0.29612500  0.15240200  0.88231700  1
  H  H20  1  0.42670500  0.00824200  0.89309800  1
  H  H21  1  0.72429700  0.06537800  0.32817300  1
  H  H22  1  0.76595400  0.21792000  0.31651000  1
  H  H23  1  0.72707200  0.12851900  0.23331500  1
  H  H24  1  0.19908700  0.77232300  0.68043900  1
  H  H25  1  0.20841800  0.93239000  0.67136900  1
  H  H26  1  0.21438800  0.86402000  0.76519800  1
  C  C1  1  0.09650600  0.75616100  0.99285400  1
  C  C2  1  0.91136100  0.25998300  0.00980900  1
  C  C3  1  0.97783400  0.68728000  0.98641700  1
  C  C4  1  0.03001900  0.32887300  0.01623400  1
  C  C5  1  0.82252800  0.73749600  0.99613200  1
  C  C6  1  0.18531200  0.27866700  0.00649600  1
  C  C7  1  0.77921200  0.85982500  0.00444000  1
  C  C8  1  0.22863200  0.15633400  0.99823200  1
  C  C9  1  0.89260800  0.93351700  0.00221900  1
  C  C10  1  0.11524000  0.08263800  0.00042300  1
  C  C11  1  0.05210200  0.88215200  0.99853600  1
  C  C12  1  0.95575300  0.13399900  0.00410300  1
  C  C13  1  0.84501500  0.05814600  0.00462000  1
  C  C14  1  0.16282500  0.95801400  0.99795800  1
  C  C15  1  0.30424000  0.35614300  0.00387800  1
  C  C16  1  0.70359100  0.66002800  0.99874600  1
  C  C17  1  0.26080600  0.68672500  0.99562100  1
  C  C18  1  0.74707600  0.32940700  0.00702400  1
  C  C19  1  0.51811300  0.39036800  0.77655400  1
  C  C20  1  0.50469600  0.62510600  0.22656500  1
  C  C21  1  0.46987000  0.60226800  0.77974600  1
  C  C22  1  0.52307100  0.41418100  0.22236400  1
  C  C23  1  0.49653200  0.50135800  0.65935100  1
  C  C24  1  0.51132800  0.51432700  0.34325700  1
  C  C25  1  0.51966100  0.39251700  0.69777200  1
  C  C26  1  0.50321800  0.62274800  0.30535700  1
  C  C27  1  0.54757000  0.28583600  0.65763400  1
  C  C28  1  0.49420100  0.72877400  0.34615900  1
  C  C29  1  0.47079000  0.60698500  0.70111000  1
  C  C30  1  0.52189000  0.40924900  0.30097400  1
  C  C31  1  0.51995300  0.40016300  0.45939800  1
  C  C32  1  0.48144700  0.61567400  0.54297900  1
  C  C33  1  0.49251500  0.61877000  0.46370000  1
  C  C34  1  0.52303800  0.39660700  0.53917800  1
  C  C35  1  0.50810100  0.51106300  0.42238800  1
  C  C36  1  0.50019000  0.50455700  0.58023300  1
  C  C37  1  0.52685200  0.29508500  0.41532100  1
  C  C38  1  0.45041500  0.72153700  0.58620400  1
  C  C39  1  0.52840400  0.29980000  0.33713300  1
  C  C40  1  0.44582200  0.71698000  0.66430100  1
  C  C41  1  0.54985900  0.28732600  0.57931200  1
  C  C42  1  0.48958000  0.72727900  0.42440900  1
  C  C43  1  0.60285100  0.91217200  0.09018100  1
  C  C44  1  0.40476600  0.10416500  0.91243100  1
  C  C45  1  0.69620100  0.14915900  0.29331100  1
  C  C46  1  0.25110400  0.84941400  0.70551500  1
  N  N1  1  0.49397900  0.49492300  0.81625900  1
  N  N2  1  0.51396800  0.52116600  0.18637000  1
  O  O1  1  0.35227400  0.40028300  0.06835800  1
  O  O2  1  0.65541800  0.61599900  0.93424900  1
  O  O3  1  0.35209100  0.38210400  0.93701100  1
  O  O4  1  0.65588700  0.63396100  0.06562600  1
  O  O5  1  0.31407700  0.63404300  0.93212600  1
  O  O6  1  0.69369800  0.38199300  0.07052300  1
  O  O7  1  0.32602200  0.65135800  0.06312100  1
  O  O8  1  0.68198900  0.36487600  0.93952600  1
  O  O9  1  0.62296500  0.90760700  0.01165500  1
  O  O10  1  0.38485400  0.10856300  0.99096600  1
  O  O11  1  0.53476400  0.19480200  0.29580400  1
  O  O12  1  0.41609100  0.82281400  0.70483300  1
