# generated using pymatgen
data_Zn2H16C41IN3O8
_symmetry_space_group_name_H-M   'P 1'
_cell_length_a   8.52835500
_cell_length_b   10.72261900
_cell_length_c   17.55117200
_cell_angle_alpha   97.67067000
_cell_angle_beta   90.10279000
_cell_angle_gamma   90.00838600
_symmetry_Int_Tables_number   1
_chemical_formula_structural   Zn2H16C41IN3O8
_chemical_formula_sum   'Zn2 H16 C41 I1 N3 O8'
_cell_volume   1590.62508650
_cell_formula_units_Z   1
loop_
 _symmetry_equiv_pos_site_id
 _symmetry_equiv_pos_as_xyz
  1  'x, y, z'
loop_
 _atom_site_type_symbol
 _atom_site_label
 _atom_site_symmetry_multiplicity
 _atom_site_fract_x
 _atom_site_fract_y
 _atom_site_fract_z
 _atom_site_occupancy
  Zn  Zn1  1  0.50155200  0.49553200  0.08528700  1
  Zn  Zn2  1  0.50116900  0.50309200  0.91578300  1
  H  H1  1  0.61273100  0.89513200  0.01133200  1
  H  H2  1  0.99785100  0.59171500  0.04379300  1
  H  H3  1  0.99767100  0.40767200  0.95750200  1
  H  H4  1  0.25645100  0.90305000  0.99391100  1
  H  H5  1  0.25664100  0.09558300  0.00627800  1
  H  H6  1  0.53477800  0.81356100  0.71527900  1
  H  H7  1  0.53891600  0.81660100  0.58088500  1
  H  H8  1  0.48557100  0.81496000  0.46803300  1
  H  H9  1  0.52114200  0.18527700  0.28618400  1
  H  H10  1  0.47108800  0.18509200  0.53349100  1
  H  H11  1  0.47303000  0.19342100  0.66871600  1
  H  H12  1  0.52438900  0.18222500  0.42055900  1
  H  H13  1  0.51099900  0.29591700  0.17715800  1
  H  H14  1  0.51894000  0.70254600  0.82434800  1
  H  H15  1  0.49522900  0.68949300  0.20556000  1
  H  H16  1  0.48632000  0.30850500  0.79413100  1
  C  C1  1  0.99966400  0.68935700  0.03490000  1
  C  C2  1  0.14013700  0.74625800  0.02373800  1
  C  C3  1  0.14338100  0.86764000  0.00728100  1
  C  C4  1  0.86095900  0.75014300  0.02471900  1
  C  C5  1  0.86293600  0.87549400  0.01217700  1
  C  C6  1  0.00515500  0.93629200  0.00595600  1
  C  C7  1  0.00511000  0.06267000  0.99484100  1
  C  C8  1  0.14337800  0.13115200  0.99322900  1
  C  C9  1  0.13992400  0.25273400  0.97709800  1
  C  C10  1  0.72448700  0.94074200  0.00626800  1
  C  C11  1  0.86306600  0.12413100  0.98909900  1
  C  C12  1  0.86109600  0.24915400  0.97660600  1
  C  C13  1  0.99949600  0.30997900  0.96628100  1
  C  C14  1  0.28157100  0.66963400  0.01662500  1
  C  C15  1  0.28131300  0.32921200  0.98429000  1
  C  C16  1  0.71888300  0.32607600  0.98408300  1
  C  C17  1  0.71947300  0.67214200  0.01711700  1
  C  C18  1  0.49853500  0.60361900  0.23119900  1
  C  C19  1  0.50743800  0.38409400  0.21500100  1
  C  C20  1  0.50390600  0.49687500  0.34215300  1
  C  C21  1  0.49924800  0.60726300  0.31020600  1
  C  C22  1  0.49381300  0.72043900  0.35733100  1
  C  C23  1  0.50816400  0.38488500  0.29372500  1
  C  C24  1  0.51046100  0.61408600  0.54904400  1
  C  C25  1  0.49867200  0.38703400  0.53201800  1
  C  C26  1  0.50427000  0.50134400  0.57974600  1
  C  C27  1  0.52412600  0.72590800  0.59934200  1
  C  C28  1  0.52450900  0.72556300  0.67759800  1
  C  C29  1  0.51269300  0.61443700  0.70761400  1
  C  C30  1  0.50360300  0.50292800  0.65903600  1
  C  C31  1  0.49397300  0.39292300  0.69082300  1
  C  C32  1  0.49326900  0.39554000  0.76957500  1
  C  C33  1  0.51163300  0.61468200  0.78634900  1
  C  C34  1  0.50397400  0.61256700  0.46925700  1
  C  C35  1  0.50442800  0.49829100  0.42148800  1
  C  C36  1  0.50531000  0.38540000  0.45223700  1
  C  C37  1  0.49545000  0.72305900  0.43574800  1
  C  C38  1  0.51477000  0.27355700  0.32382000  1
  C  C39  1  0.48505000  0.27679200  0.56562500  1
  C  C40  1  0.48347200  0.28024100  0.64410800  1
  C  C41  1  0.51397300  0.27324700  0.40203700  1
  I  I1  1  0.48158300  0.89375900  0.31309700  1
  N  N1  1  0.72700600  0.06270600  0.99536200  1
  N  N2  1  0.50206600  0.49297300  0.18502100  1
  N  N3  1  0.50128800  0.50571100  0.81611200  1
  O  O1  1  0.33231700  0.63099100  0.94696000  1
  O  O2  1  0.33695500  0.62842100  0.07844500  1
  O  O3  1  0.33231800  0.36779900  0.05400300  1
  O  O4  1  0.33632700  0.37037100  0.92248700  1
  O  O5  1  0.66999500  0.36720900  0.05381300  1
  O  O6  1  0.66478000  0.36935900  0.92266400  1
  O  O7  1  0.67006600  0.63118600  0.94738300  1
  O  O8  1  0.66549600  0.62903800  0.07850600  1
