# generated using pymatgen
data_Fe2H33C47N3O16
_symmetry_space_group_name_H-M   'P 1'
_cell_length_a   14.22903200
_cell_length_b   14.16300200
_cell_length_c   13.08256300
_cell_angle_alpha   86.94194000
_cell_angle_beta   93.18495600
_cell_angle_gamma   116.82188600
_symmetry_Int_Tables_number   1
_chemical_formula_structural   Fe2H33C47N3O16
_chemical_formula_sum   'Fe2 H33 C47 N3 O16'
_cell_volume   2348.00756300
_cell_formula_units_Z   1
loop_
 _symmetry_equiv_pos_site_id
 _symmetry_equiv_pos_as_xyz
  1  'x, y, z'
loop_
 _atom_site_type_symbol
 _atom_site_label
 _atom_site_symmetry_multiplicity
 _atom_site_fract_x
 _atom_site_fract_y
 _atom_site_fract_z
 _atom_site_occupancy
  Fe  Fe1  1  0.49084100  0.00189500  0.23994200  1
  Fe  Fe2  1  0.49447500  0.00684100  0.79099600  1
  H  H1  1  0.84440000  0.99338800  0.21922100  1
  H  H2  1  0.00088700  0.06760200  0.83427500  1
  H  H3  1  0.15462400  0.05593100  0.81338500  1
  H  H4  1  0.18793300  0.99494100  0.18311100  1
  H  H5  1  0.95033300  0.81464100  0.22803300  1
  H  H6  1  0.08819700  0.13914500  0.29952300  1
  H  H7  1  0.51051400  0.38236000  0.32187800  1
  H  H8  1  0.53841500  0.38963700  0.64974500  1
  H  H9  1  0.52404800  0.64761600  0.70992900  1
  H  H10  1  0.49047100  0.63387500  0.38226000  1
  H  H11  1  0.56336200  0.14726800  0.49200000  1
  H  H12  1  0.45592600  0.87200600  0.53844100  1
  H  H13  1  0.95537100  0.19379800  0.83443100  1
  H  H14  1  0.74558200  0.08404900  0.72070700  1
  H  H15  1  0.82600500  0.01619100  0.74666400  1
  H  H16  1  0.87800900  0.14274300  0.67904100  1
  H  H17  1  0.78082200  0.24064500  0.79638100  1
  H  H18  1  0.91487500  0.31804500  0.83691100  1
  H  H19  1  0.82011100  0.24604700  0.93173100  1
  H  H20  1  0.94402600  0.72374800  0.38694700  1
  H  H21  1  0.10067900  0.84067200  0.55930900  1
  H  H22  1  0.14044700  0.82243200  0.43572300  1
  H  H23  1  0.05827400  0.70958900  0.51451100  1
  H  H24  1  0.92453500  0.83323700  0.57495000  1
  H  H25  1  0.86772500  0.69406100  0.55119500  1
  H  H26  1  0.82581000  0.77828700  0.47346000  1
  H  H27  1  0.07377700  0.98322300  0.56200700  1
  H  H28  1  0.22275300  0.18455600  0.44576100  1
  H  H29  1  0.24621400  0.07056000  0.47530800  1
  H  H30  1  0.23505300  0.14542700  0.57744600  1
  H  H31  1  0.04945700  0.17573800  0.47322800  1
  H  H32  1  0.05493400  0.13695300  0.60623400  1
  H  H33  1  0.94433300  0.05549500  0.52426900  1
  C  C1  1  0.84361500  0.01243100  0.13849800  1
  C  C2  1  0.75481200  0.01676300  0.09486500  1
  C  C3  1  0.75191500  0.04146800  0.98995000  1
  C  C4  1  0.84508300  0.07666600  0.93548100  1
  C  C5  1  0.92547100  0.05348500  0.97698100  1
  C  C6  1  0.92617400  0.02415200  0.07933500  1
  C  C7  1  0.00365400  0.05560400  0.91626000  1
  C  C8  1  0.08561700  0.03822100  0.95786700  1
  C  C9  1  0.09097100  0.01710600  0.06111400  1
  C  C10  1  0.01048100  0.00873700  0.12230400  1
  C  C11  1  0.16246000  0.04271700  0.89483100  1
  C  C12  1  0.24871300  0.03092000  0.93469100  1
  C  C13  1  0.25791100  0.01643700  0.04020100  1
  C  C14  1  0.17768600  0.00599100  0.10179100  1
  C  C15  1  0.00299500  0.88976600  0.37211700  1
  C  C16  1  0.04864800  0.99578900  0.39871400  1
  C  C17  1  0.05545700  0.05405300  0.30876700  1
  C  C18  1  0.01439600  0.98235500  0.23174700  1
  C  C19  1  0.67101400  0.00452200  0.16509200  1
  C  C20  1  0.46939500  0.81408800  0.35238700  1
  C  C21  1  0.35428100  0.02140300  0.09137700  1
  C  C22  1  0.51925000  0.19719900  0.30890900  1
  C  C23  1  0.50554800  0.82845600  0.72053200  1
  C  C24  1  0.64898200  0.01228300  0.93561200  1
  C  C25  1  0.54430900  0.20105900  0.67639800  1
  C  C26  1  0.32621800  0.03162000  0.86377900  1
  C  C27  1  0.54199000  0.26237500  0.39817000  1
  C  C28  1  0.52673100  0.35172300  0.39461100  1
  C  C29  1  0.53039900  0.40183100  0.48354600  1
  C  C30  1  0.54236800  0.35707800  0.57816200  1
  C  C31  1  0.55261100  0.26407500  0.58128200  1
  C  C32  1  0.55741700  0.22067000  0.49095400  1
  C  C33  1  0.50553600  0.67590200  0.63692200  1
  C  C34  1  0.48546700  0.76239100  0.63237400  1
  C  C35  1  0.46529300  0.80043300  0.53939900  1
  C  C36  1  0.47030400  0.75653900  0.44931600  1
  C  C37  1  0.48723200  0.66729600  0.45356800  1
  C  C38  1  0.50281300  0.62537500  0.54853400  1
  C  C39  1  0.86901200  0.15125300  0.84153600  1
  C  C40  1  0.82594300  0.09454200  0.74126700  1
  C  C41  1  0.84300100  0.24346800  0.85272800  1
  C  C42  1  0.97771200  0.79201200  0.43817400  1
  C  C43  1  0.07571400  0.79196500  0.49049600  1
  C  C44  1  0.89413000  0.77395300  0.51454500  1
  C  C45  1  0.08772200  0.04425600  0.50108600  1
  C  C46  1  0.20545500  0.11599300  0.49952100  1
  C  C47  1  0.03050300  0.10735400  0.52759000  1
  N  N1  1  0.98299900  0.88334900  0.27020500  1
  N  N2  1  0.51459700  0.49383300  0.47456900  1
  N  N3  1  0.51999900  0.53416200  0.55812700  1
  O  O1  1  0.58285200  0.00499100  0.13046100  1
  O  O2  1  0.49729700  0.79101900  0.26688000  1
  O  O3  1  0.68839900  0.00173100  0.26452600  1
  O  O4  1  0.45470100  0.89893600  0.35731200  1
  O  O5  1  0.34770500  0.96315300  0.17471200  1
  O  O6  1  0.44649600  0.09666600  0.06517500  1
  O  O7  1  0.57518400  0.14573400  0.29813600  1
  O  O8  1  0.42555400  0.16379400  0.26439300  1
  O  O9  1  0.43379900  0.85814700  0.74198500  1
  O  O10  1  0.60390100  0.88554900  0.74988000  1
  O  O11  1  0.63756000  0.07247100  0.86134200  1
  O  O12  1  0.57032600  0.91887200  0.95465600  1
  O  O13  1  0.32606500  0.06591400  0.76868400  1
  O  O14  1  0.51896400  0.10030800  0.66708500  1
  O  O15  1  0.39129500  0.99216900  0.89370800  1
  O  O16  1  0.55045100  0.24006100  0.76667800  1
