# generated using pymatgen
data_CoH10C19NO4
_symmetry_space_group_name_H-M   'P 1'
_cell_length_a   12.47013300
_cell_length_b   15.47921800
_cell_length_c   11.68653700
_cell_angle_alpha   90.00000000
_cell_angle_beta   95.33398100
_cell_angle_gamma   90.00000000
_symmetry_Int_Tables_number   1
_chemical_formula_structural   CoH10C19NO4
_chemical_formula_sum   'Co2 H20 C38 N2 O8'
_cell_volume   2246.05945843
_cell_formula_units_Z   2
loop_
 _symmetry_equiv_pos_site_id
 _symmetry_equiv_pos_as_xyz
  1  'x, y, z'
loop_
 _atom_site_type_symbol
 _atom_site_label
 _atom_site_symmetry_multiplicity
 _atom_site_fract_x
 _atom_site_fract_y
 _atom_site_fract_z
 _atom_site_occupancy
  Co  Co1  1  0.10741500  0.00000000  0.00521900  1
  Co  Co2  1  0.89258500  0.00000000  0.99478100  1
  H  H1  1  0.84844800  0.68966600  0.39916000  1
  H  H2  1  0.15155100  0.31033400  0.60084000  1
  H  H3  1  0.15155100  0.68966600  0.60084000  1
  H  H4  1  0.84844800  0.31033400  0.39916000  1
  H  H5  1  0.03489700  0.50000000  0.29667300  1
  H  H6  1  0.96510300  0.50000000  0.70332700  1
  H  H7  1  0.49044200  0.00000000  0.86877700  1
  H  H8  1  0.50955800  0.00000000  0.13122200  1
  H  H9  1  0.17427000  0.64127500  0.33588500  1
  H  H10  1  0.82573000  0.35872500  0.66411500  1
  H  H11  1  0.82573000  0.64127500  0.66411500  1
  H  H12  1  0.17427000  0.35872500  0.33588500  1
  H  H13  1  0.84544100  0.81744700  0.27686800  1
  H  H14  1  0.15455900  0.18255300  0.72313200  1
  H  H15  1  0.15455900  0.81744700  0.72313200  1
  H  H16  1  0.84544100  0.18255300  0.27686800  1
  H  H17  1  0.17318200  0.77000800  0.21551400  1
  H  H18  1  0.82681700  0.22999200  0.78448500  1
  H  H19  1  0.82681700  0.77000800  0.78448500  1
  H  H20  1  0.17318200  0.22999200  0.21551400  1
  C  C1  1  0.99421100  0.87614600  0.84178500  1
  C  C2  1  0.00578800  0.12385400  0.15821400  1
  C  C3  1  0.00578800  0.87614600  0.15821400  1
  C  C4  1  0.99421100  0.12385400  0.84178500  1
  C  C5  1  0.02214800  0.50000000  0.38691900  1
  C  C6  1  0.97785200  0.50000000  0.61308100  1
  C  C7  1  0.47034700  0.00000000  0.04445800  1
  C  C8  1  0.52965300  0.00000000  0.95554200  1
  C  C9  1  0.64576200  0.00000000  0.97345600  1
  C  C10  1  0.35423800  0.00000000  0.02654400  1
  C  C11  1  0.00937900  0.80320800  0.23838800  1
  C  C12  1  0.99062000  0.19679200  0.76161200  1
  C  C13  1  0.99062000  0.80320800  0.76161200  1
  C  C14  1  0.00937900  0.19679200  0.23838800  1
  C  C15  1  0.01067500  0.57754500  0.44290500  1
  C  C16  1  0.98932500  0.42245500  0.55709500  1
  C  C17  1  0.98932500  0.57754500  0.55709500  1
  C  C18  1  0.01067500  0.42245500  0.44290500  1
  C  C19  1  0.10255800  0.68075200  0.32442000  1
  C  C20  1  0.89744100  0.31924800  0.67558000  1
  C  C21  1  0.89744100  0.68075200  0.67558000  1
  C  C22  1  0.10255800  0.31924800  0.32442000  1
  C  C23  1  0.91871000  0.78008300  0.29069100  1
  C  C24  1  0.08129000  0.21991700  0.70930900  1
  C  C25  1  0.08129000  0.78008300  0.70930900  1
  C  C26  1  0.91871000  0.21991700  0.29069100  1
  C  C27  1  0.10182800  0.75385000  0.25686400  1
  C  C28  1  0.89817100  0.24615000  0.74313600  1
  C  C29  1  0.89817100  0.75385000  0.74313600  1
  C  C30  1  0.10182800  0.24615000  0.25686400  1
  C  C31  1  0.01217000  0.65796600  0.37703700  1
  C  C32  1  0.98782900  0.34203400  0.62296300  1
  C  C33  1  0.98782900  0.65796600  0.62296300  1
  C  C34  1  0.01217000  0.34203400  0.37703700  1
  C  C35  1  0.92048600  0.70817600  0.36050400  1
  C  C36  1  0.07951300  0.29182400  0.63949600  1
  C  C37  1  0.07951300  0.70817600  0.63949600  1
  C  C38  1  0.92048600  0.29182400  0.36050400  1
  N  N1  1  0.26091000  0.00000000  0.01472500  1
  N  N2  1  0.73908900  0.00000000  0.98527500  1
  O  O1  1  0.08745600  0.90753700  0.88383200  1
  O  O2  1  0.91254400  0.09246300  0.11616800  1
  O  O3  1  0.91254400  0.90753700  0.11616800  1
  O  O4  1  0.08745600  0.09246300  0.88383200  1
  O  O5  1  0.09571700  0.09381200  0.12360200  1
  O  O6  1  0.90428300  0.90618800  0.87639800  1
  O  O7  1  0.90428300  0.09381200  0.87639800  1
  O  O8  1  0.09571700  0.90618800  0.12360200  1
