# generated using pymatgen
data_ZnH7C19(NO3)2
_symmetry_space_group_name_H-M   'P 1'
_cell_length_a   8.52836800
_cell_length_b   8.86254500
_cell_length_c   17.57944500
_cell_angle_alpha   90.35340100
_cell_angle_beta   92.83634300
_cell_angle_gamma   82.99890100
_symmetry_Int_Tables_number   1
_chemical_formula_structural   ZnH7C19(NO3)2
_chemical_formula_sum   'Zn2 H14 C38 N4 O12'
_cell_volume   1317.18528303
_cell_formula_units_Z   2
loop_
 _symmetry_equiv_pos_site_id
 _symmetry_equiv_pos_as_xyz
  1  'x, y, z'
loop_
 _atom_site_type_symbol
 _atom_site_label
 _atom_site_symmetry_multiplicity
 _atom_site_fract_x
 _atom_site_fract_y
 _atom_site_fract_z
 _atom_site_occupancy
  Zn  Zn1  1  0.50967200  0.49044600  0.08496700  1
  Zn  Zn2  1  0.49032800  0.50955400  0.91503300  1
  H  H1  1  0.00060300  0.60697300  0.02617500  1
  H  H2  1  0.99939700  0.39302700  0.97382500  1
  H  H3  1  0.67623600  0.00539700  0.99455200  1
  H  H4  1  0.32376300  0.99460300  0.00544800  1
  H  H5  1  0.62943200  0.83906600  0.69353200  1
  H  H6  1  0.37056800  0.16093400  0.30646900  1
  H  H7  1  0.64650200  0.83693100  0.56048100  1
  H  H8  1  0.35349700  0.16306900  0.43952000  1
  H  H9  1  0.61092600  0.84938600  0.44650800  1
  H  H10  1  0.38907400  0.15061400  0.55349200  1
  H  H11  1  0.43942500  0.26896500  0.19216600  1
  H  H12  1  0.56057400  0.73103600  0.80783400  1
  H  H13  1  0.59626600  0.69846000  0.19338000  1
  H  H14  1  0.40373400  0.30154000  0.80662000  1
  C  C1  1  0.10526000  0.80650800  0.00871000  1
  C  C2  1  0.89474000  0.19349200  0.99129100  1
  C  C3  1  0.97909600  0.72702800  0.01652800  1
  C  C4  1  0.02090300  0.27297200  0.98347300  1
  C  C5  1  0.82657200  0.79646700  0.00850600  1
  C  C6  1  0.17342700  0.20353400  0.99149500  1
  C  C7  1  0.79697400  0.95171800  0.00025900  1
  C  C8  1  0.20302600  0.04828200  0.99974200  1
  C  C9  1  0.92238800  0.03652300  0.99865600  1
  C  C10  1  0.07761100  0.96347700  0.00134500  1
  C  C11  1  0.26139700  0.71575800  0.00500700  1
  C  C12  1  0.73860300  0.28424200  0.99499400  1
  C  C13  1  0.30022400  0.29940200  0.99516500  1
  C  C14  1  0.69977600  0.70059800  0.00483500  1
  C  C15  1  0.55863800  0.60652700  0.22400500  1
  C  C16  1  0.44136200  0.39347300  0.77599600  1
  C  C17  1  0.47320000  0.36672600  0.22286700  1
  C  C18  1  0.52680000  0.63327400  0.77713400  1
  C  C19  1  0.50760500  0.49448200  0.34197700  1
  C  C20  1  0.49239500  0.50551800  0.65802400  1
  C  C21  1  0.55153300  0.61497900  0.30253600  1
  C  C22  1  0.44846700  0.38502100  0.69746400  1
  C  C23  1  0.58790300  0.74253900  0.34202100  1
  C  C24  1  0.41209600  0.25746100  0.65797900  1
  C  C25  1  0.46579900  0.37141200  0.30117500  1
  C  C26  1  0.53420100  0.62858800  0.69882500  1
  C  C27  1  0.54608700  0.62399000  0.54084800  1
  C  C28  1  0.45391300  0.37601100  0.45915200  1
  C  C29  1  0.45238700  0.37799700  0.53879700  1
  C  C30  1  0.54761300  0.62200300  0.46120300  1
  C  C31  1  0.49656000  0.50265300  0.57895200  1
  C  C32  1  0.50344000  0.49734700  0.42104800  1
  C  C33  1  0.59650100  0.74326900  0.58394500  1
  C  C34  1  0.40349900  0.25673200  0.41605500  1
  C  C35  1  0.58876200  0.74556900  0.66171100  1
  C  C36  1  0.41123800  0.25443100  0.33828900  1
  C  C37  1  0.58753600  0.74459500  0.42026300  1
  C  C38  1  0.41246400  0.25540500  0.57973700  1
  N  N1  1  0.52011100  0.48362200  0.18502600  1
  N  N2  1  0.47988900  0.51637800  0.81497500  1
  N  N3  1  0.62130700  0.87561400  0.30351800  1
  N  N4  1  0.37869300  0.12438600  0.69648300  1
  O  O1  1  0.30860800  0.66872900  0.93764800  1
  O  O2  1  0.69139200  0.33127100  0.06235300  1
  O  O3  1  0.32852300  0.65765000  0.06892100  1
  O  O4  1  0.67147700  0.34235000  0.93107900  1
  O  O5  1  0.35171700  0.34258400  0.06238500  1
  O  O6  1  0.64828300  0.65741600  0.93761600  1
  O  O7  1  0.34264800  0.35304000  0.93122100  1
  O  O8  1  0.65735200  0.64696000  0.06877900  1
  O  O9  1  0.52591500  0.93241000  0.24812900  1
  O  O10  1  0.71951800  0.96041200  0.33587800  1
  O  O11  1  0.28048100  0.03958800  0.66412300  1
  O  O12  1  0.47408400  0.06759000  0.75187200  1
