# generated using pymatgen
data_CuH16C28N3O4F
_symmetry_space_group_name_H-M   'P 1'
_cell_length_a   15.88908800
_cell_length_b   15.54151900
_cell_length_c   17.00860000
_cell_angle_alpha   83.67078800
_cell_angle_beta   91.14529700
_cell_angle_gamma   111.31414100
_symmetry_Int_Tables_number   1
_chemical_formula_structural   CuH16C28N3O4F
_chemical_formula_sum   'Cu2 H32 C56 N6 O8 F2'
_cell_volume   3888.06797150
_cell_formula_units_Z   2
loop_
 _symmetry_equiv_pos_site_id
 _symmetry_equiv_pos_as_xyz
  1  'x, y, z'
loop_
 _atom_site_type_symbol
 _atom_site_label
 _atom_site_symmetry_multiplicity
 _atom_site_fract_x
 _atom_site_fract_y
 _atom_site_fract_z
 _atom_site_occupancy
  Cu  Cu1  1  0.50497100  0.58827500  0.49934100  1
  Cu  Cu2  1  0.49487300  0.41222200  0.50591500  1
  H  H1  1  0.22871900  0.54947000  0.49561000  1
  H  H2  1  0.77021500  0.44983800  0.49924000  1
  H  H3  1  0.20729800  0.26941000  0.52121200  1
  H  H4  1  0.79285700  0.72976400  0.49085300  1
  H  H5  1  0.95381300  0.78057200  0.48545800  1
  H  H6  1  0.04676000  0.21791300  0.52802900  1
  H  H7  1  0.16556000  0.64124200  0.47206300  1
  H  H8  1  0.83253600  0.35730000  0.52092400  1
  H  H9  1  0.51302300  0.62555900  0.74513800  1
  H  H10  1  0.48896200  0.37522900  0.25985800  1
  H  H11  1  0.51187300  0.61742300  0.88661500  1
  H  H12  1  0.48866500  0.38332700  0.11887900  1
  H  H13  1  0.51291600  0.66899700  0.10383200  1
  H  H14  1  0.48712100  0.33192700  0.90231500  1
  H  H15  1  0.51118700  0.65922700  0.24748200  1
  H  H16  1  0.48889800  0.34056000  0.75915200  1
  H  H17  1  0.40831600  0.68703000  0.57759500  1
  H  H18  1  0.57893300  0.30784600  0.41604200  1
  H  H19  1  0.41040600  0.84298500  0.57233600  1
  H  H20  1  0.57537600  0.15148400  0.42310700  1
  H  H21  1  0.38285700  0.07517400  0.61635100  1
  H  H22  1  0.62046500  0.92950000  0.39460000  1
  H  H23  1  0.38982300  0.23611100  0.60439800  1
  H  H24  1  0.61058500  0.76758100  0.40005100  1
  H  H25  1  0.17632800  0.77377500  0.57557600  1
  H  H26  1  0.27480100  0.93712000  0.54946700  1
  H  H27  1  0.15607200  0.95425300  0.32430700  1
  H  H28  1  0.05717300  0.79007100  0.35004000  1
  H  H29  1  0.85740000  0.23237200  0.65051400  1
  H  H30  1  0.76055600  0.06705000  0.67102900  1
  H  H31  1  0.81054100  0.03817100  0.43207000  1
  H  H32  1  0.90844800  0.20385400  0.41181800  1
  C  C1  1  0.49946000  0.51087800  0.35055000  1
  C  C2  1  0.50037000  0.48937500  0.65444300  1
  C  C3  1  0.67350200  0.55484200  0.49898400  1
  C  C4  1  0.32647000  0.44543300  0.50576800  1
  C  C5  1  0.77237800  0.58549100  0.49616800  1
  C  C6  1  0.22728800  0.41413200  0.50723400  1
  C  C7  1  0.91634300  0.70695600  0.48783900  1
  C  C8  1  0.08356600  0.29196300  0.51949800  1
  C  C9  1  0.82394900  0.67833100  0.49205400  1
  C  C10  1  0.17597700  0.32080700  0.51607500  1
  C  C11  1  0.81389400  0.52105800  0.49829100  1
  C  C12  1  0.18496100  0.47806000  0.50091800  1
  C  C13  1  0.90806500  0.54829500  0.49637700  1
  C  C14  1  0.09076400  0.45033200  0.50280400  1
  C  C15  1  0.95879500  0.64300400  0.48786100  1
  C  C16  1  0.04042500  0.35575000  0.51283600  1
  C  C17  1  0.95227400  0.48355400  0.50200600  1
  C  C18  1  0.04635700  0.51479700  0.49616300  1
  C  C19  1  0.09404500  0.61029600  0.48306000  1
  C  C20  1  0.90466700  0.38811800  0.51446900  1
  C  C21  1  0.05175900  0.67318600  0.48002400  1
  C  C22  1  0.94737000  0.32555400  0.51849300  1
  C  C23  1  0.49977800  0.51645700  0.26410900  1
  C  C24  1  0.50013700  0.48363500  0.74139300  1
  C  C25  1  0.49394300  0.44010000  0.22652100  1
  C  C26  1  0.50650700  0.56026900  0.77903100  1
  C  C27  1  0.49402900  0.44535200  0.14517900  1
  C  C28  1  0.50588400  0.55516700  0.86058200  1
  C  C29  1  0.50122400  0.52806600  0.10043400  1
  C  C30  1  0.49856300  0.47261900  0.90571900  1
  C  C31  1  0.50714700  0.60414800  0.13819600  1
  C  C32  1  0.49234900  0.39644300  0.86804200  1
  C  C33  1  0.50622200  0.59842400  0.21950600  1
  C  C34  1  0.49337400  0.40163400  0.78655400  1
  C  C35  1  0.53674600  0.25650000  0.46107200  1
  C  C36  1  0.45698800  0.74118600  0.53898100  1
  C  C37  1  0.53423600  0.16658100  0.46554600  1
  C  C38  1  0.45898700  0.83082300  0.53592700  1
  C  C39  1  0.47956300  0.09995300  0.52230600  1
  C  C40  1  0.52055100  0.90061300  0.48588800  1
  C  C41  1  0.42775200  0.12568300  0.57251700  1
  C  C42  1  0.57483600  0.87701800  0.43678700  1
  C  C43  1  0.43159700  0.21632800  0.56590600  1
  C  C44  1  0.56970500  0.78604900  0.44032000  1
  C  C45  1  0.10904000  0.77184300  0.46507600  1
  C  C46  1  0.17160100  0.81305900  0.52014300  1
  C  C47  1  0.22712600  0.90509000  0.50549900  1
  C  C48  1  0.22164000  0.95607600  0.43535200  1
  C  C49  1  0.16053800  0.91468100  0.37952200  1
  C  C50  1  0.10474000  0.82258100  0.39406500  1
  C  C51  1  0.89069300  0.22713300  0.53058200  1
  C  C52  1  0.84780300  0.18939800  0.60276700  1
  C  C53  1  0.79342700  0.09673400  0.61421000  1
  C  C54  1  0.78093700  0.04195700  0.55335500  1
  C  C55  1  0.82157700  0.08049400  0.48035700  1
  C  C56  1  0.87642300  0.17314400  0.46890000  1
  N  N1  1  0.50266000  0.53682200  0.01672300  1
  N  N2  1  0.49784200  0.46413700  0.98943300  1
  N  N3  1  0.48662800  0.28017600  0.51144700  1
  N  N4  1  0.51359800  0.72040300  0.49273500  1
  N  N5  1  0.47397400  0.00644200  0.52848200  1
  N  N6  1  0.52526000  0.99383700  0.48032200  1
  O  O1  1  0.50071700  0.58300500  0.38439500  1
  O  O2  1  0.49868400  0.41702100  0.62053100  1
  O  O3  1  0.49851900  0.43387800  0.39086600  1
  O  O4  1  0.50207900  0.56683400  0.61404700  1
  O  O5  1  0.63566700  0.61746000  0.49377200  1
  O  O6  1  0.36433500  0.38298800  0.51081800  1
  O  O7  1  0.62640800  0.46550700  0.50626300  1
  O  O8  1  0.37354200  0.53466300  0.49924600  1
  F  F1  1  0.27572100  0.04684000  0.42162900  1
  F  F2  1  0.72804600  0.95063200  0.56524600  1
