# generated using pymatgen
data_ZnH2C11N(ClO)4
_symmetry_space_group_name_H-M   'P 1'
_cell_length_a   7.67941300
_cell_length_b   8.90609400
_cell_length_c   15.03861700
_cell_angle_alpha   90.00181200
_cell_angle_beta   84.02552400
_cell_angle_gamma   91.43174100
_symmetry_Int_Tables_number   1
_chemical_formula_structural   ZnH2C11N(ClO)4
_chemical_formula_sum   'Zn2 H4 C22 N2 Cl8 O8'
_cell_volume   1022.63530227
_cell_formula_units_Z   2
loop_
 _symmetry_equiv_pos_site_id
 _symmetry_equiv_pos_as_xyz
  1  'x, y, z'
loop_
 _atom_site_type_symbol
 _atom_site_label
 _atom_site_symmetry_multiplicity
 _atom_site_fract_x
 _atom_site_fract_y
 _atom_site_fract_z
 _atom_site_occupancy
  Zn  Zn1  1  0.30198500  0.51660300  0.51047600  1
  Zn  Zn2  1  0.69801600  0.48339700  0.48952400  1
  H  H1  1  0.91653900  0.61462700  0.89501400  1
  H  H2  1  0.08346200  0.38537300  0.10498700  1
  H  H3  1  0.03290100  0.38775000  0.43523100  1
  H  H4  1  0.96710000  0.61225000  0.56476900  1
  C  C1  1  0.54402300  0.79201800  0.49790400  1
  C  C2  1  0.45597800  0.20798200  0.50209700  1
  C  C3  1  0.49977400  0.49947300  0.67374000  1
  C  C4  1  0.50022700  0.50052700  0.32626000  1
  C  C5  1  0.34909300  0.46421300  0.19158800  1
  C  C6  1  0.65090800  0.53578700  0.80841200  1
  C  C7  1  0.50042100  0.50081700  0.22930200  1
  C  C8  1  0.49958000  0.49918300  0.77069800  1
  C  C9  1  0.65201100  0.53748700  0.17550800  1
  C  C10  1  0.34799000  0.46251300  0.82449200  1
  C  C11  1  0.65161000  0.53976300  0.08358500  1
  C  C12  1  0.34839100  0.46023700  0.91641500  1
  C  C13  1  0.50043600  0.50032600  0.04587900  1
  C  C14  1  0.49956500  0.49967400  0.95412200  1
  C  C15  1  0.34989300  0.46156500  0.09994300  1
  C  C16  1  0.65010800  0.53843500  0.90005700  1
  C  C17  1  0.80104200  0.58177300  0.02912300  1
  C  C18  1  0.19895900  0.41822700  0.97087700  1
  C  C19  1  0.79993200  0.58084900  0.93754300  1
  C  C20  1  0.20006800  0.41915100  0.06245700  1
  C  C21  1  0.56870600  0.95545700  0.49652000  1
  C  C22  1  0.43129500  0.04454300  0.50348100  1
  N  N1  1  0.95774200  0.45965900  0.47569100  1
  N  N2  1  0.04225900  0.54034100  0.52431000  1
  Cl  Cl1  1  0.15731300  0.41617100  0.26009600  1
  Cl  Cl2  1  0.84268800  0.58382900  0.73990400  1
  Cl  Cl3  1  0.84244000  0.58457900  0.22507300  1
  Cl  Cl4  1  0.15756100  0.41542100  0.77492700  1
  Cl  Cl5  1  0.99207800  0.63949500  0.07501500  1
  Cl  Cl6  1  0.00792300  0.36050500  0.92498600  1
  Cl  Cl7  1  0.78213700  0.03306600  0.48542200  1
  Cl  Cl8  1  0.21786400  0.96693400  0.51457800  1
  O  O1  1  0.38388400  0.73482000  0.50639100  1
  O  O2  1  0.61611700  0.26518000  0.49360900  1
  O  O3  1  0.68438400  0.71022500  0.49039800  1
  O  O4  1  0.31561700  0.28977500  0.50960300  1
  O  O5  1  0.34934500  0.51056300  0.64044700  1
  O  O6  1  0.65065500  0.48943700  0.35955300  1
  O  O7  1  0.65038000  0.48871600  0.62453700  1
  O  O8  1  0.34962000  0.51128400  0.37546300  1
