# generated using pymatgen
data_ZnH19C23S3NO4
_symmetry_space_group_name_H-M   'P 1'
_cell_length_a   14.07627700
_cell_length_b   15.16868400
_cell_length_c   17.49841800
_cell_angle_alpha   90.00303000
_cell_angle_beta   86.25826100
_cell_angle_gamma   90.00488700
_symmetry_Int_Tables_number   1
_chemical_formula_structural   ZnH19C23S3NO4
_chemical_formula_sum   'Zn2 H38 C46 S6 N2 O8'
_cell_volume   3728.27327779
_cell_formula_units_Z   2
loop_
 _symmetry_equiv_pos_site_id
 _symmetry_equiv_pos_as_xyz
  1  'x, y, z'
loop_
 _atom_site_type_symbol
 _atom_site_label
 _atom_site_symmetry_multiplicity
 _atom_site_fract_x
 _atom_site_fract_y
 _atom_site_fract_z
 _atom_site_occupancy
  Zn  Zn1  1  0.40297700  0.50601500  0.49258200  1
  Zn  Zn2  1  0.61962100  0.50155200  0.48872700  1
  H  H1  1  0.64849300  0.52599100  0.73351000  1
  H  H2  1  0.37304600  0.48937000  0.24784700  1
  H  H3  1  0.67627700  0.51154200  0.24502900  1
  H  H4  1  0.34756200  0.48616800  0.73595600  1
  H  H5  1  0.61645100  0.47929300  0.98808800  1
  H  H6  1  0.40501800  0.52802200  0.99259900  1
  H  H7  1  0.33747800  0.49091400  0.87467700  1
  H  H8  1  0.68550500  0.50799000  0.10634800  1
  H  H9  1  0.38226300  0.48422400  0.11034700  1
  H  H10  1  0.63852500  0.53107900  0.87139500  1
  H  H11  1  0.43586200  0.94312300  0.38836300  1
  H  H12  1  0.48699700  0.06320100  0.61217700  1
  H  H13  1  0.59349000  0.94511500  0.58914900  1
  H  H14  1  0.53297000  0.06654600  0.36787900  1
  H  H15  1  0.92854900  0.57947700  0.59181400  1
  H  H16  1  0.09098300  0.38156400  0.43246700  1
  H  H17  1  0.75862600  0.57884900  0.58300300  1
  H  H18  1  0.26148100  0.39235900  0.43234800  1
  H  H19  1  0.95612700  0.42191700  0.38812100  1
  H  H20  1  0.06907500  0.62821400  0.55180800  1
  H  H21  1  0.73936900  0.23148600  0.40399500  1
  H  H22  1  0.78376100  0.29744900  0.47949800  1
  H  H23  1  0.86455700  0.25999500  0.40102500  1
  H  H24  1  0.25477700  0.63292500  0.72154900  1
  H  H25  1  0.20311300  0.54247400  0.67175800  1
  H  H26  1  0.13562300  0.64328700  0.68927100  1
  H  H27  1  0.25987800  0.71852700  0.39106100  1
  H  H28  1  0.26841000  0.83341700  0.36201100  1
  H  H29  1  0.30282700  0.79980000  0.45553600  1
  H  H30  1  0.62357800  0.30395500  0.69369600  1
  H  H31  1  0.64554800  0.23636200  0.60974500  1
  H  H32  1  0.61698100  0.18473400  0.70180600  1
  H  H33  1  0.52390400  0.73238500  0.73754900  1
  H  H34  1  0.45437200  0.71924600  0.65525500  1
  H  H35  1  0.48072000  0.82882900  0.69039400  1
  H  H36  1  0.38016900  0.30906900  0.29947900  1
  H  H37  1  0.36447300  0.22794600  0.37442500  1
  H  H38  1  0.39222300  0.19257200  0.27669500  1
  C  C1  1  0.51691000  0.67623100  0.48887500  1
  C  C2  1  0.50584400  0.33159600  0.49206300  1
  C  C3  1  0.50409800  0.50516300  0.64053700  1
  C  C4  1  0.51840700  0.50240600  0.34076300  1
  C  C5  1  0.49877300  0.50582700  0.72452100  1
  C  C6  1  0.52380900  0.50130500  0.25674800  1
  C  C7  1  0.57984800  0.51710400  0.76390600  1
  C  C8  1  0.44214200  0.49444500  0.21743900  1
  C  C9  1  0.57404700  0.51908100  0.84295500  1
  C  C10  1  0.44761700  0.49248700  0.13842000  1
  C  C11  1  0.48682200  0.50906900  0.88363300  1
  C  C12  1  0.53520600  0.49820300  0.09753100  1
  C  C13  1  0.40611800  0.49845800  0.84392400  1
  C  C14  1  0.61654500  0.50411100  0.13717200  1
  C  C15  1  0.41193800  0.49618700  0.76510000  1
  C  C16  1  0.61111600  0.50602900  0.21603700  1
  C  C17  1  0.47531900  0.51226900  0.96793300  1
  C  C18  1  0.54638800  0.49544000  0.01312600  1
  C  C19  1  0.47209000  0.90927500  0.43233600  1
  C  C20  1  0.49709200  0.09822000  0.55849700  1
  C  C21  1  0.47341600  0.81840000  0.43201700  1
  C  C22  1  0.49438900  0.18912500  0.55915200  1
  C  C23  1  0.51792900  0.77282600  0.48817100  1
  C  C24  1  0.50464300  0.23546500  0.49135500  1
  C  C25  1  0.56085600  0.81933900  0.54463000  1
  C  C26  1  0.51726600  0.19076400  0.42286800  1
  C  C27  1  0.55862200  0.91028500  0.54496300  1
  C  C28  1  0.52046700  0.09995300  0.42212800  1
  C  C29  1  0.51385800  0.95594800  0.48910800  1
  C  C30  1  0.51060000  0.05291100  0.48995800  1
  C  C31  1  0.90023500  0.54501600  0.54441000  1
  C  C32  1  0.12076200  0.43871800  0.45870400  1
  C  C33  1  0.80273600  0.54345000  0.54048400  1
  C  C34  1  0.21848600  0.44368800  0.45988800  1
  C  C35  1  0.81737000  0.45164700  0.43343500  1
  C  C36  1  0.20612100  0.57365600  0.53108300  1
  C  C37  1  0.91525600  0.45573200  0.43341800  1
  C  C38  1  0.10862000  0.57331800  0.52681800  1
  C  C39  1  0.95864800  0.50207900  0.48961200  1
  C  C40  1  0.06383800  0.50478800  0.49148600  1
  C  C41  1  0.79133300  0.28333600  0.41721000  1
  C  C42  1  0.20752000  0.61531200  0.67561900  1
  C  C43  1  0.30165600  0.78022000  0.39457600  1
  C  C44  1  0.60294000  0.24224800  0.66508100  1
  C  C45  1  0.50827200  0.76088900  0.68137100  1
  C  C46  1  0.40485000  0.24422400  0.31972300  1
  S  S1  1  0.76684000  0.38261100  0.36398300  1
  S  S2  1  0.25700500  0.65953500  0.58523200  1
  S  S3  1  0.42239500  0.76122200  0.35511500  1
  S  S4  1  0.47717100  0.24664800  0.64813100  1
  S  S5  1  0.61703000  0.76330600  0.61962500  1
  S  S6  1  0.53108800  0.25032500  0.33470500  1
  N  N1  1  0.76202100  0.49735800  0.48557800  1
  N  N2  1  0.26053500  0.51021300  0.49588700  1
  O  O1  1  0.43416700  0.63638700  0.48994000  1
  O  O2  1  0.58882600  0.37109000  0.49023800  1
  O  O3  1  0.59810700  0.63363900  0.48873400  1
  O  O4  1  0.42446300  0.37393500  0.49319600  1
  O  O5  1  0.42410900  0.50646500  0.60599200  1
  O  O6  1  0.59838600  0.50219200  0.37533000  1
  O  O7  1  0.58821000  0.50347400  0.60339700  1
  O  O8  1  0.43423800  0.50327000  0.37790600  1
