# generated using pymatgen
data_ZnH3C13(NO2)3
_symmetry_space_group_name_H-M   'P 1'
_cell_length_a   12.80663300
_cell_length_b   8.55334600
_cell_length_c   15.01547600
_cell_angle_alpha   90.00000000
_cell_angle_beta   90.91698300
_cell_angle_gamma   90.00000000
_symmetry_Int_Tables_number   1
_chemical_formula_structural   ZnH3C13(NO2)3
_chemical_formula_sum   'Zn2 H6 C26 N6 O12'
_cell_volume   1644.57803790
_cell_formula_units_Z   2
loop_
 _symmetry_equiv_pos_site_id
 _symmetry_equiv_pos_as_xyz
  1  'x, y, z'
loop_
 _atom_site_type_symbol
 _atom_site_label
 _atom_site_symmetry_multiplicity
 _atom_site_fract_x
 _atom_site_fract_y
 _atom_site_fract_z
 _atom_site_occupancy
  Zn  Zn1  1  0.88463000  0.49871600  0.50745400  1
  Zn  Zn2  1  0.11647600  0.49940100  0.49297300  1
  H  H1  1  0.04380100  0.99902100  0.56213100  1
  H  H2  1  0.95922000  0.99611100  0.43776600  1
  H  H3  1  0.97898100  0.30418800  0.87880300  1
  H  H4  1  0.04287800  0.71435500  0.11407100  1
  H  H5  1  0.97963400  0.30282500  0.11543400  1
  H  H6  1  0.00639700  0.69115400  0.87872800  1
  C  C1  1  0.02035800  0.13919100  0.67615900  1
  C  C2  1  0.98537300  0.85859500  0.32325100  1
  C  C3  1  0.98161600  0.13819600  0.32436700  1
  C  C4  1  0.01462700  0.86022600  0.67573100  1
  C  C5  1  0.01301000  0.14052300  0.76772800  1
  C  C6  1  0.00474400  0.86061100  0.23249900  1
  C  C7  1  0.98500200  0.14129500  0.23250400  1
  C  C8  1  0.99630100  0.86037900  0.76633700  1
  C  C9  1  0.00271800  0.00027600  0.81337200  1
  C  C10  1  0.99668700  0.00148800  0.18623000  1
  C  C11  1  0.65759800  0.49872300  0.51058600  1
  C  C12  1  0.34350700  0.49953500  0.48981400  1
  C  C13  1  0.03002100  0.99932700  0.63245700  1
  C  C14  1  0.97193200  0.99750800  0.36728800  1
  C  C15  1  0.99831100  0.00159300  0.08873900  1
  C  C16  1  0.00019300  0.00094300  0.91082200  1
  C  C17  1  0.54750100  0.49900900  0.50357100  1
  C  C18  1  0.45360600  0.49927100  0.49681400  1
  C  C19  1  0.01127300  0.71810700  0.62143800  1
  C  C20  1  0.98857700  0.27946600  0.37937300  1
  C  C21  1  0.98934200  0.71690900  0.37819700  1
  C  C22  1  0.01302400  0.28110400  0.62194900  1
  C  C23  1  0.01712200  0.28970500  0.81545100  1
  C  C24  1  0.03685300  0.71740100  0.18581500  1
  C  C25  1  0.96441200  0.28912400  0.18555700  1
  C  C26  1  0.97596800  0.71253400  0.81213700  1
  N  N1  1  0.74790200  0.49854600  0.51455900  1
  N  N2  1  0.25320200  0.49968300  0.48585600  1
  N  N3  1  0.92854800  0.91638700  0.95425200  1
  N  N4  1  0.07025500  0.08553400  0.04531500  1
  N  N5  1  0.92764600  0.91672500  0.04229300  1
  N  N6  1  0.07101300  0.08540100  0.95730000  1
  O  O1  1  0.09791400  0.66922100  0.58457800  1
  O  O2  1  0.90272600  0.32928000  0.41585800  1
  O  O3  1  0.90288700  0.66765400  0.41525600  1
  O  O4  1  0.09868900  0.33094300  0.58518300  1
  O  O5  1  0.91907300  0.66224300  0.59994700  1
  O  O6  1  0.08166500  0.33510900  0.40066600  1
  O  O7  1  0.08171800  0.66187700  0.39994600  1
  O  O8  1  0.91973400  0.33560900  0.60035800  1
  O  O9  1  0.06627000  0.39839800  0.78455700  1
  O  O10  1  0.06672000  0.60367400  0.22779600  1
  O  O11  1  0.91985800  0.39480500  0.22391400  1
  O  O12  1  0.92277900  0.61261600  0.77551700  1
