# generated using pymatgen
data_ZnH24C31(NO2)3
_symmetry_space_group_name_H-M   'P 1'
_cell_length_a   13.09504900
_cell_length_b   17.69849600
_cell_length_c   8.56653500
_cell_angle_alpha   90.00000000
_cell_angle_beta   93.37550400
_cell_angle_gamma   90.00000000
_symmetry_Int_Tables_number   1
_chemical_formula_structural   ZnH24C31(NO2)3
_chemical_formula_sum   'Zn2 H48 C62 N6 O12'
_cell_volume   1981.95855330
_cell_formula_units_Z   2
loop_
 _symmetry_equiv_pos_site_id
 _symmetry_equiv_pos_as_xyz
  1  'x, y, z'
loop_
 _atom_site_type_symbol
 _atom_site_label
 _atom_site_symmetry_multiplicity
 _atom_site_fract_x
 _atom_site_fract_y
 _atom_site_fract_z
 _atom_site_occupancy
  Zn  Zn1  1  0.50433200  0.08589100  0.50234500  1
  Zn  Zn2  1  0.49565200  0.91413100  0.49764900  1
  H  H1  1  0.84592900  0.01216400  0.78247000  1
  H  H2  1  0.15405800  0.98785700  0.21752800  1
  H  H3  1  0.00328300  0.03890300  0.15992200  1
  H  H4  1  0.99670000  0.96111900  0.84007200  1
  H  H5  1  0.84163300  0.01718800  0.28192600  1
  H  H6  1  0.15835300  0.98283400  0.71806900  1
  H  H7  1  0.57086500  0.97087500  0.00340500  1
  H  H8  1  0.42912000  0.02914700  0.99659100  1
  H  H9  1  0.25251700  0.31426400  0.53157100  1
  H  H10  1  0.74746700  0.68575900  0.46842500  1
  H  H11  1  0.75531200  0.31914500  0.47337000  1
  H  H12  1  0.24467300  0.68087700  0.52661800  1
  H  H13  1  0.15956700  0.42752000  0.53897000  1
  H  H14  1  0.84041700  0.57250400  0.46102300  1
  H  H15  1  0.84334300  0.43447200  0.46306500  1
  H  H16  1  0.15664200  0.56555100  0.53692500  1
  H  H17  1  0.34326400  0.25931000  0.77617300  1
  H  H18  1  0.33127200  0.16195700  0.81865100  1
  H  H19  1  0.16331000  0.27396700  0.73096300  1
  H  H20  1  0.17617400  0.20525500  0.88124000  1
  H  H21  1  0.11538700  0.24512100  0.49443400  1
  H  H22  1  0.08807500  0.15110900  0.43687000  1
  H  H23  1  0.26091600  0.20642800  0.35330400  1
  H  H24  1  0.24943300  0.11199800  0.42903000  1
  H  H25  1  0.73906500  0.79359000  0.64669900  1
  H  H26  1  0.75055300  0.88802200  0.57098400  1
  H  H27  1  0.88459900  0.75490100  0.50557400  1
  H  H28  1  0.91191000  0.84891200  0.56314600  1
  H  H29  1  0.83668200  0.72605900  0.26903900  1
  H  H30  1  0.82382000  0.79477400  0.11877000  1
  H  H31  1  0.65672700  0.74071500  0.22382900  1
  H  H32  1  0.66871800  0.83806700  0.18135000  1
  H  H33  1  0.67328300  0.25778700  0.23771200  1
  H  H34  1  0.68780600  0.16040000  0.20067100  1
  H  H35  1  0.85230500  0.27420000  0.28708700  1
  H  H36  1  0.84377300  0.20129900  0.14528900  1
  H  H37  1  0.89474600  0.25254900  0.52811800  1
  H  H38  1  0.92249100  0.16059000  0.59895400  1
  H  H39  1  0.74584100  0.21912900  0.66259100  1
  H  H40  1  0.76150400  0.12190700  0.60971700  1
  H  H41  1  0.25414300  0.78089400  0.33740000  1
  H  H42  1  0.23847700  0.87811600  0.39027400  1
  H  H43  1  0.10523700  0.74747400  0.47187000  1
  H  H44  1  0.07749200  0.83943300  0.40103700  1
  H  H45  1  0.14767800  0.72582100  0.71290100  1
  H  H46  1  0.15620900  0.79872000  0.85470000  1
  H  H47  1  0.32670100  0.74223500  0.76227600  1
  H  H48  1  0.31217400  0.83962000  0.79932300  1
  C  C1  1  0.69889800  0.99735400  0.15594000  1
  C  C2  1  0.30108600  0.00266700  0.84405400  1
  C  C3  1  0.80284500  0.00987100  0.16802600  1
  C  C4  1  0.19713900  0.99015100  0.83196900  1
  C  C5  1  0.85789000  0.00897600  0.03488200  1
  C  C6  1  0.14209400  0.99104600  0.96511200  1
  C  C7  1  0.80624000  0.00525300  0.88845800  1
  C  C8  1  0.19374400  0.99476900  0.11153700  1
  C  C9  1  0.70178400  0.99354300  0.87803000  1
  C  C10  1  0.29820100  0.00647900  0.12196400  1
  C  C11  1  0.65089700  0.98417300  0.01199500  1
  C  C12  1  0.34908700  0.01584900  0.98799900  1
  C  C13  1  0.96997400  0.01395300  0.05347400  1
  C  C14  1  0.03001000  0.98606900  0.94652000  1
  C  C15  1  0.63629700  0.99931800  0.29125000  1
  C  C16  1  0.36368700  0.00070400  0.70874400  1
  C  C17  1  0.35972200  0.00395900  0.27003400  1
  C  C18  1  0.64026200  0.99606300  0.72996100  1
  C  C19  1  0.41729600  0.22482000  0.52828900  1
  C  C20  1  0.58268900  0.77520300  0.47170700  1
  C  C21  1  0.59355300  0.22572000  0.48177200  1
  C  C22  1  0.40643100  0.77430200  0.51821900  1
  C  C23  1  0.32379000  0.34279100  0.52479000  1
  C  C24  1  0.67619500  0.65723100  0.47520400  1
  C  C25  1  0.68283800  0.34609600  0.47994500  1
  C  C26  1  0.31714700  0.65392600  0.52004400  1
  C  C27  1  0.41476300  0.30333700  0.51686800  1
  C  C28  1  0.58522200  0.69668500  0.48312600  1
  C  C29  1  0.59349100  0.30468600  0.48924500  1
  C  C30  1  0.40649400  0.69533600  0.51074600  1
  C  C31  1  0.50334700  0.34322800  0.50213700  1
  C  C32  1  0.49663800  0.65679400  0.49785600  1
  C  C33  1  0.23024800  0.45841200  0.53056600  1
  C  C34  1  0.76973600  0.54161000  0.46942700  1
  C  C35  1  0.77139000  0.46381200  0.47054400  1
  C  C36  1  0.22859500  0.53621000  0.52944800  1
  C  C37  1  0.32178600  0.42047500  0.52184800  1
  C  C38  1  0.67819900  0.57954700  0.47814600  1
  C  C39  1  0.68149000  0.42392100  0.48038500  1
  C  C40  1  0.31849400  0.57610100  0.51960600  1
  C  C41  1  0.41102000  0.46014900  0.51116500  1
  C  C42  1  0.58896500  0.53987300  0.48882900  1
  C  C43  1  0.59064800  0.46186000  0.48986900  1
  C  C44  1  0.40933700  0.53816300  0.51012400  1
  C  C45  1  0.50167400  0.42160800  0.50098100  1
  C  C46  1  0.49831100  0.57841500  0.49901200  1
  C  C47  1  0.30350000  0.20683800  0.73680300  1
  C  C48  1  0.18978600  0.21561300  0.75649000  1
  C  C49  1  0.14121900  0.18605000  0.51213300  1
  C  C50  1  0.24827000  0.17254500  0.45935800  1
  C  C51  1  0.75171400  0.82747600  0.54065000  1
  C  C52  1  0.85876700  0.81397300  0.48787800  1
  C  C53  1  0.81020400  0.78441400  0.24351800  1
  C  C54  1  0.69649000  0.79318700  0.26320000  1
  C  C55  1  0.71293100  0.20613400  0.28203900  1
  C  C56  1  0.82711700  0.21506400  0.26750200  1
  C  C57  1  0.87042100  0.19281400  0.51673400  1
  C  C58  1  0.76221500  0.18037300  0.56543800  1
  C  C59  1  0.23776800  0.81964900  0.43455300  1
  C  C60  1  0.12956200  0.80720800  0.48325600  1
  C  C61  1  0.17286600  0.78495700  0.73248800  1
  C  C62  1  0.28705200  0.79388700  0.71795100  1
  N  N1  1  0.50600800  0.18567800  0.50579700  1
  N  N2  1  0.49397600  0.81434400  0.49419700  1
  N  N3  1  0.32907600  0.18716200  0.57883400  1
  N  N4  1  0.67091000  0.81286100  0.42116800  1
  N  N5  1  0.68382100  0.18800300  0.43931600  1
  N  N6  1  0.31616200  0.81201900  0.56067400  1
  O  O1  1  0.59915100  0.93490000  0.33859700  1
  O  O2  1  0.40083300  0.06512200  0.66139800  1
  O  O3  1  0.39172000  0.93433700  0.65645000  1
  O  O4  1  0.60826400  0.06568500  0.34354400  1
  O  O5  1  0.39806300  0.06741200  0.32580300  1
  O  O6  1  0.60192100  0.93261000  0.67419200  1
  O  O7  1  0.61078800  0.06237300  0.67595000  1
  O  O8  1  0.38919500  0.93764900  0.32404400  1
  O  O9  1  0.13437300  0.16265300  0.66627000  1
  O  O10  1  0.86561500  0.83737300  0.33374400  1
  O  O11  1  0.88111400  0.16503100  0.36666200  1
  O  O12  1  0.11886900  0.83499000  0.63332900  1
