# generated using pymatgen
data_ZnH11C16N2O5
_symmetry_space_group_name_H-M   'P 1'
_cell_length_a   8.54108400
_cell_length_b   12.76618500
_cell_length_c   13.44899200
_cell_angle_alpha   90.87461100
_cell_angle_beta   90.06496900
_cell_angle_gamma   95.44451600
_symmetry_Int_Tables_number   1
_chemical_formula_structural   ZnH11C16N2O5
_chemical_formula_sum   'Zn2 H22 C32 N4 O10'
_cell_volume   1459.64776861
_cell_formula_units_Z   2
loop_
 _symmetry_equiv_pos_site_id
 _symmetry_equiv_pos_as_xyz
  1  'x, y, z'
loop_
 _atom_site_type_symbol
 _atom_site_label
 _atom_site_symmetry_multiplicity
 _atom_site_fract_x
 _atom_site_fract_y
 _atom_site_fract_z
 _atom_site_occupancy
  Zn  Zn1  1  0.50118100  0.50062500  0.88782700  1
  Zn  Zn2  1  0.49755800  0.49284400  0.10959100  1
  H  H1  1  0.29685500  0.85945900  0.99941300  1
  H  H2  1  0.79232700  0.84719700  0.99998200  1
  H  H3  1  0.70222800  0.13783600  0.02375600  1
  H  H4  1  0.20638100  0.14856600  0.01707400  1
  H  H5  1  0.01788400  0.56883000  0.02461700  1
  H  H6  1  0.98009000  0.41981100  0.95387700  1
  H  H7  1  0.56557400  0.65363700  0.24497400  1
  H  H8  1  0.35007800  0.25353400  0.58793600  1
  H  H9  1  0.35440700  0.24919500  0.40822800  1
  H  H10  1  0.57228200  0.66721200  0.42054100  1
  H  H11  1  0.58982200  0.66686100  0.57227300  1
  H  H12  1  0.41506800  0.33118900  0.25411000  1
  H  H13  1  0.34838800  0.70332900  0.74963800  1
  H  H14  1  0.47520300  0.78480900  0.66841200  1
  H  H15  1  0.58316400  0.89278900  0.80327300  1
  H  H16  1  0.37138900  0.88131500  0.81685100  1
  H  H17  1  0.49138400  0.80511000  0.89455500  1
  H  H18  1  0.68365400  0.32228000  0.74920200  1
  H  H19  1  0.58298200  0.23504600  0.66066200  1
  H  H20  1  0.48947100  0.11069400  0.78024500  1
  H  H21  1  0.69464600  0.14632300  0.80935900  1
  H  H22  1  0.54160400  0.19926700  0.88290500  1
  C  C1  1  0.17131900  0.70646200  0.00564600  1
  C  C2  1  0.18296800  0.81499500  0.00162200  1
  C  C3  1  0.04788900  0.86751800  0.00393000  1
  C  C4  1  0.90090900  0.81028500  0.00382800  1
  C  C5  1  0.89157200  0.70225800  0.00915400  1
  C  C6  1  0.02613600  0.65231700  0.01518900  1
  C  C7  1  0.81614600  0.18059600  0.01286100  1
  C  C8  1  0.82747000  0.28687700  0.99304300  1
  C  C9  1  0.97221200  0.33856100  0.97399400  1
  C  C10  1  0.10715500  0.29061400  0.98902700  1
  C  C11  1  0.09777200  0.18456400  0.00803700  1
  C  C12  1  0.95089800  0.12778800  0.01369900  1
  C  C13  1  0.74182100  0.63732500  0.00543700  1
  C  C14  1  0.69280700  0.34983200  0.99574900  1
  C  C15  1  0.25669500  0.35621000  0.99219600  1
  C  C16  1  0.30665500  0.64417700  0.00213900  1
  C  C17  1  0.45049900  0.40458100  0.29254500  1
  C  C18  1  0.53539700  0.58333700  0.28715000  1
  C  C19  1  0.53827800  0.59054100  0.38927200  1
  C  C20  1  0.49616200  0.50237800  0.44578900  1
  C  C21  1  0.44863100  0.40939500  0.39543100  1
  C  C22  1  0.54717700  0.59390100  0.60556000  1
  C  C23  1  0.49903200  0.50429600  0.55006300  1
  C  C24  1  0.45365500  0.41356100  0.60124400  1
  C  C25  1  0.39588600  0.32354400  0.54951400  1
  C  C26  1  0.39623000  0.32102100  0.44739200  1
  C  C27  1  0.54141100  0.59328000  0.70805800  1
  C  C28  1  0.46676200  0.41232800  0.70424200  1
  C  C29  1  0.46433100  0.74960600  0.74316200  1
  C  C30  1  0.47793800  0.83810500  0.81968300  1
  C  C31  1  0.57726400  0.26694900  0.73728600  1
  C  C32  1  0.57615100  0.17502200  0.80731000  1
  N  N1  1  0.06296700  0.97879700  0.00334700  1
  N  N2  1  0.93587500  0.01668500  0.01837700  1
  N  N3  1  0.49430900  0.49118000  0.23996800  1
  N  N4  1  0.50449000  0.50262000  0.75708800  1
  O  O1  1  0.68552300  0.59794000  0.08883300  1
  O  O2  1  0.68308800  0.60893500  0.91784400  1
  O  O3  1  0.65084400  0.39078100  0.91202500  1
  O  O4  1  0.64190500  0.37948700  0.08302200  1
  O  O5  1  0.31321900  0.39543600  0.90860200  1
  O  O6  1  0.31579400  0.38434300  0.07989300  1
  O  O7  1  0.34826000  0.60298400  0.08571400  1
  O  O8  1  0.35676300  0.61392800  0.91468000  1
  O  O9  1  0.58466200  0.68490800  0.75917400  1
  O  O10  1  0.44098900  0.31836400  0.75219500  1
