# generated using pymatgen
data_Zn3H28(C5O2)8
_symmetry_space_group_name_H-M   'P 1'
_cell_length_a   37.03932900
_cell_length_b   30.33026400
_cell_length_c   21.52263200
_cell_angle_alpha   90.00000000
_cell_angle_beta   55.00651700
_cell_angle_gamma   90.00000000
_symmetry_Int_Tables_number   1
_chemical_formula_structural   Zn3H28(C5O2)8
_chemical_formula_sum   'Zn12 H112 C160 O64'
_cell_volume   19807.68793112
_cell_formula_units_Z   4
loop_
 _symmetry_equiv_pos_site_id
 _symmetry_equiv_pos_as_xyz
  1  'x, y, z'
loop_
 _atom_site_type_symbol
 _atom_site_label
 _atom_site_symmetry_multiplicity
 _atom_site_fract_x
 _atom_site_fract_y
 _atom_site_fract_z
 _atom_site_occupancy
  Zn  Zn1  1  0.00015600  0.55487100  0.49974800  1
  Zn  Zn2  1  0.50015600  0.05487100  0.49974800  1
  Zn  Zn3  1  0.00004700  0.45502700  0.50021600  1
  Zn  Zn4  1  0.50004700  0.95502700  0.50021600  1
  Zn  Zn5  1  0.95006600  0.50472900  0.04907000  1
  Zn  Zn6  1  0.04991300  0.50488600  0.95113600  1
  Zn  Zn7  1  0.45006600  0.00472900  0.04907000  1
  Zn  Zn8  1  0.54991300  0.00488600  0.95113600  1
  Zn  Zn9  1  0.50003600  0.50460000  0.92949400  1
  Zn  Zn10  1  0.50017500  0.50490100  0.07004200  1
  Zn  Zn11  1  0.00003600  0.00460000  0.92949400  1
  Zn  Zn12  1  0.00017500  0.00490100  0.07004200  1
  H  H1  1  0.95243500  0.55569600  0.33978500  1
  H  H2  1  0.04917900  0.55602700  0.65960100  1
  H  H3  1  0.45243500  0.05569600  0.33978500  1
  H  H4  1  0.54917900  0.05602700  0.65960100  1
  H  H5  1  0.93136100  0.48447200  0.27115700  1
  H  H6  1  0.06793600  0.48344300  0.72949100  1
  H  H7  1  0.43136100  0.98447200  0.27115700  1
  H  H8  1  0.56793600  0.98344300  0.72949100  1
  H  H9  1  0.93954800  0.54249200  0.25296300  1
  H  H10  1  0.06167100  0.54162200  0.74671000  1
  H  H11  1  0.43954800  0.04249200  0.25296300  1
  H  H12  1  0.56167100  0.04162200  0.74671000  1
  H  H13  1  0.03000200  0.56917400  0.27780400  1
  H  H14  1  0.97213400  0.57194700  0.72116200  1
  H  H15  1  0.53000200  0.06917400  0.27780400  1
  H  H16  1  0.47213400  0.07194700  0.72116200  1
  H  H17  1  0.01375800  0.57382600  0.19142300  1
  H  H18  1  0.98846900  0.57544100  0.80736400  1
  H  H19  1  0.51375800  0.07382600  0.19142300  1
  H  H20  1  0.48846900  0.07544100  0.80736400  1
  H  H21  1  0.04164300  0.44664400  0.26555100  1
  H  H22  1  0.95700900  0.44965000  0.73497500  1
  H  H23  1  0.54164300  0.94664400  0.26555100  1
  H  H24  1  0.45700900  0.94965000  0.73497500  1
  H  H25  1  0.98467600  0.43400600  0.30931300  1
  H  H26  1  0.01352200  0.43538300  0.69219300  1
  H  H27  1  0.48467600  0.93400600  0.30931300  1
  H  H28  1  0.51352200  0.93538300  0.69219300  1
  H  H29  1  0.05525000  0.46222100  0.15330000  1
  H  H30  1  0.94339800  0.46534700  0.84742000  1
  H  H31  1  0.55525000  0.96222100  0.15330000  1
  H  H32  1  0.44339800  0.96534700  0.84742000  1
  H  H33  1  0.06724800  0.52351500  0.23034200  1
  H  H34  1  0.93351600  0.52733700  0.76921900  1
  H  H35  1  0.56724800  0.02351500  0.23034200  1
  H  H36  1  0.43351600  0.02733700  0.76921900  1
  H  H37  1  0.06232400  0.54046300  0.13277000  1
  H  H38  1  0.93884000  0.54359600  0.86657100  1
  H  H39  1  0.56232400  0.04046300  0.13277000  1
  H  H40  1  0.43884000  0.04359600  0.86657100  1
  H  H41  1  0.78007400  0.43806800  0.75084300  1
  H  H42  1  0.22046800  0.43791500  0.24478100  1
  H  H43  1  0.28007400  0.93806800  0.75084300  1
  H  H44  1  0.72046800  0.93791500  0.24478100  1
  H  H45  1  0.86026800  0.43798700  0.66932000  1
  H  H46  1  0.14027800  0.43731900  0.32647800  1
  H  H47  1  0.36026800  0.93798700  0.66932000  1
  H  H48  1  0.64027800  0.93731900  0.32647800  1
  H  H49  1  0.85925800  0.57363200  0.61588000  1
  H  H50  1  0.14063300  0.57140400  0.38782700  1
  H  H51  1  0.35925800  0.07363200  0.61588000  1
  H  H52  1  0.64063300  0.07140400  0.38782700  1
  H  H53  1  0.77909300  0.57306000  0.69592800  1
  H  H54  1  0.22079000  0.57127200  0.30764100  1
  H  H55  1  0.27909300  0.07306000  0.69592800  1
  H  H56  1  0.72079000  0.07127200  0.30764100  1
  H  H57  1  0.72002900  0.53374500  0.69205600  1
  H  H58  1  0.28004700  0.53034100  0.30926100  1
  H  H59  1  0.22002900  0.03374500  0.69205600  1
  H  H60  1  0.78004700  0.03034100  0.30926100  1
  H  H61  1  0.63979600  0.53297800  0.77141300  1
  H  H62  1  0.36029300  0.52994000  0.22984100  1
  H  H63  1  0.13979600  0.03297800  0.77141300  1
  H  H64  1  0.86029300  0.02994000  0.22984100  1
  H  H65  1  0.64076100  0.47694200  0.95276500  1
  H  H66  1  0.35954200  0.47948000  0.04507400  1
  H  H67  1  0.14076100  0.97694200  0.95276500  1
  H  H68  1  0.85954200  0.97948000  0.04507400  1
  H  H69  1  0.72102700  0.47680000  0.87239500  1
  H  H70  1  0.27927000  0.47890400  0.12546900  1
  H  H71  1  0.22102700  0.97680000  0.87239500  1
  H  H72  1  0.77927000  0.97890400  0.12546900  1
  H  H73  1  0.06553800  0.72511800  0.90265800  1
  H  H74  1  0.93330100  0.72543900  0.10076400  1
  H  H75  1  0.56553800  0.22511800  0.90265800  1
  H  H76  1  0.43330100  0.22543900  0.10076400  1
  H  H77  1  0.06559200  0.64485400  0.90300500  1
  H  H78  1  0.93274700  0.64515900  0.10045400  1
  H  H79  1  0.56559200  0.14485400  0.90300500  1
  H  H80  1  0.43274700  0.14515900  0.10045400  1
  H  H81  1  0.47506000  0.28428700  0.11876600  1
  H  H82  1  0.52416000  0.28427700  0.88447600  1
  H  H83  1  0.97506000  0.78428700  0.11876600  1
  H  H84  1  0.02416000  0.78427700  0.88447600  1
  H  H85  1  0.47578100  0.36455200  0.11862700  1
  H  H86  1  0.52398900  0.36454400  0.88433500  1
  H  H87  1  0.97578100  0.86455200  0.11862700  1
  H  H88  1  0.02398900  0.86454400  0.88433500  1
  H  H89  1  0.06739600  0.28408000  0.96353000  1
  H  H90  1  0.93392700  0.28454700  0.03265000  1
  H  H91  1  0.56739600  0.78408000  0.96353000  1
  H  H92  1  0.43392700  0.78454700  0.03265000  1
  H  H93  1  0.06791100  0.36424400  0.96278700  1
  H  H94  1  0.93379100  0.36471800  0.03381500  1
  H  H95  1  0.56791100  0.86424400  0.96278700  1
  H  H96  1  0.43379100  0.86471800  0.03381500  1
  H  H97  1  0.47345800  0.72540800  0.93323400  1
  H  H98  1  0.52755000  0.72506000  0.06292900  1
  H  H99  1  0.97345800  0.22540800  0.93323400  1
  H  H100  1  0.02755000  0.22506000  0.06292900  1
  H  H101  1  0.47363100  0.64516700  0.93245500  1
  H  H102  1  0.52698400  0.64483500  0.06373300  1
  H  H103  1  0.97363100  0.14516700  0.93245500  1
  H  H104  1  0.02698400  0.14483500  0.06373300  1
  H  H105  1  0.86156900  0.50647500  0.50120100  1
  H  H106  1  0.13880200  0.50472400  0.49921500  1
  H  H107  1  0.36156900  0.00647500  0.50120100  1
  H  H108  1  0.63880200  0.00472400  0.49921500  1
  H  H109  1  0.95270400  0.38208300  0.20603500  1
  H  H110  1  0.04304200  0.38166200  0.79770000  1
  H  H111  1  0.45270400  0.88208300  0.20603500  1
  H  H112  1  0.54304200  0.88166200  0.79770000  1
  C  C1  1  0.91376000  0.50587000  0.58743000  1
  C  C2  1  0.08644500  0.50407200  0.41252000  1
  C  C3  1  0.41376000  0.00587000  0.58743000  1
  C  C4  1  0.58644500  0.00407200  0.41252000  1
  C  C5  1  0.99879000  0.50393200  0.37964900  1
  C  C6  1  0.00142500  0.50598800  0.62031300  1
  C  C7  1  0.49879000  0.00393200  0.37964900  1
  C  C8  1  0.50142500  0.00598800  0.62031300  1
  C  C9  1  0.95490300  0.51971400  0.32886600  1
  C  C10  1  0.04567100  0.52007400  0.67104300  1
  C  C11  1  0.45490300  0.01971400  0.32886600  1
  C  C12  1  0.54567100  0.02007400  0.67104300  1
  C  C13  1  0.95339200  0.51229600  0.26085300  1
  C  C14  1  0.04685700  0.51207900  0.73927000  1
  C  C15  1  0.45339200  0.01229600  0.26085300  1
  C  C16  1  0.54685700  0.01207900  0.73927000  1
  C  C17  1  0.03392300  0.53630600  0.25211900  1
  C  C18  1  0.96720500  0.53903500  0.74729600  1
  C  C19  1  0.53392300  0.03630600  0.25211900  1
  C  C20  1  0.46720500  0.03903500  0.74729600  1
  C  C21  1  0.01082300  0.45837400  0.27372100  1
  C  C22  1  0.98800100  0.46041500  0.72711700  1
  C  C23  1  0.51082300  0.95837400  0.27372100  1
  C  C24  1  0.48800100  0.96041500  0.72711700  1
  C  C25  1  0.99920500  0.50411900  0.30989600  1
  C  C26  1  0.00097100  0.50593500  0.69012300  1
  C  C27  1  0.49920500  0.00411900  0.30989600  1
  C  C28  1  0.50097100  0.00593500  0.69012300  1
  C  C29  1  0.00012800  0.50460800  0.19085100  1
  C  C30  1  0.99986900  0.50575000  0.80935700  1
  C  C31  1  0.50012800  0.00460800  0.19085100  1
  C  C32  1  0.49986900  0.00575000  0.80935700  1
  C  C33  1  0.02911400  0.54152000  0.18694900  1
  C  C34  1  0.97210000  0.54370400  0.81244500  1
  C  C35  1  0.52911400  0.04152000  0.18694900  1
  C  C36  1  0.47210000  0.04370400  0.81244500  1
  C  C37  1  0.01908500  0.46147900  0.19637200  1
  C  C38  1  0.97954600  0.46342300  0.80461900  1
  C  C39  1  0.51908500  0.96147900  0.19637200  1
  C  C40  1  0.47954600  0.96342300  0.80461900  1
  C  C41  1  0.79737200  0.46798300  0.72152400  1
  C  C42  1  0.20301800  0.46737300  0.27590800  1
  C  C43  1  0.29737200  0.96798300  0.72152400  1
  C  C44  1  0.70301800  0.96737300  0.27590800  1
  C  C45  1  0.84280100  0.46789300  0.67481600  1
  C  C46  1  0.15759100  0.46698000  0.32270800  1
  C  C47  1  0.34280100  0.96789300  0.67481600  1
  C  C48  1  0.65759100  0.96698000  0.32270800  1
  C  C49  1  0.86548100  0.50581100  0.63677200  1
  C  C50  1  0.13472600  0.50431200  0.36306500  1
  C  C51  1  0.36548100  0.00581100  0.63677200  1
  C  C52  1  0.63472600  0.00431200  0.36306500  1
  C  C53  1  0.84224500  0.54366300  0.64537300  1
  C  C54  1  0.15778000  0.54188400  0.35657700  1
  C  C55  1  0.34224500  0.04366300  0.64537300  1
  C  C56  1  0.65778000  0.04188400  0.35657700  1
  C  C57  1  0.79681200  0.54328200  0.69013700  1
  C  C58  1  0.20321100  0.54174400  0.31171800  1
  C  C59  1  0.29681200  0.04328200  0.69013700  1
  C  C60  1  0.70321100  0.04174400  0.31171800  1
  C  C61  1  0.77418600  0.50553800  0.72877500  1
  C  C62  1  0.22601600  0.50459400  0.27084400  1
  C  C63  1  0.27418600  0.00553800  0.72877500  1
  C  C64  1  0.72601600  0.00459400  0.27084400  1
  C  C65  1  0.70274000  0.52136100  0.74940800  1
  C  C66  1  0.29739000  0.51926800  0.25115000  1
  C  C67  1  0.20274000  0.02136100  0.74940800  1
  C  C68  1  0.79739000  0.01926800  0.25115000  1
  C  C69  1  0.65730700  0.52053500  0.79417800  1
  C  C70  1  0.34282500  0.51864900  0.20632300  1
  C  C71  1  0.15730700  0.02053500  0.79417800  1
  C  C72  1  0.84282500  0.01864900  0.20632300  1
  C  C73  1  0.63463900  0.50493800  0.86770200  1
  C  C74  1  0.36555000  0.50472400  0.13184700  1
  C  C75  1  0.13463900  0.00493800  0.86770200  1
  C  C76  1  0.86555000  0.00472400  0.13184700  1
  C  C77  1  0.65785100  0.48951500  0.89557100  1
  C  C78  1  0.34240000  0.49074900  0.10303400  1
  C  C79  1  0.15785100  0.98951500  0.89557100  1
  C  C80  1  0.84240000  0.99074900  0.10303400  1
  C  C81  1  0.70329600  0.48905300  0.84990900  1
  C  C82  1  0.29695900  0.49003600  0.14867900  1
  C  C83  1  0.20329600  0.98905300  0.84990900  1
  C  C84  1  0.79695900  0.99003600  0.14867900  1
  C  C85  1  0.72592500  0.50531400  0.77686600  1
  C  C86  1  0.27427200  0.50463700  0.22271800  1
  C  C87  1  0.22592500  0.00531400  0.77686600  1
  C  C88  1  0.77427200  0.00463700  0.22271800  1
  C  C89  1  0.99900900  0.59113700  0.00166500  1
  C  C90  1  0.49900900  0.09113700  0.00166500  1
  C  C91  1  0.00054800  0.50463300  0.12115700  1
  C  C92  1  0.99942100  0.50536200  0.87907300  1
  C  C93  1  0.50054800  0.00463300  0.12115700  1
  C  C94  1  0.49942100  0.00536200  0.87907300  1
  C  C95  1  0.00097600  0.41849400  0.99850500  1
  C  C96  1  0.50097600  0.91849400  0.99850500  1
  C  C97  1  0.50003800  0.41843300  0.00140400  1
  C  C98  1  0.00003800  0.91843300  0.00140400  1
  C  C99  1  0.58636800  0.50479000  0.91571100  1
  C  C100  1  0.41381800  0.50474800  0.08384400  1
  C  C101  1  0.08636800  0.00479000  0.91571100  1
  C  C102  1  0.91381800  0.00474800  0.08384400  1
  C  C103  1  0.50018200  0.59108100  0.99812200  1
  C  C104  1  0.00018200  0.09108100  0.99812200  1
  C  C105  1  0.03623500  0.70767100  0.94609000  1
  C  C106  1  0.96249800  0.70784800  0.05735300  1
  C  C107  1  0.53623500  0.20767100  0.94609000  1
  C  C108  1  0.46249800  0.20784800  0.05735300  1
  C  C109  1  0.03635500  0.66222900  0.94676700  1
  C  C110  1  0.96209200  0.66240500  0.05670900  1
  C  C111  1  0.53635500  0.16222900  0.94676700  1
  C  C112  1  0.46209200  0.16240500  0.05670900  1
  C  C113  1  0.99915200  0.63939200  0.00173900  1
  C  C114  1  0.49915200  0.13939200  0.00173900  1
  C  C115  1  0.99943700  0.73065500  0.00170300  1
  C  C116  1  0.49943700  0.23065500  0.00170300  1
  C  C117  1  0.48569900  0.30180500  0.06718800  1
  C  C118  1  0.51364500  0.30179700  0.93599400  1
  C  C119  1  0.98569900  0.80180500  0.06718800  1
  C  C120  1  0.01364500  0.80179700  0.93599400  1
  C  C121  1  0.48650800  0.34724600  0.06684400  1
  C  C122  1  0.51315500  0.34724200  0.93617200  1
  C  C123  1  0.98650800  0.84724600  0.06684400  1
  C  C124  1  0.01315500  0.84724200  0.93617200  1
  C  C125  1  0.49991200  0.37017200  0.00146600  1
  C  C126  1  0.99991200  0.87017200  0.00146600  1
  C  C127  1  0.49959000  0.27890600  0.00163300  1
  C  C128  1  0.99959000  0.77890600  0.00163300  1
  C  C129  1  0.03791100  0.30168100  0.97926600  1
  C  C130  1  0.96350400  0.30194200  0.01695300  1
  C  C131  1  0.53791100  0.80168100  0.97926600  1
  C  C132  1  0.46350400  0.80194200  0.01695300  1
  C  C133  1  0.03826300  0.34712000  0.97823400  1
  C  C134  1  0.96336700  0.34738000  0.01821100  1
  C  C135  1  0.53826300  0.84712000  0.97823400  1
  C  C136  1  0.46336700  0.84738000  0.01821100  1
  C  C137  1  0.00086800  0.37020700  0.99828700  1
  C  C138  1  0.50086800  0.87020700  0.99828700  1
  C  C139  1  0.00065100  0.27890500  0.99806900  1
  C  C140  1  0.50065100  0.77890500  0.99806900  1
  C  C141  1  0.48508800  0.70782900  0.96224400  1
  C  C142  1  0.51583600  0.70763700  0.03391600  1
  C  C143  1  0.98508800  0.20782900  0.96224400  1
  C  C144  1  0.01583600  0.20763700  0.03391600  1
  C  C145  1  0.48558200  0.66238100  0.96125900  1
  C  C146  1  0.51511700  0.66219600  0.03492100  1
  C  C147  1  0.98558200  0.16238100  0.96125900  1
  C  C148  1  0.01511700  0.16219600  0.03492100  1
  C  C149  1  0.50029300  0.63935100  0.99809700  1
  C  C150  1  0.00029300  0.13935100  0.99809700  1
  C  C151  1  0.50052200  0.73064000  0.99807100  1
  C  C152  1  0.00052200  0.23064000  0.99807100  1
  C  C153  1  0.91633200  0.49870400  0.39866900  1
  C  C154  1  0.08368100  0.49818900  0.60162500  1
  C  C155  1  0.41633200  0.99870400  0.39866900  1
  C  C156  1  0.58368100  0.99818900  0.60162500  1
  C  C157  1  0.00201700  0.42180500  0.17955300  1
  C  C158  1  0.99514500  0.42303900  0.82262700  1
  C  C159  1  0.50201700  0.92180500  0.17955300  1
  C  C160  1  0.49514500  0.92303900  0.82262700  1
  O  O1  1  0.93430400  0.54392200  0.56779800  1
  O  O2  1  0.06571700  0.54202000  0.43495800  1
  O  O3  1  0.43430400  0.04392200  0.56779800  1
  O  O4  1  0.56571700  0.04202000  0.43495800  1
  O  O5  1  0.93444500  0.46787800  0.56508600  1
  O  O6  1  0.06593800  0.46598800  0.43208000  1
  O  O7  1  0.43444500  0.96787800  0.56508600  1
  O  O8  1  0.56593800  0.96598800  0.43208000  1
  O  O9  1  0.99797800  0.54192000  0.40960300  1
  O  O10  1  0.00030400  0.54401700  0.59245600  1
  O  O11  1  0.49797800  0.04192000  0.40960300  1
  O  O12  1  0.50030400  0.04401700  0.59245600  1
  O  O13  1  0.99994000  0.46587500  0.40741100  1
  O  O14  1  0.00218000  0.46797200  0.59046300  1
  O  O15  1  0.49994000  0.96587500  0.40741100  1
  O  O16  1  0.50218000  0.96797200  0.59046300  1
  O  O17  1  0.96093400  0.57065600  0.03756800  1
  O  O18  1  0.03699800  0.57045100  0.96552200  1
  O  O19  1  0.46093400  0.07065600  0.03756800  1
  O  O20  1  0.53699800  0.07045100  0.96552200  1
  O  O21  1  0.96270200  0.50543000  0.12906100  1
  O  O22  1  0.03725900  0.50408300  0.87117000  1
  O  O23  1  0.46270200  0.00543000  0.12906100  1
  O  O24  1  0.53725900  0.00408300  0.87117000  1
  O  O25  1  0.03872200  0.50370900  0.05494200  1
  O  O26  1  0.96124200  0.50623900  0.94528600  1
  O  O27  1  0.53872200  0.00370900  0.05494200  1
  O  O28  1  0.46124200  0.00623900  0.94528600  1
  O  O29  1  0.96302300  0.43921000  0.03427100  1
  O  O30  1  0.03900400  0.43900400  0.96304600  1
  O  O31  1  0.46302300  0.93921000  0.03427100  1
  O  O32  1  0.53900400  0.93900400  0.96304600  1
  O  O33  1  0.49958600  0.43907600  0.94826400  1
  O  O34  1  0.50055200  0.43898900  0.05451200  1
  O  O35  1  0.99958600  0.93907600  0.94826400  1
  O  O36  1  0.00055200  0.93898900  0.05451200  1
  O  O37  1  0.56556200  0.50628200  0.88281800  1
  O  O38  1  0.43462400  0.50450200  0.11677700  1
  O  O39  1  0.06556200  0.00628200  0.88281800  1
  O  O40  1  0.93462400  0.00450200  0.11677700  1
  O  O41  1  0.56596300  0.50321500  0.98954400  1
  O  O42  1  0.43422300  0.50503500  0.00996900  1
  O  O43  1  0.06596300  0.00321500  0.98954400  1
  O  O44  1  0.93422300  0.00503500  0.00996900  1
  O  O45  1  0.49844200  0.57052400  0.94627100  1
  O  O46  1  0.50180800  0.57043300  0.05005500  1
  O  O47  1  0.99844200  0.07052400  0.94627100  1
  O  O48  1  0.00180800  0.07043300  0.05005500  1
  O  O49  1  0.90963000  0.45916100  0.40158900  1
  O  O50  1  0.88652300  0.52517300  0.45991800  1
  O  O51  1  0.08921900  0.45844100  0.59926800  1
  O  O52  1  0.11434700  0.52402000  0.54012100  1
  O  O53  1  0.40963000  0.95916100  0.40158900  1
  O  O54  1  0.38652300  0.02517300  0.45991800  1
  O  O55  1  0.58921900  0.95844100  0.59926800  1
  O  O56  1  0.61434700  0.02402000  0.54012100  1
  O  O57  1  0.02765100  0.39903700  0.12474400  1
  O  O58  1  0.95786100  0.40967700  0.22634600  1
  O  O59  1  0.96864100  0.40098800  0.87784500  1
  O  O60  1  0.03890600  0.40951600  0.77657100  1
  O  O61  1  0.52765100  0.89903700  0.12474400  1
  O  O62  1  0.45786100  0.90967700  0.22634600  1
  O  O63  1  0.46864100  0.90098800  0.87784500  1
  O  O64  1  0.53890600  0.90951600  0.77657100  1
