# generated using pymatgen
data_Zn3H14(C15O7)2
_symmetry_space_group_name_H-M   'P 1'
_cell_length_a   31.27202000
_cell_length_b   29.05996900
_cell_length_c   30.64634600
_cell_angle_alpha   90.00000000
_cell_angle_beta   90.00000000
_cell_angle_gamma   90.00000000
_symmetry_Int_Tables_number   1
_chemical_formula_structural   Zn3H14(C15O7)2
_chemical_formula_sum   'Zn24 H112 C240 O112'
_cell_volume   27850.29388526
_cell_formula_units_Z   8
loop_
 _symmetry_equiv_pos_site_id
 _symmetry_equiv_pos_as_xyz
  1  'x, y, z'
loop_
 _atom_site_type_symbol
 _atom_site_label
 _atom_site_symmetry_multiplicity
 _atom_site_fract_x
 _atom_site_fract_y
 _atom_site_fract_z
 _atom_site_occupancy
  Zn  Zn1  1  0.28399500  0.99852500  0.78253200  1
  Zn  Zn2  1  0.71600500  0.00147500  0.78253200  1
  Zn  Zn3  1  0.78399500  0.49852500  0.78253200  1
  Zn  Zn4  1  0.21600500  0.50147500  0.78253200  1
  Zn  Zn5  1  0.78399500  0.99852500  0.28253200  1
  Zn  Zn6  1  0.21600500  0.00147500  0.28253200  1
  Zn  Zn7  1  0.28399500  0.49852500  0.28253200  1
  Zn  Zn8  1  0.71600500  0.50147500  0.28253200  1
  Zn  Zn9  1  0.21612800  0.00155100  0.71205400  1
  Zn  Zn10  1  0.78387200  0.99844900  0.71205400  1
  Zn  Zn11  1  0.71612800  0.50155100  0.71205400  1
  Zn  Zn12  1  0.28387200  0.49844900  0.71205400  1
  Zn  Zn13  1  0.71612800  0.00155100  0.21205400  1
  Zn  Zn14  1  0.28387200  0.99844900  0.21205400  1
  Zn  Zn15  1  0.21612800  0.50155100  0.21205400  1
  Zn  Zn16  1  0.78387200  0.49844900  0.21205400  1
  Zn  Zn17  1  0.00232400  0.94801600  0.99756700  1
  Zn  Zn18  1  0.99767600  0.05198400  0.99756700  1
  Zn  Zn19  1  0.50232400  0.44801600  0.99756700  1
  Zn  Zn20  1  0.49767600  0.55198400  0.99756700  1
  Zn  Zn21  1  0.50232400  0.94801600  0.49756700  1
  Zn  Zn22  1  0.49767600  0.05198400  0.49756700  1
  Zn  Zn23  1  0.00232400  0.44801600  0.49756700  1
  Zn  Zn24  1  0.99767600  0.55198400  0.49756700  1
  H  H1  1  0.30742300  0.03951100  0.60822300  1
  H  H2  1  0.69257700  0.96048900  0.60822300  1
  H  H3  1  0.80742300  0.53951100  0.60822300  1
  H  H4  1  0.19257700  0.46048900  0.60822300  1
  H  H5  1  0.80742300  0.03951100  0.10822300  1
  H  H6  1  0.19257700  0.96048900  0.10822300  1
  H  H7  1  0.30742300  0.53951100  0.10822300  1
  H  H8  1  0.69257700  0.46048900  0.10822300  1
  H  H9  1  0.36453400  0.04051200  0.55328400  1
  H  H10  1  0.63546600  0.95948800  0.55328400  1
  H  H11  1  0.86453400  0.54051200  0.55328400  1
  H  H12  1  0.13546600  0.45948800  0.55328400  1
  H  H13  1  0.86453400  0.04051200  0.05328400  1
  H  H14  1  0.13546600  0.95948800  0.05328400  1
  H  H15  1  0.36453400  0.54051200  0.05328400  1
  H  H16  1  0.63546600  0.45948800  0.05328400  1
  H  H17  1  0.44515500  0.91047500  0.63990900  1
  H  H18  1  0.55484500  0.08952500  0.63990900  1
  H  H19  1  0.53058600  0.03563600  0.66371300  1
  H  H20  1  0.46941400  0.96436400  0.66371300  1
  H  H21  1  0.94515500  0.41047500  0.63990900  1
  H  H22  1  0.05484500  0.58952500  0.63990900  1
  H  H23  1  0.03058600  0.53563600  0.66371300  1
  H  H24  1  0.96941400  0.46436400  0.66371300  1
  H  H25  1  0.94515500  0.91047500  0.13990900  1
  H  H26  1  0.05484500  0.08952500  0.13990900  1
  H  H27  1  0.03058600  0.03563600  0.16371300  1
  H  H28  1  0.96941400  0.96436400  0.16371300  1
  H  H29  1  0.44515500  0.41047500  0.13990900  1
  H  H30  1  0.55484500  0.58952500  0.13990900  1
  H  H31  1  0.53058600  0.53563600  0.16371300  1
  H  H32  1  0.46941400  0.46436400  0.16371300  1
  H  H33  1  0.38967600  0.91198200  0.69575700  1
  H  H34  1  0.61032400  0.08801800  0.69575700  1
  H  H35  1  0.58568800  0.03441900  0.71974000  1
  H  H36  1  0.41431200  0.96558100  0.71974000  1
  H  H37  1  0.88967600  0.41198200  0.69575700  1
  H  H38  1  0.11032400  0.58801800  0.69575700  1
  H  H39  1  0.08568800  0.53441900  0.71974000  1
  H  H40  1  0.91431200  0.46558100  0.71974000  1
  H  H41  1  0.88967600  0.91198200  0.19575700  1
  H  H42  1  0.11032400  0.08801800  0.19575700  1
  H  H43  1  0.08568800  0.03441900  0.21974000  1
  H  H44  1  0.91431200  0.96558100  0.21974000  1
  H  H45  1  0.38967600  0.41198200  0.19575700  1
  H  H46  1  0.61032400  0.58801800  0.19575700  1
  H  H47  1  0.58568800  0.53441900  0.21974000  1
  H  H48  1  0.41431200  0.46558100  0.21974000  1
  H  H49  1  0.07385500  0.06896200  0.87865000  1
  H  H50  1  0.92614500  0.93103800  0.87865000  1
  H  H51  1  0.57385500  0.56896200  0.87865000  1
  H  H52  1  0.42614500  0.43103800  0.87865000  1
  H  H53  1  0.57385500  0.06896200  0.37865000  1
  H  H54  1  0.42614500  0.93103800  0.37865000  1
  H  H55  1  0.07385500  0.56896200  0.37865000  1
  H  H56  1  0.92614500  0.43103800  0.37865000  1
  H  H57  1  0.14704700  0.92678200  0.95143800  1
  H  H58  1  0.85295300  0.07321800  0.95143800  1
  H  H59  1  0.88858600  0.10347900  0.91083700  1
  H  H60  1  0.11141400  0.89652100  0.91083700  1
  H  H61  1  0.64704700  0.42678200  0.95143800  1
  H  H62  1  0.35295300  0.57321800  0.95143800  1
  H  H63  1  0.38858600  0.60347900  0.91083700  1
  H  H64  1  0.61141400  0.39652100  0.91083700  1
  H  H65  1  0.64704700  0.92678200  0.45143800  1
  H  H66  1  0.35295300  0.07321800  0.45143800  1
  H  H67  1  0.38858600  0.10347900  0.41083700  1
  H  H68  1  0.61141400  0.89652100  0.41083700  1
  H  H69  1  0.14704700  0.42678200  0.45143800  1
  H  H70  1  0.85295300  0.57321800  0.45143800  1
  H  H71  1  0.88858600  0.60347900  0.41083700  1
  H  H72  1  0.11141400  0.39652100  0.41083700  1
  H  H73  1  0.20396300  0.92940700  0.89737300  1
  H  H74  1  0.79603700  0.07059300  0.89737300  1
  H  H75  1  0.83191600  0.10032400  0.85665500  1
  H  H76  1  0.16808400  0.89967600  0.85665500  1
  H  H77  1  0.70396300  0.42940700  0.89737300  1
  H  H78  1  0.29603700  0.57059300  0.89737300  1
  H  H79  1  0.33191600  0.60032400  0.85665500  1
  H  H80  1  0.66808400  0.39967600  0.85665500  1
  H  H81  1  0.70396300  0.92940700  0.39737300  1
  H  H82  1  0.29603700  0.07059300  0.39737300  1
  H  H83  1  0.33191600  0.10032400  0.35665500  1
  H  H84  1  0.66808400  0.89967600  0.35665500  1
  H  H85  1  0.20396300  0.42940700  0.39737300  1
  H  H86  1  0.79603700  0.57059300  0.39737300  1
  H  H87  1  0.83191600  0.60032400  0.35665500  1
  H  H88  1  0.16808400  0.39967600  0.35665500  1
  H  H89  1  0.06808200  0.16967100  0.79037000  1
  H  H90  1  0.10524000  0.14200200  0.75364100  1
  H  H91  1  0.12482400  0.17404100  0.80044000  1
  H  H92  1  0.93191800  0.83032900  0.79037000  1
  H  H93  1  0.89476000  0.85799800  0.75364100  1
  H  H94  1  0.87517600  0.82595900  0.80044000  1
  H  H95  1  0.56808200  0.66967100  0.79037000  1
  H  H96  1  0.60524000  0.64200200  0.75364100  1
  H  H97  1  0.62482400  0.67404100  0.80044000  1
  H  H98  1  0.43191800  0.33032900  0.79037000  1
  H  H99  1  0.39476000  0.35799800  0.75364100  1
  H  H100  1  0.37517600  0.32595900  0.80044000  1
  H  H101  1  0.56808200  0.16967100  0.29037000  1
  H  H102  1  0.60524000  0.14200200  0.25364100  1
  H  H103  1  0.62482400  0.17404100  0.30044000  1
  H  H104  1  0.43191800  0.83032900  0.29037000  1
  H  H105  1  0.39476000  0.85799800  0.25364100  1
  H  H106  1  0.37517600  0.82595900  0.30044000  1
  H  H107  1  0.06808200  0.66967100  0.29037000  1
  H  H108  1  0.10524000  0.64200200  0.25364100  1
  H  H109  1  0.12482400  0.67404100  0.30044000  1
  H  H110  1  0.93191800  0.33032900  0.29037000  1
  H  H111  1  0.89476000  0.35799800  0.25364100  1
  H  H112  1  0.87517600  0.32595900  0.30044000  1
  C  C1  1  0.30908000  0.99765700  0.68691600  1
  C  C2  1  0.69092000  0.00234300  0.68691600  1
  C  C3  1  0.80908000  0.49765700  0.68691600  1
  C  C4  1  0.19092000  0.50234300  0.68691600  1
  C  C5  1  0.80908000  0.99765700  0.18691600  1
  C  C6  1  0.19092000  0.00234300  0.18691600  1
  C  C7  1  0.30908000  0.49765700  0.18691600  1
  C  C8  1  0.69092000  0.50234300  0.18691600  1
  C  C9  1  0.24782400  0.91010600  0.74784800  1
  C  C10  1  0.75217600  0.08989400  0.74784800  1
  C  C11  1  0.74762600  0.91004600  0.74667700  1
  C  C12  1  0.25237400  0.08995400  0.74667700  1
  C  C13  1  0.74782400  0.41010600  0.74784800  1
  C  C14  1  0.25217600  0.58989400  0.74784800  1
  C  C15  1  0.24762600  0.41004600  0.74667700  1
  C  C16  1  0.75237400  0.58995400  0.74667700  1
  C  C17  1  0.74782400  0.91010600  0.24784800  1
  C  C18  1  0.25217600  0.08989400  0.24784800  1
  C  C19  1  0.24762600  0.91004600  0.24667700  1
  C  C20  1  0.75237400  0.08995400  0.24667700  1
  C  C21  1  0.24782400  0.41010600  0.24784800  1
  C  C22  1  0.75217600  0.58989400  0.24784800  1
  C  C23  1  0.74762600  0.41004600  0.24667700  1
  C  C24  1  0.25237400  0.58995400  0.24667700  1
  C  C25  1  0.19103600  0.00299400  0.80764800  1
  C  C26  1  0.80896400  0.99700600  0.80764800  1
  C  C27  1  0.69103600  0.50299400  0.80764800  1
  C  C28  1  0.30896400  0.49700600  0.80764800  1
  C  C29  1  0.69103600  0.00299400  0.30764800  1
  C  C30  1  0.30896400  0.99700600  0.30764800  1
  C  C31  1  0.19103600  0.50299400  0.30764800  1
  C  C32  1  0.80896400  0.49700600  0.30764800  1
  C  C33  1  0.24735200  0.86074900  0.74664400  1
  C  C34  1  0.75264800  0.13925100  0.74664400  1
  C  C35  1  0.74722600  0.86071200  0.74794000  1
  C  C36  1  0.25277400  0.13928800  0.74794000  1
  C  C37  1  0.74735200  0.36074900  0.74664400  1
  C  C38  1  0.25264800  0.63925100  0.74664400  1
  C  C39  1  0.24722600  0.36071200  0.74794000  1
  C  C40  1  0.75277400  0.63928800  0.74794000  1
  C  C41  1  0.74735200  0.86074900  0.24664400  1
  C  C42  1  0.25264800  0.13925100  0.24664400  1
  C  C43  1  0.24722600  0.86071200  0.24794000  1
  C  C44  1  0.75277400  0.13928800  0.24794000  1
  C  C45  1  0.24735200  0.36074900  0.24664400  1
  C  C46  1  0.75264800  0.63925100  0.24664400  1
  C  C47  1  0.74722600  0.36071200  0.24794000  1
  C  C48  1  0.25277400  0.63928800  0.24794000  1
  C  C49  1  0.24794800  0.81929100  0.74596300  1
  C  C50  1  0.75205200  0.18070900  0.74596300  1
  C  C51  1  0.74789800  0.81926900  0.74866000  1
  C  C52  1  0.25210200  0.18073100  0.74866000  1
  C  C53  1  0.74794800  0.31929100  0.74596300  1
  C  C54  1  0.25205200  0.68070900  0.74596300  1
  C  C55  1  0.24789800  0.31926900  0.74866000  1
  C  C56  1  0.75210200  0.68073100  0.74866000  1
  C  C57  1  0.74794800  0.81929100  0.24596300  1
  C  C58  1  0.25205200  0.18070900  0.24596300  1
  C  C59  1  0.24789800  0.81926900  0.24866000  1
  C  C60  1  0.75210200  0.18073100  0.24866000  1
  C  C61  1  0.24794800  0.31929100  0.24596300  1
  C  C62  1  0.75205200  0.68070900  0.24596300  1
  C  C63  1  0.74789800  0.31926900  0.24866000  1
  C  C64  1  0.25210200  0.68073100  0.24866000  1
  C  C65  1  0.24932500  0.77072200  0.74555200  1
  C  C66  1  0.75067500  0.22927800  0.74555200  1
  C  C67  1  0.74931700  0.77071700  0.74906900  1
  C  C68  1  0.25068300  0.22928300  0.74906900  1
  C  C69  1  0.74932500  0.27072200  0.74555200  1
  C  C70  1  0.25067500  0.72927800  0.74555200  1
  C  C71  1  0.24931700  0.27071700  0.74906900  1
  C  C72  1  0.75068300  0.72928300  0.74906900  1
  C  C73  1  0.74932500  0.77072200  0.24555200  1
  C  C74  1  0.25067500  0.22927800  0.24555200  1
  C  C75  1  0.24931700  0.77071700  0.24906900  1
  C  C76  1  0.75068300  0.22928300  0.24906900  1
  C  C77  1  0.24932500  0.27072200  0.24555200  1
  C  C78  1  0.75067500  0.72927800  0.24555200  1
  C  C79  1  0.74931700  0.27071700  0.24906900  1
  C  C80  1  0.25068300  0.72928300  0.24906900  1
  C  C81  1  0.38026700  0.97462100  0.65896500  1
  C  C82  1  0.61973300  0.02537900  0.65896500  1
  C  C83  1  0.88026700  0.47462100  0.65896500  1
  C  C84  1  0.11973300  0.52537900  0.65896500  1
  C  C85  1  0.88026700  0.97462100  0.15896500  1
  C  C86  1  0.11973300  0.02537900  0.15896500  1
  C  C87  1  0.38026700  0.47462100  0.15896500  1
  C  C88  1  0.61973300  0.52537900  0.15896500  1
  C  C89  1  0.34222400  0.99735200  0.65343900  1
  C  C90  1  0.65777600  0.00264800  0.65343900  1
  C  C91  1  0.84222400  0.49735200  0.65343900  1
  C  C92  1  0.15777600  0.50264800  0.65343900  1
  C  C93  1  0.84222400  0.99735200  0.15343900  1
  C  C94  1  0.15777600  0.00264800  0.15343900  1
  C  C95  1  0.34222400  0.49735200  0.15343900  1
  C  C96  1  0.65777600  0.50264800  0.15343900  1
  C  C97  1  0.33655900  0.02056200  0.61428500  1
  C  C98  1  0.66344100  0.97943800  0.61428500  1
  C  C99  1  0.83655900  0.52056200  0.61428500  1
  C  C100  1  0.16344100  0.47943800  0.61428500  1
  C  C101  1  0.83655900  0.02056200  0.11428500  1
  C  C102  1  0.16344100  0.97943800  0.11428500  1
  C  C103  1  0.33655900  0.52056200  0.11428500  1
  C  C104  1  0.66344100  0.47943800  0.11428500  1
  C  C105  1  0.36902800  0.02134500  0.58316800  1
  C  C106  1  0.63097200  0.97865500  0.58316800  1
  C  C107  1  0.86902800  0.52134500  0.58316800  1
  C  C108  1  0.13097200  0.47865500  0.58316800  1
  C  C109  1  0.86902800  0.02134500  0.08316800  1
  C  C110  1  0.13097200  0.97865500  0.08316800  1
  C  C111  1  0.36902800  0.52134500  0.08316800  1
  C  C112  1  0.63097200  0.47865500  0.08316800  1
  C  C113  1  0.40658700  0.99700100  0.58986000  1
  C  C114  1  0.59341300  0.00299900  0.58986000  1
  C  C115  1  0.90658700  0.49700100  0.58986000  1
  C  C116  1  0.09341300  0.50299900  0.58986000  1
  C  C117  1  0.90658700  0.99700100  0.08986000  1
  C  C118  1  0.09341300  0.00299900  0.08986000  1
  C  C119  1  0.40658700  0.49700100  0.08986000  1
  C  C120  1  0.59341300  0.50299900  0.08986000  1
  C  C121  1  0.41024700  0.97347300  0.62836400  1
  C  C122  1  0.58975300  0.02652700  0.62836400  1
  C  C123  1  0.91024700  0.47347300  0.62836400  1
  C  C124  1  0.08975300  0.52652700  0.62836400  1
  C  C125  1  0.91024700  0.97347300  0.12836400  1
  C  C126  1  0.08975300  0.02652700  0.12836400  1
  C  C127  1  0.41024700  0.47347300  0.12836400  1
  C  C128  1  0.58975300  0.52652700  0.12836400  1
  C  C129  1  0.44022900  0.94506000  0.65434100  1
  C  C130  1  0.55977100  0.05494000  0.65434100  1
  C  C131  1  0.94022900  0.44506000  0.65434100  1
  C  C132  1  0.05977100  0.55494000  0.65434100  1
  C  C133  1  0.94022900  0.94506000  0.15434100  1
  C  C134  1  0.05977100  0.05494000  0.15434100  1
  C  C135  1  0.44022900  0.44506000  0.15434100  1
  C  C136  1  0.55977100  0.55494000  0.15434100  1
  C  C137  1  0.40478600  0.94600900  0.69024100  1
  C  C138  1  0.59521400  0.05399100  0.69024100  1
  C  C139  1  0.90478600  0.44600900  0.69024100  1
  C  C140  1  0.09521400  0.55399100  0.69024100  1
  C  C141  1  0.90478600  0.94600900  0.19024100  1
  C  C142  1  0.09521400  0.05399100  0.19024100  1
  C  C143  1  0.40478600  0.44600900  0.19024100  1
  C  C144  1  0.59521400  0.55399100  0.19024100  1
  C  C145  1  0.15308000  0.97082300  0.87026200  1
  C  C146  1  0.84692000  0.02917700  0.87026200  1
  C  C147  1  0.65308000  0.47082300  0.87026200  1
  C  C148  1  0.34692000  0.52917700  0.87026200  1
  C  C149  1  0.65308000  0.97082300  0.37026200  1
  C  C150  1  0.34692000  0.02917700  0.37026200  1
  C  C151  1  0.15308000  0.47082300  0.37026200  1
  C  C152  1  0.84692000  0.52917700  0.37026200  1
  C  C153  1  0.15771800  0.00598300  0.84094200  1
  C  C154  1  0.84228200  0.99401700  0.84094200  1
  C  C155  1  0.65771800  0.50598300  0.84094200  1
  C  C156  1  0.34228200  0.49401700  0.84094200  1
  C  C157  1  0.65771800  0.00598300  0.34094200  1
  C  C158  1  0.34228200  0.99401700  0.34094200  1
  C  C159  1  0.15771800  0.50598300  0.34094200  1
  C  C160  1  0.84228200  0.49401700  0.34094200  1
  C  C161  1  0.12837000  0.04230600  0.84399600  1
  C  C162  1  0.87162900  0.95769400  0.84399600  1
  C  C163  1  0.62837100  0.54230600  0.84399600  1
  C  C164  1  0.37163000  0.45769400  0.84399600  1
  C  C165  1  0.62837000  0.04230600  0.34399600  1
  C  C166  1  0.37163000  0.95769400  0.34399600  1
  C  C167  1  0.12837000  0.54230600  0.34399600  1
  C  C168  1  0.87162900  0.45769400  0.34399600  1
  C  C169  1  0.09621800  0.04080200  0.87577900  1
  C  C170  1  0.90378200  0.95919800  0.87577900  1
  C  C171  1  0.59621800  0.54080200  0.87577900  1
  C  C172  1  0.40378200  0.45919800  0.87577900  1
  C  C173  1  0.59621800  0.04080200  0.37577900  1
  C  C174  1  0.40378200  0.95919800  0.37577900  1
  C  C175  1  0.09621800  0.54080200  0.37577900  1
  C  C176  1  0.90378200  0.45919800  0.37577900  1
  C  C177  1  0.09246000  0.00358900  0.90389800  1
  C  C178  1  0.90754000  0.99641100  0.90389800  1
  C  C179  1  0.59246000  0.50358900  0.90389800  1
  C  C180  1  0.40754000  0.49641100  0.90389800  1
  C  C181  1  0.59246000  0.00358900  0.40389800  1
  C  C182  1  0.40754000  0.99641100  0.40389800  1
  C  C183  1  0.09246000  0.50358900  0.40389800  1
  C  C184  1  0.90754000  0.49641100  0.40389800  1
  C  C185  1  0.12190200  0.96911400  0.89940800  1
  C  C186  1  0.87809800  0.03088600  0.89940800  1
  C  C187  1  0.62190200  0.46911400  0.89940800  1
  C  C188  1  0.37809800  0.53088600  0.89940800  1
  C  C189  1  0.62190200  0.96911400  0.39940800  1
  C  C190  1  0.37809800  0.03088600  0.39940800  1
  C  C191  1  0.12190200  0.46911400  0.39940800  1
  C  C192  1  0.87809800  0.53088600  0.39940800  1
  C  C193  1  0.13519300  0.92396000  0.91743200  1
  C  C194  1  0.86480700  0.07604000  0.91743200  1
  C  C195  1  0.63519300  0.42396000  0.91743200  1
  C  C196  1  0.36480700  0.57604000  0.91743200  1
  C  C197  1  0.63519300  0.92396000  0.41743200  1
  C  C198  1  0.36480700  0.07604000  0.41743200  1
  C  C199  1  0.13519300  0.42396000  0.41743200  1
  C  C200  1  0.86480700  0.57604000  0.41743200  1
  C  C201  1  0.17169400  0.92582500  0.88275400  1
  C  C202  1  0.82830600  0.07417500  0.88275400  1
  C  C203  1  0.67169400  0.42582500  0.88275400  1
  C  C204  1  0.32830600  0.57417500  0.88275400  1
  C  C205  1  0.67169400  0.92582500  0.38275400  1
  C  C206  1  0.32830600  0.07417500  0.38275400  1
  C  C207  1  0.17169400  0.42582500  0.38275400  1
  C  C208  1  0.82830600  0.57417500  0.38275400  1
  C  C209  1  0.94085500  0.99835300  0.93720300  1
  C  C210  1  0.05914500  0.00164700  0.93720300  1
  C  C211  1  0.44085500  0.49835300  0.93720300  1
  C  C212  1  0.55914500  0.50164700  0.93720300  1
  C  C213  1  0.44085500  0.99835300  0.43720300  1
  C  C214  1  0.55914500  0.00164700  0.43720300  1
  C  C215  1  0.94085500  0.49835300  0.43720300  1
  C  C216  1  0.05914500  0.50164700  0.43720300  1
  C  C217  1  0.44090400  0.99842900  0.55780800  1
  C  C218  1  0.55909600  0.00157100  0.55780800  1
  C  C219  1  0.94090400  0.49842900  0.55780800  1
  C  C220  1  0.05909600  0.50157100  0.55780800  1
  C  C221  1  0.94090400  0.99842900  0.05780800  1
  C  C222  1  0.05909600  0.00157100  0.05780800  1
  C  C223  1  0.44090400  0.49842900  0.05780800  1
  C  C224  1  0.55909600  0.50157100  0.05780800  1
  C  C225  1  0.13100700  0.08354900  0.81607000  1
  C  C226  1  0.09904500  0.15121500  0.78819600  1
  C  C227  1  0.86899300  0.91645100  0.81607000  1
  C  C228  1  0.90095500  0.84878500  0.78819600  1
  C  C229  1  0.63100700  0.58354900  0.81607000  1
  C  C230  1  0.59904500  0.65121500  0.78819600  1
  C  C231  1  0.36899300  0.41645100  0.81607000  1
  C  C232  1  0.40095500  0.34878500  0.78819600  1
  C  C233  1  0.63100700  0.08354900  0.31607000  1
  C  C234  1  0.59904500  0.15121500  0.28819600  1
  C  C235  1  0.36899300  0.91645100  0.31607000  1
  C  C236  1  0.40095500  0.84878500  0.28819600  1
  C  C237  1  0.13100700  0.58354900  0.31607000  1
  C  C238  1  0.09904500  0.65121500  0.28819600  1
  C  C239  1  0.86899300  0.41645100  0.31607000  1
  C  C240  1  0.90095500  0.34878500  0.28819600  1
  O  O1  1  0.32064500  0.99559700  0.72805900  1
  O  O2  1  0.67935500  0.00440300  0.72805900  1
  O  O3  1  0.82064500  0.49559700  0.72805900  1
  O  O4  1  0.17935500  0.50440300  0.72805900  1
  O  O5  1  0.82064500  0.99559700  0.22805900  1
  O  O6  1  0.17935500  0.00440300  0.22805900  1
  O  O7  1  0.32064500  0.49559700  0.22805900  1
  O  O8  1  0.67935500  0.50440300  0.22805900  1
  O  O9  1  0.26917300  0.00093400  0.67416700  1
  O  O10  1  0.73082700  0.99906600  0.67416700  1
  O  O11  1  0.76917300  0.50093400  0.67416700  1
  O  O12  1  0.23082700  0.49906600  0.67416700  1
  O  O13  1  0.76917300  0.00093400  0.17416700  1
  O  O14  1  0.23082700  0.99906600  0.17416700  1
  O  O15  1  0.26917300  0.50093400  0.17416700  1
  O  O16  1  0.73082700  0.49906600  0.17416700  1
  O  O17  1  0.27360300  0.93013100  0.77567300  1
  O  O18  1  0.72639700  0.06986900  0.77567300  1
  O  O19  1  0.72318800  0.93273000  0.77408700  1
  O  O20  1  0.27681200  0.06727000  0.77408700  1
  O  O21  1  0.77360300  0.43013100  0.77567300  1
  O  O22  1  0.22639700  0.56986900  0.77567300  1
  O  O23  1  0.22318800  0.43273000  0.77408700  1
  O  O24  1  0.77681200  0.56727000  0.77408700  1
  O  O25  1  0.77360300  0.93013100  0.27567300  1
  O  O26  1  0.22639700  0.06986900  0.27567300  1
  O  O27  1  0.22318800  0.93273000  0.27408700  1
  O  O28  1  0.77681200  0.06727000  0.27408700  1
  O  O29  1  0.27360300  0.43013100  0.27567300  1
  O  O30  1  0.72639700  0.56986900  0.27567300  1
  O  O31  1  0.72318800  0.43273000  0.27408700  1
  O  O32  1  0.27681200  0.56727000  0.27408700  1
  O  O33  1  0.22345000  0.93281300  0.72041700  1
  O  O34  1  0.77655000  0.06718700  0.72041700  1
  O  O35  1  0.77354300  0.93004500  0.71893800  1
  O  O36  1  0.22645700  0.06995500  0.71893800  1
  O  O37  1  0.72345000  0.43281300  0.72041700  1
  O  O38  1  0.27655000  0.56718700  0.72041700  1
  O  O39  1  0.27354300  0.43004500  0.71893800  1
  O  O40  1  0.72645700  0.56995500  0.71893800  1
  O  O41  1  0.72345000  0.93281300  0.22041700  1
  O  O42  1  0.27655000  0.06718700  0.22041700  1
  O  O43  1  0.27354300  0.93004500  0.21893800  1
  O  O44  1  0.72645700  0.06995500  0.21893800  1
  O  O45  1  0.22345000  0.43281300  0.22041700  1
  O  O46  1  0.77655000  0.56718700  0.22041700  1
  O  O47  1  0.77354300  0.43004500  0.21893800  1
  O  O48  1  0.22645700  0.56995500  0.21893800  1
  O  O49  1  0.23093700  0.99933100  0.82046700  1
  O  O50  1  0.76906300  0.00066900  0.82046700  1
  O  O51  1  0.73093700  0.49933100  0.82046700  1
  O  O52  1  0.26906300  0.50066900  0.82046700  1
  O  O53  1  0.73093700  0.99933100  0.32046700  1
  O  O54  1  0.26906300  0.00066900  0.32046700  1
  O  O55  1  0.23093700  0.49933100  0.32046700  1
  O  O56  1  0.76906300  0.50066900  0.32046700  1
  O  O57  1  0.17948900  0.00439000  0.76650000  1
  O  O58  1  0.82051100  0.99561000  0.76650000  1
  O  O59  1  0.67948900  0.50439000  0.76650000  1
  O  O60  1  0.32051100  0.49561000  0.76650000  1
  O  O61  1  0.67948900  0.00439000  0.26650000  1
  O  O62  1  0.32051100  0.99561000  0.26650000  1
  O  O63  1  0.17948900  0.50439000  0.26650000  1
  O  O64  1  0.82051100  0.49561000  0.26650000  1
  O  O65  1  0.95771200  0.95956500  0.95084000  1
  O  O66  1  0.04228800  0.04043500  0.95084000  1
  O  O67  1  0.04791800  0.96121200  0.95228900  1
  O  O68  1  0.95208200  0.03878800  0.95228900  1
  O  O69  1  0.45771200  0.45956500  0.95084000  1
  O  O70  1  0.54228800  0.54043500  0.95084000  1
  O  O71  1  0.54791800  0.46121200  0.95228900  1
  O  O72  1  0.45208200  0.53878800  0.95228900  1
  O  O73  1  0.45771200  0.95956500  0.45084000  1
  O  O74  1  0.54228800  0.04043500  0.45084000  1
  O  O75  1  0.54791800  0.96121200  0.45228900  1
  O  O76  1  0.45208200  0.03878800  0.45228900  1
  O  O77  1  0.95771200  0.45956500  0.45084000  1
  O  O78  1  0.04228800  0.54043500  0.45084000  1
  O  O79  1  0.04791800  0.46121200  0.45228900  1
  O  O80  1  0.95208200  0.53878800  0.45228900  1
  O  O81  1  0.45794500  0.95955100  0.54453100  1
  O  O82  1  0.54205500  0.04044900  0.54453100  1
  O  O83  1  0.54811900  0.96120000  0.54252900  1
  O  O84  1  0.45188200  0.03880000  0.54252800  1
  O  O85  1  0.95794500  0.45955100  0.54453100  1
  O  O86  1  0.04205500  0.54044900  0.54453100  1
  O  O87  1  0.04811800  0.46120000  0.54252800  1
  O  O88  1  0.95188100  0.53880000  0.54252900  1
  O  O89  1  0.95794500  0.95955100  0.04453100  1
  O  O90  1  0.04205500  0.04044900  0.04453100  1
  O  O91  1  0.04811900  0.96120000  0.04252800  1
  O  O92  1  0.95188100  0.03880000  0.04252800  1
  O  O93  1  0.45794500  0.45955100  0.04453100  1
  O  O94  1  0.54205500  0.54044900  0.04453100  1
  O  O95  1  0.54811900  0.46120000  0.04252800  1
  O  O96  1  0.45188100  0.53880000  0.04252800  1
  O  O97  1  0.16409800  0.09346200  0.79730500  1
  O  O98  1  0.09712600  0.11205800  0.81309900  1
  O  O99  1  0.83590200  0.90653800  0.79730500  1
  O  O100  1  0.90287400  0.88794200  0.81309900  1
  O  O101  1  0.66409800  0.59346200  0.79730500  1
  O  O102  1  0.59712600  0.61205800  0.81309900  1
  O  O103  1  0.33590200  0.40653800  0.79730500  1
  O  O104  1  0.40287400  0.38794200  0.81309900  1
  O  O105  1  0.66409800  0.09346200  0.29730500  1
  O  O106  1  0.59712600  0.11205800  0.31309900  1
  O  O107  1  0.33590200  0.90653800  0.29730500  1
  O  O108  1  0.40287400  0.88794200  0.31309900  1
  O  O109  1  0.16409800  0.59346200  0.29730500  1
  O  O110  1  0.09712600  0.61205800  0.31309900  1
  O  O111  1  0.83590200  0.40653800  0.29730500  1
  O  O112  1  0.90287400  0.38794200  0.31309900  1
