# generated using pymatgen
data_FeH10(C3O)8
_symmetry_space_group_name_H-M   'P 1'
_cell_length_a   13.18800400
_cell_length_b   9.38839400
_cell_length_c   19.79346400
_cell_angle_alpha   85.54407900
_cell_angle_beta   98.47502000
_cell_angle_gamma   112.22928300
_symmetry_Int_Tables_number   1
_chemical_formula_structural   FeH10(C3O)8
_chemical_formula_sum   'Fe2 H20 C48 O16'
_cell_volume   2243.15168145
_cell_formula_units_Z   2
loop_
 _symmetry_equiv_pos_site_id
 _symmetry_equiv_pos_as_xyz
  1  'x, y, z'
loop_
 _atom_site_type_symbol
 _atom_site_label
 _atom_site_symmetry_multiplicity
 _atom_site_fract_x
 _atom_site_fract_y
 _atom_site_fract_z
 _atom_site_occupancy
  Fe  Fe1  1  0.48698200  0.98957900  0.13873000  1
  Fe  Fe2  1  0.50070400  0.99513900  0.86057100  1
  H  H1  1  0.10547500  0.93652900  0.83323300  1
  H  H2  1  0.77396400  0.97661100  0.86854400  1
  H  H3  1  0.21439400  0.01645200  0.12998100  1
  H  H4  1  0.06394500  0.03617400  0.17779500  1
  H  H5  1  0.88445800  0.03668700  0.16637700  1
  H  H6  1  0.48763500  0.53136100  0.83537800  1
  H  H7  1  0.49553400  0.27961000  0.66714300  1
  H  H8  1  0.50402600  0.73942700  0.63727200  1
  H  H9  1  0.60280000  0.37361800  0.57839100  1
  H  H10  1  0.60054600  0.36298000  0.45631200  1
  H  H11  1  0.38307900  0.60999200  0.42065500  1
  H  H12  1  0.38538000  0.62068300  0.54275100  1
  H  H13  1  0.48219500  0.24432100  0.36177900  1
  H  H14  1  0.49921400  0.45265300  0.16376000  1
  H  H15  1  0.49019200  0.70391700  0.33186600  1
  H  H16  1  0.06156700  0.17174900  0.78856200  1
  H  H17  1  0.03674000  0.16687700  0.66320600  1
  H  H18  1  0.87983300  0.96134600  0.60265100  1
  H  H19  1  0.74717100  0.76115500  0.66765500  1
  H  H20  1  0.77214900  0.76472400  0.79300700  1
  C  C1  1  0.21057600  0.96662400  0.92683200  1
  C  C2  1  0.11346100  0.95758400  0.88678400  1
  C  C3  1  0.02808200  0.97326400  0.91460500  1
  C  C4  1  0.93249900  0.97117200  0.87358300  1
  C  C5  1  0.84639600  0.97954400  0.90263200  1
  C  C6  1  0.22020600  0.98181400  0.99699200  1
  C  C7  1  0.13292800  0.99178900  0.02568900  1
  C  C8  1  0.03742000  0.98869400  0.98436100  1
  C  C9  1  0.95146100  0.00198200  0.01288000  1
  C  C10  1  0.85538100  0.99714800  0.97232500  1
  C  C11  1  0.76810400  0.00548400  0.00179000  1
  C  C12  1  0.14177200  0.01088500  0.09539700  1
  C  C13  1  0.05604100  0.02303800  0.12327200  1
  C  C14  1  0.96094200  0.01770900  0.08233800  1
  C  C15  1  0.87505600  0.02596300  0.11165100  1
  C  C16  1  0.77754600  0.01745700  0.07223400  1
  C  C17  1  0.68573800  0.01451900  0.10743200  1
  C  C18  1  0.49096500  0.71949900  0.19528900  1
  C  C19  1  0.32564200  0.00523000  0.03960400  1
  C  C20  1  0.48632600  0.19366700  0.23261200  1
  C  C21  1  0.50060000  0.79043000  0.76655500  1
  C  C22  1  0.66242400  0.98185500  0.95962600  1
  C  C23  1  0.49533200  0.26428500  0.80376300  1
  C  C24  1  0.30218000  0.96734400  0.89204900  1
  C  C25  1  0.49386900  0.39225300  0.75644700  1
  C  C26  1  0.49670400  0.38401000  0.68723500  1
  C  C27  1  0.49662200  0.50693600  0.64355800  1
  C  C28  1  0.49847700  0.63988900  0.67002100  1
  C  C29  1  0.49351300  0.64721600  0.73853400  1
  C  C30  1  0.48908200  0.52271800  0.78144900  1
  C  C31  1  0.55289600  0.42384500  0.54421300  1
  C  C32  1  0.55148900  0.41786800  0.47469100  1
  C  C33  1  0.49138300  0.48550100  0.42948900  1
  C  C34  1  0.43297000  0.55974400  0.45483200  1
  C  C35  1  0.43439300  0.56574300  0.52435800  1
  C  C36  1  0.49448800  0.49808900  0.56955600  1
  C  C37  1  0.48775500  0.34389200  0.32905000  1
  C  C38  1  0.49310200  0.33675200  0.26058600  1
  C  C39  1  0.49748800  0.46121100  0.21765900  1
  C  C40  1  0.49231200  0.59148000  0.24260800  1
  C  C41  1  0.48921500  0.59960600  0.31179800  1
  C  C42  1  0.48933800  0.47671200  0.35548900  1
  C  C43  1  0.92019000  0.96601800  0.79891100  1
  C  C44  1  0.99330800  0.08007000  0.76218500  1
  C  C45  1  0.97909000  0.07792200  0.69179000  1
  C  C46  1  0.89103100  0.96291800  0.65783800  1
  C  C47  1  0.81670100  0.85070600  0.69428400  1
  C  C48  1  0.83079100  0.85286000  0.76468100  1
  O  O1  1  0.59588900  0.02768800  0.07404300  1
  O  O2  1  0.50631400  0.71579400  0.13153700  1
  O  O3  1  0.69199400  0.99296400  0.17398000  1
  O  O4  1  0.47420900  0.83798300  0.21548900  1
  O  O5  1  0.33657200  0.90045300  0.08505800  1
  O  O6  1  0.40881900  0.13664100  0.03489400  1
  O  O7  1  0.53656900  0.19786600  0.17951200  1
  O  O8  1  0.42182200  0.06162000  0.25678300  1
  O  O9  1  0.45151600  0.78641000  0.82016700  1
  O  O10  1  0.56411900  0.92244300  0.74178500  1
  O  O11  1  0.65150200  0.08572000  0.91371300  1
  O  O12  1  0.57923300  0.85065200  0.96480000  1
  O  O13  1  0.29633700  0.98760400  0.82544300  1
  O  O14  1  0.51213600  0.14585900  0.78354800  1
  O  O15  1  0.39246000  0.95662300  0.92580100  1
  O  O16  1  0.48035800  0.26817300  0.86757800  1
