# generated using pymatgen
data_ZnH11C18NO5
_symmetry_space_group_name_H-M   'P 1'
_cell_length_a   8.55984000
_cell_length_b   11.07958100
_cell_length_c   14.18582700
_cell_angle_alpha   90.57211100
_cell_angle_beta   92.68227900
_cell_angle_gamma   80.60253400
_symmetry_Int_Tables_number   1
_chemical_formula_structural   ZnH11C18NO5
_chemical_formula_sum   'Zn2 H22 C36 N2 O10'
_cell_volume   1325.86215806
_cell_formula_units_Z   2
loop_
 _symmetry_equiv_pos_site_id
 _symmetry_equiv_pos_as_xyz
  1  'x, y, z'
loop_
 _atom_site_type_symbol
 _atom_site_label
 _atom_site_symmetry_multiplicity
 _atom_site_fract_x
 _atom_site_fract_y
 _atom_site_fract_z
 _atom_site_occupancy
  Zn  Zn1  1  0.50792800  0.48149300  0.89241900  1
  Zn  Zn2  1  0.51695700  0.51427800  0.10126300  1
  H  H1  1  0.01393000  0.57907400  0.95478700  1
  H  H2  1  0.66360000  0.88954000  0.99787200  1
  H  H3  1  0.01099800  0.41663300  0.03917400  1
  H  H4  1  0.36127600  0.10623300  0.99576800  1
  H  H5  1  0.29541100  0.90947900  0.98940700  1
  H  H6  1  0.72946900  0.08629600  0.00421600  1
  H  H7  1  0.73388200  0.36747900  0.56680500  1
  H  H8  1  0.47727600  0.67859800  0.57190200  1
  H  H9  1  0.74185600  0.56689500  0.45087200  1
  H  H10  1  0.57889600  0.68967300  0.42826400  1
  H  H11  1  0.30188600  0.40654000  0.54209100  1
  H  H12  1  0.26042300  0.56533000  0.57789800  1
  H  H13  1  0.27385600  0.48481900  0.39241100  1
  H  H14  1  0.56683300  0.28879500  0.56906100  1
  H  H15  1  0.50375200  0.31700700  0.41341100  1
  H  H16  1  0.30532600  0.63507600  0.43169900  1
  H  H17  1  0.91403800  0.48938700  0.57469600  1
  H  H18  1  0.07112400  0.58725200  0.71187000  1
  H  H19  1  0.86581500  0.75688100  0.79085200  1
  H  H20  1  0.80149100  0.15014700  0.45817600  1
  H  H21  1  0.05912700  0.13952800  0.35791000  1
  H  H22  1  0.03104100  0.35114000  0.26981700  1
  C  C1  1  0.10313600  0.74497800  0.97634300  1
  C  C2  1  0.98381000  0.67610000  0.96584800  1
  C  C3  1  0.82849400  0.72792900  0.97697400  1
  C  C4  1  0.78661500  0.85079500  0.98988100  1
  C  C5  1  0.90090400  0.92366200  0.99186900  1
  C  C6  1  0.05987700  0.87138000  0.98788400  1
  C  C7  1  0.85368000  0.04853100  0.00041800  1
  C  C8  1  0.96500600  0.12438800  0.00576800  1
  C  C9  1  0.12397800  0.07210600  0.00178500  1
  C  C10  1  0.17119900  0.94724200  0.99320000  1
  C  C11  1  0.92175800  0.25077800  0.01738300  1
  C  C12  1  0.04110800  0.31962000  0.02804300  1
  C  C13  1  0.19641400  0.26781300  0.01684300  1
  C  C14  1  0.23827200  0.14496800  0.00381400  1
  C  C15  1  0.31528000  0.34484800  0.01001200  1
  C  C16  1  0.26727400  0.67539100  0.98222400  1
  C  C17  1  0.70959100  0.65092800  0.98370200  1
  C  C18  1  0.75762000  0.32038100  0.01146800  1
  C  C19  1  0.60796200  0.37232100  0.54411600  1
  C  C20  1  0.57349400  0.60016500  0.56172400  1
  C  C21  1  0.61355100  0.59684900  0.45875700  1
  C  C22  1  0.50868000  0.48465100  0.58521900  1
  C  C23  1  0.58834500  0.37802000  0.43744500  1
  C  C24  1  0.51988900  0.50849400  0.40842000  1
  C  C25  1  0.34951700  0.53556400  0.43822600  1
  C  C26  1  0.34327500  0.49619200  0.53996300  1
  C  C27  1  0.52242700  0.52184700  0.30595500  1
  C  C28  1  0.50385300  0.47292300  0.68770500  1
  C  C29  1  0.71041700  0.62012800  0.62605100  1
  C  C30  1  0.86407900  0.55956300  0.62300800  1
  C  C31  1  0.94613200  0.61027500  0.69279700  1
  C  C32  1  0.83790400  0.69835100  0.73322200  1
  C  C33  1  0.74416800  0.33402500  0.39553900  1
  C  C34  1  0.83120400  0.22046700  0.41319600  1
  C  C35  1  0.96229300  0.21509000  0.36210600  1
  C  C36  1  0.94597700  0.32570200  0.31671900  1
  N  N1  1  0.52326100  0.52861500  0.22464000  1
  N  N2  1  0.50166900  0.46712700  0.76903400  1
  O  O1  1  0.36273300  0.39561600  0.08721600  1
  O  O2  1  0.36283100  0.36424100  0.92594900  1
  O  O3  1  0.32137100  0.61679000  0.90601200  1
  O  O4  1  0.33294600  0.64730500  0.06681800  1
  O  O5  1  0.66215400  0.60016200  0.90647500  1
  O  O6  1  0.66203800  0.63153200  0.06774300  1
  O  O7  1  0.70351300  0.37898800  0.08766100  1
  O  O8  1  0.69193900  0.34847000  0.92687800  1
  O  O9  1  0.69419900  0.70515400  0.69278400  1
  O  O10  1  0.81302100  0.39873100  0.33668500  1
