# generated using pymatgen
data_Zn2H9C26N2O8F3
_symmetry_space_group_name_H-M   'P 1'
_cell_length_a   8.70694100
_cell_length_b   13.40010300
_cell_length_c   9.32812800
_cell_angle_alpha   90.00000000
_cell_angle_beta   90.00000000
_cell_angle_gamma   90.00000000
_symmetry_Int_Tables_number   1
_chemical_formula_structural   Zn2H9C26N2O8F3
_chemical_formula_sum   'Zn2 H9 C26 N2 O8 F3'
_cell_volume   1088.34913143
_cell_formula_units_Z   1
loop_
 _symmetry_equiv_pos_site_id
 _symmetry_equiv_pos_as_xyz
  1  'x, y, z'
loop_
 _atom_site_type_symbol
 _atom_site_label
 _atom_site_symmetry_multiplicity
 _atom_site_fract_x
 _atom_site_fract_y
 _atom_site_fract_z
 _atom_site_occupancy
  Zn  Zn1  1  0.50009800  0.51397500  0.83999300  1
  Zn  Zn2  1  0.50009600  0.49262200  0.15523700  1
  H  H1  1  0.24542400  0.84263600  0.99831600  1
  H  H2  1  0.75477200  0.84263400  0.99831800  1
  H  H3  1  0.75493500  0.17080000  0.00995100  1
  H  H4  1  0.00010100  0.57144100  0.05160400  1
  H  H5  1  0.00007800  0.43822400  0.92775200  1
  H  H6  1  0.50009900  0.64078600  0.35490900  1
  H  H7  1  0.50009400  0.31331200  0.77132400  1
  H  H8  1  0.50008900  0.29867500  0.24945900  1
  H  H9  1  0.50008900  0.15699800  0.65160500  1
  C  C1  1  0.13773500  0.70000700  0.01916900  1
  C  C2  1  0.86246300  0.70000500  0.01917000  1
  C  C3  1  0.13800000  0.80254600  0.00596300  1
  C  C4  1  0.86219600  0.80254400  0.00596400  1
  C  C5  1  0.13747700  0.21010300  0.99805500  1
  C  C6  1  0.86262600  0.21007800  0.99805600  1
  C  C7  1  0.13631100  0.31177200  0.97497100  1
  C  C8  1  0.86386500  0.31175900  0.97497800  1
  C  C9  1  0.72121700  0.64077300  0.01022800  1
  C  C10  1  0.27898200  0.64077600  0.01022700  1
  C  C11  1  0.72572500  0.37232900  0.98389400  1
  C  C12  1  0.27446200  0.37233300  0.98389000  1
  C  C13  1  0.00009800  0.85402000  0.00607700  1
  C  C14  1  0.00010000  0.65059000  0.03441200  1
  C  C15  1  0.00009600  0.96122600  0.00531800  1
  C  C16  1  0.00008900  0.05122200  0.00520400  1
  C  C17  1  0.00008700  0.35997500  0.95224800  1
  C  C18  1  0.00006800  0.15838400  0.00102200  1
  C  C19  1  0.50009300  0.31600300  0.65684100  1
  C  C20  1  0.50009000  0.30651200  0.36357100  1
  C  C21  1  0.50009000  0.22491600  0.58907000  1
  C  C22  1  0.50008900  0.22011200  0.44258000  1
  C  C23  1  0.50009300  0.39917000  0.42996800  1
  C  C24  1  0.50009500  0.40459700  0.57862000  1
  C  C25  1  0.50009900  0.57860600  0.56508200  1
  C  C26  1  0.50009800  0.57286800  0.41736700  1
  N  N1  1  0.50009800  0.49500600  0.64481600  1
  N  N2  1  0.50009500  0.48367400  0.35087400  1
  O  O1  1  0.66903000  0.59578900  0.12571700  1
  O  O2  1  0.33515000  0.61716900  0.88357100  1
  O  O3  1  0.66504900  0.61716700  0.88357100  1
  O  O4  1  0.33116700  0.59579100  0.12571600  1
  O  O5  1  0.67638100  0.41939100  0.87011100  1
  O  O6  1  0.33231000  0.39419100  0.10953300  1
  O  O7  1  0.66787500  0.39418800  0.10953600  1
  O  O8  1  0.32381000  0.41939400  0.87010900  1
  F  F1  1  0.27244300  0.16084000  0.01294500  1
  F  F2  1  0.50010100  0.66904000  0.63007200  1
  F  F3  1  0.50008500  0.13034600  0.37570600  1
