# generated using pymatgen
data_ZnH23C32NO8
_symmetry_space_group_name_H-M   'P 1'
_cell_length_a   14.83358500
_cell_length_b   16.04331600
_cell_length_c   17.47437600
_cell_angle_alpha   91.18153400
_cell_angle_beta   99.52555400
_cell_angle_gamma   93.95090700
_symmetry_Int_Tables_number   1
_chemical_formula_structural   ZnH23C32NO8
_chemical_formula_sum   'Zn2 H46 C64 N2 O16'
_cell_volume   4089.29713301
_cell_formula_units_Z   2
loop_
 _symmetry_equiv_pos_site_id
 _symmetry_equiv_pos_as_xyz
  1  'x, y, z'
loop_
 _atom_site_type_symbol
 _atom_site_label
 _atom_site_symmetry_multiplicity
 _atom_site_fract_x
 _atom_site_fract_y
 _atom_site_fract_z
 _atom_site_occupancy
  Zn  Zn1  1  0.60124600  0.48729600  0.51287300  1
  Zn  Zn2  1  0.40228000  0.52892300  0.47439200  1
  H  H1  1  0.38174000  0.54101400  0.22873400  1
  H  H2  1  0.62180900  0.47525400  0.75856600  1
  H  H3  1  0.34320800  0.53940600  0.71030000  1
  H  H4  1  0.66026500  0.47664800  0.27701300  1
  H  H5  1  0.39681200  0.49751900  0.97734900  1
  H  H6  1  0.60678200  0.51877500  0.00999600  1
  H  H7  1  0.66748400  0.47934700  0.13907600  1
  H  H8  1  0.33605600  0.53682700  0.84825800  1
  H  H9  1  0.61399500  0.47069800  0.89423100  1
  H  H10  1  0.38961600  0.54567300  0.09309300  1
  H  H11  1  0.55244400  0.22032000  0.50527800  1
  H  H12  1  0.44987300  0.79395300  0.48155300  1
  H  H13  1  0.27866300  0.28031900  0.43784300  1
  H  H14  1  0.72565200  0.73732900  0.53981300  1
  H  H15  1  0.77452200  0.88145800  0.55589000  1
  H  H16  1  0.22752900  0.13698000  0.42428300  1
  H  H17  1  0.63264100  0.13203200  0.55677100  1
  H  H18  1  0.35955400  0.88333400  0.46678900  1
  H  H19  1  0.98048500  0.65251500  0.34063000  1
  H  H20  1  0.03022200  0.41097200  0.67393600  1
  H  H21  1  0.76880900  0.53032600  0.45123500  1
  H  H22  1  0.23075300  0.47821200  0.52975600  1
  H  H23  1  0.70365400  0.38602700  0.63072100  1
  H  H24  1  0.30147700  0.63131100  0.35737200  1
  H  H25  1  0.86776600  0.59347700  0.40247400  1
  H  H26  1  0.14132300  0.46645300  0.60821900  1
  H  H27  1  0.10982400  0.68808400  0.13886400  1
  H  H28  1  0.03857000  0.75551700  0.18366400  1
  H  H29  1  0.97764300  0.58340900  0.10474200  1
  H  H30  1  0.95195700  0.68377300  0.06425300  1
  H  H31  1  0.90659400  0.65046200  0.14965500  1
  H  H32  1  0.89911300  0.19322600  0.75566600  1
  H  H33  1  0.96492700  0.27865000  0.81379600  1
  H  H34  1  0.04003500  0.17218100  0.69439700  1
  H  H35  1  0.05561600  0.15409500  0.79767100  1
  H  H36  1  0.10232500  0.25047200  0.76248700  1
  H  H37  1  0.88996300  0.03264700  0.75021700  1
  H  H38  1  0.92632800  0.05769400  0.65921600  1
  H  H39  1  0.90332700  0.88222500  0.72223000  1
  H  H40  1  0.01056600  0.94356900  0.72228300  1
  H  H41  1  0.94014100  0.90801700  0.63128200  1
  H  H42  1  0.07166400  0.91651300  0.47912800  1
  H  H43  1  0.05025900  0.99118000  0.40270200  1
  H  H44  1  0.05575600  0.02732900  0.57667900  1
  H  H45  1  0.95314600  0.00941100  0.50442400  1
  H  H46  1  0.03148600  0.10014500  0.49949800  1
  C  C1  1  0.55322600  0.66808900  0.50484000  1
  C  C2  1  0.45021100  0.34810600  0.48210300  1
  C  C3  1  0.51476300  0.50684500  0.34599100  1
  C  C4  1  0.48872500  0.50928200  0.64128900  1
  C  C5  1  0.52011700  0.50760300  0.26295900  1
  C  C6  1  0.48339200  0.50855400  0.72434000  1
  C  C7  1  0.44485200  0.52642000  0.20997400  1
  C  C8  1  0.55869400  0.48982600  0.77733400  1
  C  C9  1  0.44911600  0.52800600  0.13184900  1
  C  C10  1  0.55446300  0.48829800  0.85547200  1
  C  C11  1  0.52885600  0.51005300  0.10537800  1
  C  C12  1  0.47471800  0.50622100  0.88195200  1
  C  C13  1  0.60437900  0.49258100  0.15863000  1
  C  C14  1  0.39916300  0.52361300  0.82869700  1
  C  C15  1  0.60016100  0.49095400  0.23685800  1
  C  C16  1  0.40334400  0.52517300  0.75045600  1
  C  C17  1  0.53782400  0.51177700  0.02261400  1
  C  C18  1  0.46576600  0.50452600  0.96472300  1
  C  C19  1  0.58279400  0.75763500  0.51261900  1
  C  C20  1  0.41973000  0.25864000  0.47604400  1
  C  C21  1  0.70174700  0.86560000  0.54311800  1
  C  C22  1  0.29911300  0.15166700  0.44659500  1
  C  C23  1  0.67425400  0.78236400  0.53224400  1
  C  C24  1  0.32842500  0.23475000  0.45299100  1
  C  C25  1  0.51953700  0.81741500  0.49989800  1
  C  C26  1  0.48160800  0.19812200  0.49228000  1
  C  C27  1  0.54608200  0.90298900  0.51067000  1
  C  C28  1  0.45266900  0.11287000  0.48936400  1
  C  C29  1  0.63835500  0.92593400  0.53619300  1
  C  C30  1  0.35979600  0.09038700  0.46624400  1
  C  C31  1  0.48337700  0.96571000  0.49657200  1
  C  C32  1  0.51433500  0.04999600  0.50727200  1
  C  C33  1  0.60599600  0.06970300  0.53833900  1
  C  C34  1  0.38998200  0.94608600  0.47288400  1
  C  C35  1  0.66696400  0.00913800  0.55346100  1
  C  C36  1  0.32878100  0.00668800  0.46023300  1
  C  C37  1  0.15893400  0.62242500  0.36390400  1
  C  C38  1  0.84703400  0.40014500  0.62653400  1
  C  C39  1  0.24885800  0.60653100  0.38839900  1
  C  C40  1  0.75644800  0.41374900  0.60142800  1
  C  C41  1  0.20761100  0.52172500  0.48614200  1
  C  C42  1  0.79504200  0.49495400  0.50030700  1
  C  C43  1  0.11613100  0.54053400  0.46775900  1
  C  C44  1  0.88845500  0.48563700  0.52392300  1
  C  C45  1  0.09189200  0.59019500  0.40468700  1
  C  C46  1  0.91409600  0.43894600  0.58906100  1
  C  C47  1  0.04861900  0.50972400  0.51002400  1
  C  C48  1  0.95653800  0.52268100  0.48501800  1
  C  C49  1  0.93532700  0.57473300  0.42298700  1
  C  C50  1  0.07188500  0.46989300  0.57940400  1
  C  C51  1  0.00195800  0.60940800  0.38529000  1
  C  C52  1  0.00610400  0.43644200  0.61845200  1
  C  C53  1  0.13868600  0.67133500  0.29356400  1
  C  C54  1  0.05054400  0.68977200  0.16998900  1
  C  C55  1  0.96602500  0.64914300  0.11870900  1
  C  C56  1  0.86727100  0.34427700  0.69234100  1
  C  C57  1  0.95610500  0.24221100  0.75807400  1
  C  C58  1  0.04432100  0.20191600  0.75282300  1
  C  C59  1  0.76059300  0.03585300  0.59228200  1
  C  C60  1  0.88952100  0.01008800  0.68975100  1
  C  C61  1  0.93919200  0.93065200  0.69151000  1
  C  C62  1  0.23093000  0.97827300  0.44127400  1
  C  C63  1  0.07869400  0.98343100  0.46476700  1
  C  C64  1  0.02620800  0.03341000  0.51465500  1
  N  N1  1  0.27135400  0.55586000  0.44749200  1
  N  N2  1  0.73232500  0.46083700  0.53998300  1
  O  O1  1  0.61603400  0.61387700  0.51635800  1
  O  O2  1  0.38735500  0.40236500  0.47071800  1
  O  O3  1  0.46534000  0.64561600  0.48812400  1
  O  O4  1  0.53830500  0.37047800  0.49919200  1
  O  O5  1  0.58769100  0.49101900  0.39568800  1
  O  O6  1  0.41585800  0.52509200  0.59157100  1
  O  O7  1  0.43682800  0.52291000  0.36714600  1
  O  O8  1  0.56665500  0.49340300  0.62009900  1
  O  O9  1  0.19205300  0.72943900  0.28266900  1
  O  O10  1  0.06742800  0.64692200  0.23733800  1
  O  O11  1  0.81598100  0.33894100  0.74012100  1
  O  O12  1  0.93735900  0.29433500  0.69720500  1
  O  O13  1  0.79806600  0.10069100  0.57383700  1
  O  O14  1  0.80040400  0.99332600  0.65339600  1
  O  O15  1  0.20660400  0.91910300  0.39586400  1
  O  O16  1  0.16936000  0.01197600  0.47921800  1
