# generated using pymatgen
data_CuH11C17(NO2)2
_symmetry_space_group_name_H-M   'P 1'
_cell_length_a   17.68799400
_cell_length_b   16.25250800
_cell_length_c   11.04632600
_cell_angle_alpha   90.00000000
_cell_angle_beta   90.00154100
_cell_angle_gamma   90.00000000
_symmetry_Int_Tables_number   1
_chemical_formula_structural   CuH11C17(NO2)2
_chemical_formula_sum   'Cu2 H22 C34 N4 O8'
_cell_volume   3175.53443548
_cell_formula_units_Z   2
loop_
 _symmetry_equiv_pos_site_id
 _symmetry_equiv_pos_as_xyz
  1  'x, y, z'
loop_
 _atom_site_type_symbol
 _atom_site_label
 _atom_site_symmetry_multiplicity
 _atom_site_fract_x
 _atom_site_fract_y
 _atom_site_fract_z
 _atom_site_occupancy
  Cu  Cu1  1  0.50010300  0.58291400  0.49979000  1
  Cu  Cu2  1  0.49986700  0.41826000  0.50070900  1
  H  H1  1  0.50278300  0.37589700  0.88836700  1
  H  H2  1  0.50633400  0.37554000  0.11136900  1
  H  H3  1  0.50117300  0.56437200  0.90528700  1
  H  H4  1  0.49401200  0.56345600  0.09560600  1
  H  H5  1  0.87613200  0.63158800  0.49917000  1
  H  H6  1  0.12360700  0.63197100  0.48955900  1
  H  H7  1  0.73828500  0.63217600  0.49862700  1
  H  H8  1  0.26149300  0.63287300  0.49028500  1
  H  H9  1  0.73877000  0.36850200  0.49726400  1
  H  H10  1  0.26141900  0.36968100  0.51387700  1
  H  H11  1  0.87664800  0.36970200  0.49809900  1
  H  H12  1  0.12359300  0.37053300  0.51274100  1
  H  H13  1  0.58354200  0.86484600  0.63774100  1
  H  H14  1  0.41320900  0.86433700  0.36550700  1
  H  H15  1  0.58328600  0.71378200  0.63572600  1
  H  H16  1  0.41492900  0.71339500  0.36642000  1
  H  H17  1  0.58512400  0.13444800  0.63425300  1
  H  H18  1  0.41559600  0.13593600  0.36257800  1
  H  H19  1  0.58447600  0.27517200  0.74276700  1
  H  H20  1  0.65194100  0.27588000  0.63461900  1
  H  H21  1  0.34888300  0.27732400  0.36537300  1
  H  H22  1  0.41656100  0.27876300  0.25750800  1
  C  C1  1  0.35459300  0.50120100  0.50173000  1
  C  C2  1  0.64538300  0.50020900  0.49853100  1
  C  C3  1  0.49914300  0.50042100  0.26770700  1
  C  C4  1  0.50074900  0.50117700  0.73283900  1
  C  C5  1  0.50210300  0.43525700  0.93296100  1
  C  C6  1  0.50262400  0.43490900  0.06719600  1
  C  C7  1  0.50128500  0.50378000  0.86546100  1
  C  C8  1  0.49840300  0.50297500  0.13513700  1
  C  C9  1  0.84565800  0.57393500  0.49872100  1
  C  C10  1  0.15417900  0.57449200  0.49491200  1
  C  C11  1  0.76770100  0.57390900  0.49833000  1
  C  C12  1  0.23215200  0.57466700  0.49538800  1
  C  C13  1  0.72835200  0.50029400  0.49812500  1
  C  C14  1  0.27162500  0.50126800  0.50199600  1
  C  C15  1  0.76797900  0.42686800  0.49791500  1
  C  C16  1  0.23212700  0.42788700  0.50840000  1
  C  C17  1  0.84595000  0.42721600  0.49821300  1
  C  C18  1  0.15417500  0.42802800  0.50787700  1
  C  C19  1  0.88479400  0.50067600  0.49875100  1
  C  C20  1  0.11518600  0.50123600  0.50104200  1
  C  C21  1  0.96592500  0.50091500  0.49951400  1
  C  C22  1  0.03405300  0.50112000  0.50021700  1
  C  C23  1  0.54618600  0.83201100  0.57720600  1
  C  C24  1  0.45119900  0.83173600  0.42530800  1
  C  C25  1  0.54594400  0.74715100  0.57582800  1
  C  C26  1  0.45235600  0.74690400  0.42597200  1
  C  C27  1  0.49881400  0.87465900  0.50085700  1
  C  C28  1  0.49907300  0.96295500  0.49997700  1
  C  C29  1  0.49946300  0.03709900  0.49923700  1
  C  C30  1  0.54759500  0.16777400  0.57455800  1
  C  C31  1  0.45311700  0.16859500  0.42309800  1
  C  C32  1  0.54721500  0.25264700  0.57479400  1
  C  C33  1  0.45362300  0.25350900  0.42479500  1
  C  C34  1  0.50006700  0.12539800  0.49884000  1
  N  N1  1  0.50044000  0.70594600  0.49899600  1
  N  N2  1  0.49960300  0.29502400  0.50158000  1
  N  N3  1  0.59694600  0.29467400  0.65494800  1
  N  N4  1  0.40385300  0.29666900  0.34597100  1
  O  O1  1  0.39017900  0.57180700  0.49679200  1
  O  O2  1  0.60990100  0.57086500  0.49434500  1
  O  O3  1  0.39006600  0.43049400  0.50600300  1
  O  O4  1  0.60979000  0.42961400  0.50363600  1
  O  O5  1  0.49668700  0.57106300  0.32406500  1
  O  O6  1  0.49819000  0.57160700  0.67570800  1
  O  O7  1  0.50200200  0.42965600  0.32459900  1
  O  O8  1  0.50299600  0.43023100  0.67664500  1
