# generated using pymatgen
data_CuH8C10NO4
_symmetry_space_group_name_H-M   'P 1'
_cell_length_a   14.40673100
_cell_length_b   11.12642200
_cell_length_c   9.63781300
_cell_angle_alpha   111.89963100
_cell_angle_beta   98.93187700
_cell_angle_gamma   90.00430900
_symmetry_Int_Tables_number   1
_chemical_formula_structural   CuH8C10NO4
_chemical_formula_sum   'Cu2 H16 C20 N2 O8'
_cell_volume   1413.19654880
_cell_formula_units_Z   2
loop_
 _symmetry_equiv_pos_site_id
 _symmetry_equiv_pos_as_xyz
  1  'x, y, z'
loop_
 _atom_site_type_symbol
 _atom_site_label
 _atom_site_symmetry_multiplicity
 _atom_site_fract_x
 _atom_site_fract_y
 _atom_site_fract_z
 _atom_site_occupancy
  Cu  Cu1  1  0.51517200  0.52257700  0.64850800  1
  Cu  Cu2  1  0.48455100  0.47533300  0.35176100  1
  H  H1  1  0.59381800  0.61352000  0.94726800  1
  H  H2  1  0.41323900  0.37178400  0.05216600  1
  H  H3  1  0.45323000  0.86043500  0.39093300  1
  H  H4  1  0.54651300  0.13765800  0.61141800  1
  H  H5  1  0.43541100  0.41662000  0.84153900  1
  H  H6  1  0.55781700  0.58773100  0.15687500  1
  H  H7  1  0.59821100  0.88663300  0.90068200  1
  H  H8  1  0.68414800  0.82703500  0.77233000  1
  H  H9  1  0.70349600  0.98267200  0.92525200  1
  H  H10  1  0.65262200  0.02590900  0.70291100  1
  H  H11  1  0.55450900  0.05326900  0.80434600  1
  H  H12  1  0.31742800  0.16787800  0.22050200  1
  H  H13  1  0.40671000  0.11221000  0.09847800  1
  H  H14  1  0.30312300  0.01120000  0.06973200  1
  H  H15  1  0.45043100  0.94579300  0.19844400  1
  H  H16  1  0.35040600  0.97324200  0.29548600  1
  C  C1  1  0.47893300  0.25370500  0.43693800  1
  C  C2  1  0.52142200  0.74569700  0.56372600  1
  C  C3  1  0.32243900  0.51725300  0.50814300  1
  C  C4  1  0.67616900  0.48228400  0.49294000  1
  C  C5  1  0.22328500  0.51630300  0.50909300  1
  C  C6  1  0.77580100  0.48279100  0.49254300  1
  C  C7  1  0.13953500  0.51190000  0.50611300  1
  C  C8  1  0.85950100  0.48785600  0.49424700  1
  C  C9  1  0.04125800  0.50454100  0.50209800  1
  C  C10  1  0.95751900  0.49701500  0.49891100  1
  C  C11  1  0.46538500  0.11305000  0.40440800  1
  C  C12  1  0.53616300  0.88581600  0.59656600  1
  C  C13  1  0.50528700  0.06843700  0.50985200  1
  C  C14  1  0.49552600  0.92998300  0.49137000  1
  C  C15  1  0.50731700  0.51053700  0.07989900  1
  C  C16  1  0.49120600  0.48630000  0.91802000  1
  C  C17  1  0.59802800  0.97783100  0.73775700  1
  C  C18  1  0.64861300  0.91301000  0.83907100  1
  C  C19  1  0.40549400  0.02075000  0.26175400  1
  C  C20  1  0.35584400  0.08347500  0.15771900  1
  N  N1  1  0.45700600  0.44777500  0.13163300  1
  N  N2  1  0.54045100  0.55277000  0.86907300  1
  O  O1  1  0.49486600  0.33295000  0.57903400  1
  O  O2  1  0.50259800  0.66639600  0.42113900  1
  O  O3  1  0.47430300  0.29529800  0.32556200  1
  O  O4  1  0.52620000  0.70379700  0.67508700  1
  O  O5  1  0.37941500  0.52831100  0.63253600  1
  O  O6  1  0.61949300  0.47309300  0.36835700  1
  O  O7  1  0.35159600  0.49882100  0.38034700  1
  O  O8  1  0.64711300  0.49886900  0.62038000  1
