# generated using pymatgen
data_ZnH21C27NO5
_symmetry_space_group_name_H-M   'P 1'
_cell_length_a   14.81192700
_cell_length_b   15.95095700
_cell_length_c   17.47912900
_cell_angle_alpha   90.00674200
_cell_angle_beta   86.38854100
_cell_angle_gamma   90.04402600
_symmetry_Int_Tables_number   1
_chemical_formula_structural   ZnH21C27NO5
_chemical_formula_sum   'Zn2 H42 C54 N2 O10'
_cell_volume   4121.49393063
_cell_formula_units_Z   2
loop_
 _symmetry_equiv_pos_site_id
 _symmetry_equiv_pos_as_xyz
  1  'x, y, z'
loop_
 _atom_site_type_symbol
 _atom_site_label
 _atom_site_symmetry_multiplicity
 _atom_site_fract_x
 _atom_site_fract_y
 _atom_site_fract_z
 _atom_site_occupancy
  Zn  Zn1  1  0.39993000  0.50363700  0.49707400  1
  Zn  Zn2  1  0.60552500  0.50408200  0.49557300  1
  H  H1  1  0.63107700  0.49222400  0.73873600  1
  H  H2  1  0.37416600  0.51129400  0.25391300  1
  H  H3  1  0.66332600  0.50782800  0.24984200  1
  H  H4  1  0.60020900  0.53398100  0.99265100  1
  H  H5  1  0.33488500  0.49660500  0.88176500  1
  H  H6  1  0.38113600  0.51573900  0.11646100  1
  H  H7  1  0.34205700  0.50083800  0.74267100  1
  H  H8  1  0.40473400  0.46990600  0.99969300  1
  H  H9  1  0.62378400  0.48590100  0.87623000  1
  H  H10  1  0.67028500  0.51039800  0.11070800  1
  H  H11  1  0.46550800  0.07555200  0.37907300  1
  H  H12  1  0.48184100  0.93554400  0.37772100  1
  H  H13  1  0.63603300  0.94025200  0.53797100  1
  H  H14  1  0.63240200  0.92682100  0.43560600  1
  H  H15  1  0.61894300  0.06656700  0.41632000  1
  H  H16  1  0.64619500  0.08009600  0.51471700  1
  H  H17  1  0.38590600  0.94159700  0.57753900  1
  H  H18  1  0.49121500  0.92820100  0.62204900  1
  H  H19  1  0.37878300  0.92849500  0.43843200  1
  H  H20  1  0.37135000  0.06988700  0.44817100  1
  H  H21  1  0.53001300  0.06190200  0.61377300  1
  H  H22  1  0.07651300  0.61877700  0.43539700  1
  H  H23  1  0.92385500  0.62812100  0.45221800  1
  H  H24  1  0.94878200  0.50719000  0.37386600  1
  H  H25  1  0.09902400  0.47615100  0.37611500  1
  H  H26  1  0.07807700  0.38563700  0.43675500  1
  H  H27  1  0.91214000  0.48246000  0.61699400  1
  H  H28  1  0.92812800  0.38704100  0.56381100  1
  H  H29  1  0.06231000  0.50179100  0.61984600  1
  H  H30  1  0.92668300  0.61777500  0.55471900  1
  H  H31  1  0.07876200  0.63028600  0.53812500  1
  H  H32  1  0.07761100  0.39931500  0.57697700  1
  H  H33  1  0.25307000  0.13362100  0.71101000  1
  H  H34  1  0.25274800  0.22916300  0.81987100  1
  H  H35  1  0.39116300  0.30479800  0.84863600  1
  H  H36  1  0.53026900  0.28554300  0.76642400  1
  H  H37  1  0.53248800  0.19187200  0.65700100  1
  H  H38  1  0.88740800  0.21883300  0.35991500  1
  H  H39  1  0.92710200  0.14849800  0.23901700  1
  H  H40  1  0.00881600  0.22405400  0.13349100  1
  H  H41  1  0.05001700  0.37189600  0.14968800  1
  H  H42  1  0.01065100  0.44430200  0.26870800  1
  C  C1  1  0.50172600  0.66766800  0.49911900  1
  C  C2  1  0.49212000  0.50060800  0.64639400  1
  C  C3  1  0.50373100  0.34009100  0.49353900  1
  C  C4  1  0.51332400  0.50691200  0.34624500  1
  C  C5  1  0.48719400  0.49801000  0.73043500  1
  C  C6  1  0.56544400  0.49408000  0.76937000  1
  C  C7  1  0.56115200  0.49154400  0.84836300  1
  C  C8  1  0.47821200  0.49362400  0.88965400  1
  C  C9  1  0.40019100  0.49599600  0.85047800  1
  C  C10  1  0.40441200  0.49847900  0.77150700  1
  C  C11  1  0.44395700  0.51173800  0.14424000  1
  C  C12  1  0.43981100  0.51031600  0.22325700  1
  C  C13  1  0.60090500  0.50876800  0.22103000  1
  C  C14  1  0.60499300  0.51030200  0.14203000  1
  C  C15  1  0.52689600  0.51073000  0.10287600  1
  C  C16  1  0.46923500  0.49059300  0.97409400  1
  C  C17  1  0.53581900  0.51315300  0.01839100  1
  C  C18  1  0.51816700  0.50848100  0.26217300  1
  C  C19  1  0.44795100  0.95538700  0.43315200  1
  C  C20  1  0.59848700  0.95650000  0.48709000  1
  C  C21  1  0.59796700  0.05086600  0.47664200  1
  C  C22  1  0.50373800  0.25021600  0.49347200  1
  C  C23  1  0.50185300  0.92480300  0.49840800  1
  C  C24  1  0.44232800  0.05006600  0.43598200  1
  C  C25  1  0.50312000  0.08308600  0.49617500  1
  C  C26  1  0.47340900  0.05198000  0.57646800  1
  C  C27  1  0.45876500  0.95786300  0.57341500  1
  C  C28  1  0.50352900  0.17471400  0.49437600  1
  C  C29  1  0.50171200  0.83313400  0.49941800  1
  C  C30  1  0.50167500  0.75760800  0.49960400  1
  C  C31  1  0.95067200  0.59018700  0.49885800  1
  C  C32  1  0.96018600  0.46174700  0.42017000  1
  C  C33  1  0.06112700  0.45259300  0.42845200  1
  C  C34  1  0.91762700  0.50034700  0.49421100  1
  C  C35  1  0.05308100  0.59147500  0.49153700  1
  C  C36  1  0.08811300  0.50263400  0.49708800  1
  C  C37  1  0.04775200  0.46234300  0.56984100  1
  C  C38  1  0.94646600  0.45422100  0.56499500  1
  C  C39  1  0.18673700  0.50376900  0.49832000  1
  C  C40  1  0.81875900  0.50211400  0.49377900  1
  C  C41  1  0.39036000  0.09660500  0.61002100  1
  C  C42  1  0.39315700  0.15363700  0.67649300  1
  C  C43  1  0.31470800  0.16639000  0.72232700  1
  C  C44  1  0.31419400  0.22018100  0.78409700  1
  C  C45  1  0.39169400  0.26254400  0.80027200  1
  C  C46  1  0.46971300  0.25139500  0.75437100  1
  C  C47  1  0.47072600  0.19729700  0.69276200  1
  C  C48  1  0.92087600  0.37810900  0.39867900  1
  C  C49  1  0.94651600  0.33699600  0.32459400  1
  C  C50  1  0.92299800  0.25381900  0.31446000  1
  C  C51  1  0.94548000  0.21349600  0.24614800  1
  C  C52  1  0.99130000  0.25573100  0.18704600  1
  C  C53  1  0.01447300  0.33851500  0.19623400  1
  C  C54  1  0.99224100  0.37918600  0.26444300  1
  N  N1  1  0.26479200  0.50434200  0.49888200  1
  N  N2  1  0.74066600  0.50334400  0.49372800  1
  O  O1  1  0.42374000  0.62866500  0.49944700  1
  O  O2  1  0.57982900  0.62882500  0.49748000  1
  O  O3  1  0.41635400  0.50162800  0.61126000  1
  O  O4  1  0.57224800  0.50133600  0.60976000  1
  O  O5  1  0.42562700  0.37890200  0.49520500  1
  O  O6  1  0.58171800  0.37906100  0.49319700  1
  O  O7  1  0.43321600  0.50628600  0.38289100  1
  O  O8  1  0.58909400  0.50604500  0.38138300  1
  O  O9  1  0.31730200  0.08241600  0.58419300  1
  O  O10  1  0.86800700  0.34177500  0.44354300  1
