# generated using pymatgen
data_FeH11C16NO4
_symmetry_space_group_name_H-M   'P 1'
_cell_length_a   8.60826700
_cell_length_b   14.20645600
_cell_length_c   15.21547300
_cell_angle_alpha   90.00000000
_cell_angle_beta   90.00000000
_cell_angle_gamma   90.00000000
_symmetry_Int_Tables_number   1
_chemical_formula_structural   FeH11C16NO4
_chemical_formula_sum   'Fe2 H22 C32 N2 O8'
_cell_volume   1860.74532792
_cell_formula_units_Z   2
loop_
 _symmetry_equiv_pos_site_id
 _symmetry_equiv_pos_as_xyz
  1  'x, y, z'
loop_
 _atom_site_type_symbol
 _atom_site_label
 _atom_site_symmetry_multiplicity
 _atom_site_fract_x
 _atom_site_fract_y
 _atom_site_fract_z
 _atom_site_occupancy
  Fe  Fe1  1  0.00078800  0.10153600  0.00667800  1
  Fe  Fe2  1  0.00150400  0.89895300  0.99330600  1
  H  H1  1  0.79559000  0.58502900  0.07714500  1
  H  H2  1  0.79549500  0.57469600  0.91367400  1
  H  H3  1  0.79428800  0.41639000  0.92339100  1
  H  H4  1  0.79428400  0.42664800  0.08576200  1
  H  H5  1  0.97573100  0.41176700  0.86393800  1
  H  H6  1  0.97577100  0.42997700  0.14535500  1
  H  H7  1  0.97764800  0.58830900  0.13608700  1
  H  H8  1  0.97750700  0.57010000  0.85466700  1
  H  H9  1  0.22584300  0.42502500  0.06422300  1
  H  H10  1  0.22640100  0.41663200  0.94574700  1
  H  H11  1  0.22652800  0.57490000  0.93577900  1
  H  H12  1  0.22713100  0.58329000  0.05424700  1
  H  H13  1  0.50388700  0.96567500  0.06279500  1
  H  H14  1  0.50402200  0.03555500  0.93703500  1
  H  H15  1  0.25077000  0.00181600  0.29854200  1
  H  H16  1  0.25108900  0.99517800  0.70148000  1
  H  H17  1  0.74941100  0.00442400  0.30096700  1
  H  H18  1  0.74976300  0.99778400  0.69914200  1
  H  H19  1  0.70227000  0.91307200  0.42038200  1
  H  H20  1  0.70156000  0.91178900  0.57934900  1
  H  H21  1  0.29516900  0.08471000  0.57979100  1
  H  H22  1  0.29580000  0.08594100  0.42060000  1
  C  C1  1  0.22412600  0.00944600  0.87877300  1
  C  C2  1  0.22413700  0.99161000  0.12123900  1
  C  C3  1  0.78135500  0.00905800  0.87598800  1
  C  C4  1  0.78141400  0.99089000  0.12398100  1
  C  C5  1  0.91598600  0.45221300  0.08422100  1
  C  C6  1  0.91601600  0.44191300  0.92206400  1
  C  C7  1  0.91676500  0.54843500  0.91567800  1
  C  C8  1  0.91688700  0.55875000  0.07804300  1
  C  C9  1  0.99894800  0.41113900  0.00524800  1
  C  C10  1  0.99976800  0.58933000  0.99474900  1
  C  C11  1  0.16547400  0.55328600  0.99670500  1
  C  C12  1  0.16496600  0.44679600  0.00329000  1
  C  C13  1  0.00018400  0.69261100  0.98957800  1
  C  C14  1  0.99887200  0.30786100  0.01041300  1
  C  C15  1  0.36403000  0.98769100  0.17511900  1
  C  C16  1  0.36390900  0.01372600  0.82481900  1
  C  C17  1  0.36142700  0.99832300  0.26529700  1
  C  C18  1  0.36131000  0.00263400  0.73471700  1
  C  C19  1  0.50017600  0.99898400  0.31202200  1
  C  C20  1  0.49992200  0.00034000  0.68801900  1
  C  C21  1  0.64016000  0.99715600  0.26669400  1
  C  C22  1  0.64004900  0.00150400  0.73334400  1
  C  C23  1  0.64028500  0.98662000  0.17661100  1
  C  C24  1  0.64017800  0.01294000  0.82335700  1
  C  C25  1  0.50277400  0.97681900  0.13257200  1
  C  C26  1  0.50280000  0.02400500  0.86731600  1
  C  C27  1  0.61382200  0.95253800  0.45467600  1
  C  C28  1  0.61313800  0.95151000  0.54532400  1
  C  C29  1  0.38354000  0.04525600  0.54542000  1
  C  C30  1  0.38419600  0.04626300  0.45470000  1
  C  C31  1  0.49808300  0.99798500  0.59141500  1
  C  C32  1  0.49977400  0.00016500  0.40865100  1
  N  N1  1  0.00059400  0.77419400  0.98759800  1
  N  N2  1  0.99919100  0.22628400  0.01239000  1
  O  O1  1  0.17148300  0.92683500  0.90369000  1
  O  O2  1  0.17342300  0.91403100  0.08425100  1
  O  O3  1  0.17089800  0.07407500  0.09632800  1
  O  O4  1  0.17281400  0.08688900  0.91573500  1
  O  O5  1  0.83104700  0.08717700  0.91275100  1
  O  O6  1  0.83287600  0.07402800  0.09927600  1
  O  O7  1  0.83171500  0.91289300  0.08725200  1
  O  O8  1  0.83348000  0.92605300  0.90065600  1
