# generated using pymatgen
data_CuH18C20NO6
_symmetry_space_group_name_H-M   'P 1'
_cell_length_a   15.22189100
_cell_length_b   13.64254600
_cell_length_c   10.71281500
_cell_angle_alpha   90.00000000
_cell_angle_beta   90.00312500
_cell_angle_gamma   90.00000000
_symmetry_Int_Tables_number   1
_chemical_formula_structural   CuH18C20NO6
_chemical_formula_sum   'Cu2 H36 C40 N2 O12'
_cell_volume   2224.68045359
_cell_formula_units_Z   2
loop_
 _symmetry_equiv_pos_site_id
 _symmetry_equiv_pos_as_xyz
  1  'x, y, z'
loop_
 _atom_site_type_symbol
 _atom_site_label
 _atom_site_symmetry_multiplicity
 _atom_site_fract_x
 _atom_site_fract_y
 _atom_site_fract_z
 _atom_site_occupancy
  Cu  Cu1  1  0.49786000  0.59652500  0.50006200  1
  Cu  Cu2  1  0.49901100  0.40074700  0.49879700  1
  H  H1  1  0.41539200  0.62716900  0.10513700  1
  H  H2  1  0.55878900  0.35547800  0.10377700  1
  H  H3  1  0.35729100  0.51198100  0.10596600  1
  H  H4  1  0.43954300  0.35478600  0.10315700  1
  H  H5  1  0.35681500  0.51224700  0.89549000  1
  H  H6  1  0.44061400  0.35410500  0.89556700  1
  H  H7  1  0.41532400  0.62730900  0.89646200  1
  H  H8  1  0.55937400  0.35591600  0.89634000  1
  H  H9  1  0.57988400  0.62828300  0.10615900  1
  H  H10  1  0.63907300  0.51382600  0.10556800  1
  H  H11  1  0.57844800  0.62959900  0.89689900  1
  H  H12  1  0.63957200  0.51620500  0.89492900  1
  H  H13  1  0.06342700  0.63733200  0.59608800  1
  H  H14  1  0.06291500  0.36223200  0.40216700  1
  H  H15  1  0.22227200  0.63744500  0.59205400  1
  H  H16  1  0.22142400  0.35959400  0.40935400  1
  H  H17  1  0.94058100  0.34442100  0.51696000  1
  H  H18  1  0.93940400  0.65534000  0.48306400  1
  H  H19  1  0.55129200  0.06285800  0.67729800  1
  H  H20  1  0.43910800  0.93220500  0.67785100  1
  H  H21  1  0.55496800  0.24053400  0.67793600  1
  H  H22  1  0.44130300  0.75417400  0.67800000  1
  H  H23  1  0.43536100  0.24688400  0.32345600  1
  H  H24  1  0.55466900  0.75243400  0.31963000  1
  H  H25  1  0.43460500  0.06912100  0.31540100  1
  H  H26  1  0.55135200  0.93080000  0.31273300  1
  H  H27  1  0.68880300  0.15699900  0.43362100  1
  H  H28  1  0.78535700  0.11763600  0.51973100  1
  H  H29  1  0.77071300  0.13462300  0.23457000  1
  H  H30  1  0.76401000  0.02214900  0.32363500  1
  H  H31  1  0.86521100  0.09207200  0.32179100  1
  H  H32  1  0.68840200  0.84341300  0.56480500  1
  H  H33  1  0.78526600  0.88258800  0.47965300  1
  H  H34  1  0.76975600  0.86438900  0.76450800  1
  H  H35  1  0.76353700  0.97742100  0.67672000  1
  H  H36  1  0.86453000  0.90724900  0.67817800  1
  C  C1  1  0.32925200  0.49897800  0.49969000  1
  C  C2  1  0.49802300  0.49839700  0.25930000  1
  C  C3  1  0.66849000  0.49839300  0.49916000  1
  C  C4  1  0.49805800  0.49897900  0.74034100  1
  C  C5  1  0.41668500  0.55034400  0.07124100  1
  C  C6  1  0.49904200  0.39416800  0.07052400  1
  C  C7  1  0.41657100  0.55029700  0.92953800  1
  C  C8  1  0.49941600  0.39420200  0.92912100  1
  C  C9  1  0.57919000  0.55167600  0.07143600  1
  C  C10  1  0.49823500  0.49861200  0.11919700  1
  C  C11  1  0.49829900  0.49905000  0.88073700  1
  C  C12  1  0.57902300  0.55242000  0.92957500  1
  C  C13  1  0.09672000  0.57689200  0.55117600  1
  C  C14  1  0.09636000  0.42224900  0.44749200  1
  C  C15  1  0.18738600  0.57694300  0.54973000  1
  C  C16  1  0.18696600  0.42101200  0.44998400  1
  C  C17  1  0.23299300  0.49907000  0.49957400  1
  C  C18  1  0.04993900  0.49990100  0.49896400  1
  C  C19  1  0.90647300  0.41331800  0.50661200  1
  C  C20  1  0.90579200  0.58612500  0.49281200  1
  C  C21  1  0.81583800  0.41178600  0.50783100  1
  C  C22  1  0.81507300  0.58706800  0.49164400  1
  C  C23  1  0.76716400  0.49899500  0.49943600  1
  C  C24  1  0.95263000  0.49986500  0.49935200  1
  C  C25  1  0.52507500  0.10234800  0.59836100  1
  C  C26  1  0.46382500  0.89354600  0.59706800  1
  C  C27  1  0.52756400  0.20319900  0.59839100  1
  C  C28  1  0.46504200  0.79264700  0.59689400  1
  C  C29  1  0.46274100  0.20653000  0.40090300  1
  C  C30  1  0.52674200  0.79186900  0.39728700  1
  C  C31  1  0.46174300  0.10552600  0.39635800  1
  C  C32  1  0.52452200  0.89292800  0.39307500  1
  C  C33  1  0.49373900  0.05232900  0.49581900  1
  C  C34  1  0.49328900  0.94474300  0.49440600  1
  C  C35  1  0.77685200  0.31397300  0.51703900  1
  C  C36  1  0.76160700  0.15417100  0.43368700  1
  C  C37  1  0.79247000  0.09688000  0.32090300  1
  C  C38  1  0.77532300  0.68479500  0.48271200  1
  C  C39  1  0.76118300  0.84565500  0.56526900  1
  C  C40  1  0.79180100  0.90251600  0.67863200  1
  N  N1  1  0.49736300  0.25412500  0.49981600  1
  N  N2  1  0.49857300  0.74317400  0.49913800  1
  O  O1  1  0.37052400  0.58324000  0.49659000  1
  O  O2  1  0.37041300  0.41478500  0.50250500  1
  O  O3  1  0.49446100  0.58243600  0.31819500  1
  O  O4  1  0.50175100  0.41467000  0.31814500  1
  O  O5  1  0.62585200  0.58177400  0.49469700  1
  O  O6  1  0.62576300  0.41485200  0.50441000  1
  O  O7  1  0.49593100  0.58295200  0.68119800  1
  O  O8  1  0.50026600  0.41476800  0.68101800  1
  O  O9  1  0.73619500  0.29007500  0.61032500  1
  O  O10  1  0.79475500  0.24735000  0.42774100  1
  O  O11  1  0.73424200  0.70837700  0.38964700  1
  O  O12  1  0.79385600  0.75204200  0.57119700  1
