# generated using pymatgen
data_Zn3H26C46(ClO6)2
_symmetry_space_group_name_H-M   'P 1'
_cell_length_a   37.11882900
_cell_length_b   30.33070400
_cell_length_c   22.08042900
_cell_angle_alpha   90.00000000
_cell_angle_beta   125.29690100
_cell_angle_gamma   90.00000000
_symmetry_Int_Tables_number   1
_chemical_formula_structural   Zn3H26C46(ClO6)2
_chemical_formula_sum   'Zn12 H104 C184 Cl8 O48'
_cell_volume   20289.16980569
_cell_formula_units_Z   4
loop_
 _symmetry_equiv_pos_site_id
 _symmetry_equiv_pos_as_xyz
  1  'x, y, z'
loop_
 _atom_site_type_symbol
 _atom_site_label
 _atom_site_symmetry_multiplicity
 _atom_site_fract_x
 _atom_site_fract_y
 _atom_site_fract_z
 _atom_site_occupancy
  Zn  Zn1  1  0.49983600  0.56376000  0.99999900  1
  Zn  Zn2  1  0.99983600  0.06376000  0.99999900  1
  Zn  Zn3  1  0.49974400  0.46399600  0.99937400  1
  Zn  Zn4  1  0.99974400  0.96399600  0.99937400  1
  Zn  Zn5  1  0.55029700  0.49236100  0.55060800  1
  Zn  Zn6  1  0.45033100  0.49247800  0.44998300  1
  Zn  Zn7  1  0.05029700  0.99236100  0.55060800  1
  Zn  Zn8  1  0.95033100  0.99247800  0.44998300  1
  Zn  Zn9  1  0.99915900  0.49323500  0.43072800  1
  Zn  Zn10  1  0.00051100  0.49309700  0.56914900  1
  Zn  Zn11  1  0.49915900  0.99323500  0.43072800  1
  Zn  Zn12  1  0.50051100  0.99309700  0.56914900  1
  H  H1  1  0.56372300  0.48041600  0.75627700  1
  H  H2  1  0.43763400  0.47594800  0.24512500  1
  H  H3  1  0.06372300  0.98041600  0.75627700  1
  H  H4  1  0.93763400  0.97594800  0.24512500  1
  H  H5  1  0.46390500  0.49321300  0.67172100  1
  H  H6  1  0.53666400  0.49379900  0.32880500  1
  H  H7  1  0.96390500  0.99321300  0.67172100  1
  H  H8  1  0.03666400  0.99379900  0.32880500  1
  H  H9  1  0.28228500  0.44117400  0.79787100  1
  H  H10  1  0.71753300  0.43884300  0.20720100  1
  H  H11  1  0.78228500  0.94117400  0.79787100  1
  H  H12  1  0.21753300  0.93884300  0.20720100  1
  H  H13  1  0.36197700  0.44464700  0.87663800  1
  H  H14  1  0.63782700  0.44196500  0.12837100  1
  H  H15  1  0.86197700  0.94464700  0.87663800  1
  H  H16  1  0.13782700  0.94196500  0.12837100  1
  H  H17  1  0.35682500  0.58095600  0.82220700  1
  H  H18  1  0.64259400  0.58013900  0.17172900  1
  H  H19  1  0.85682500  0.08095600  0.82220700  1
  H  H20  1  0.14259400  0.08013900  0.17172900  1
  H  H21  1  0.27623700  0.57651100  0.74011100  1
  H  H22  1  0.72319300  0.57612800  0.25385900  1
  H  H23  1  0.77623700  0.07651100  0.74011100  1
  H  H24  1  0.22319300  0.07612800  0.25385900  1
  H  H25  1  0.21829800  0.53241400  0.62081000  1
  H  H26  1  0.78138500  0.53481200  0.37657900  1
  H  H27  1  0.71829800  0.03241400  0.62081000  1
  H  H28  1  0.28138500  0.03481200  0.37657900  1
  H  H29  1  0.13813400  0.52459400  0.54170600  1
  H  H30  1  0.86157800  0.52744700  0.45595100  1
  H  H31  1  0.63813400  0.02459400  0.54170600  1
  H  H32  1  0.36157800  0.02744700  0.45595100  1
  H  H33  1  0.14213300  0.47098100  0.72456100  1
  H  H34  1  0.85751100  0.46679300  0.27733100  1
  H  H35  1  0.64213300  0.97098100  0.72456100  1
  H  H36  1  0.35751100  0.96679300  0.27733100  1
  H  H37  1  0.22221600  0.47765500  0.80251600  1
  H  H38  1  0.77736200  0.47302800  0.19917700  1
  H  H39  1  0.72221600  0.97765500  0.80251600  1
  H  H40  1  0.27736200  0.97302800  0.19917700  1
  H  H41  1  0.02409700  0.27236500  0.43158200  1
  H  H42  1  0.97690100  0.27253600  0.56791900  1
  H  H43  1  0.52409700  0.77236500  0.43158200  1
  H  H44  1  0.47690100  0.77253600  0.56791900  1
  H  H45  1  0.43352600  0.27203200  0.40246500  1
  H  H46  1  0.56562900  0.27236400  0.59803100  1
  H  H47  1  0.93352600  0.77203200  0.40246500  1
  H  H48  1  0.06562900  0.77236400  0.59803100  1
  H  H49  1  0.43310800  0.35224100  0.40225800  1
  H  H50  1  0.56579400  0.35259000  0.59740700  1
  H  H51  1  0.93310800  0.85224100  0.40225800  1
  H  H52  1  0.06579400  0.85259000  0.59740700  1
  H  H53  1  0.02408700  0.71361000  0.61494000  1
  H  H54  1  0.97519400  0.71319200  0.38613800  1
  H  H55  1  0.52408700  0.21361000  0.61494000  1
  H  H56  1  0.47519400  0.21319200  0.38613800  1
  H  H57  1  0.02375300  0.63339000  0.61534800  1
  H  H58  1  0.97558200  0.63297700  0.38644600  1
  H  H59  1  0.52375300  0.13339000  0.61534800  1
  H  H60  1  0.47558200  0.13297700  0.38644600  1
  H  H61  1  0.02346100  0.35254400  0.43032600  1
  H  H62  1  0.97684300  0.35272600  0.56787500  1
  H  H63  1  0.52346100  0.85254400  0.43032600  1
  H  H64  1  0.47684300  0.85272600  0.56787500  1
  H  H65  1  0.43584900  0.71278000  0.47476400  1
  H  H66  1  0.56570400  0.71320600  0.52572800  1
  H  H67  1  0.93584900  0.21278000  0.47476400  1
  H  H68  1  0.06570400  0.21320600  0.52572800  1
  H  H69  1  0.43594900  0.63253800  0.47461700  1
  H  H70  1  0.56626500  0.63296000  0.52695000  1
  H  H71  1  0.93594900  0.13253800  0.47461700  1
  H  H72  1  0.06626600  0.13296000  0.52695000  1
  H  H73  1  0.65500000  0.43282200  0.03181700  1
  H  H74  1  0.62693800  0.35684300  0.00301000  1
  H  H75  1  0.55505600  0.34065400  0.88644400  1
  H  H76  1  0.51108100  0.40057900  0.79931800  1
  H  H77  1  0.34924100  0.42302100  0.97187200  1
  H  H78  1  0.38100800  0.34852800  0.00535700  1
  H  H79  1  0.45335700  0.33614600  0.12319000  1
  H  H80  1  0.49412900  0.39839900  0.20690500  1
  H  H81  1  0.15500000  0.93282200  0.03181700  1
  H  H82  1  0.12693800  0.85684300  0.00301000  1
  H  H83  1  0.05505600  0.84065400  0.88644400  1
  H  H84  1  0.01108100  0.90057900  0.79931800  1
  H  H85  1  0.84924100  0.92302100  0.97187200  1
  H  H86  1  0.88100800  0.84852800  0.00535700  1
  H  H87  1  0.95335700  0.83614600  0.12319000  1
  H  H88  1  0.99412900  0.89839900  0.20690500  1
  H  H89  1  0.40129600  0.61491900  0.66452000  1
  H  H90  1  0.45411500  0.66326900  0.66360800  1
  H  H91  1  0.53293100  0.64407200  0.73810400  1
  H  H92  1  0.55898400  0.57675000  0.81338700  1
  H  H93  1  0.59318100  0.61810200  0.32885100  1
  H  H94  1  0.53804100  0.66400500  0.32715100  1
  H  H95  1  0.46027700  0.64092700  0.25392800  1
  H  H96  1  0.43759400  0.57215000  0.18256700  1
  H  H97  1  0.90129600  0.11491900  0.66452000  1
  H  H98  1  0.95411500  0.16326900  0.66360800  1
  H  H99  1  0.03293100  0.14407200  0.73810400  1
  H  H100  1  0.05898400  0.07675000  0.81338700  1
  H  H101  1  0.09318100  0.11810200  0.32885100  1
  H  H102  1  0.03804100  0.16400500  0.32715100  1
  H  H103  1  0.96027700  0.14092700  0.25392800  1
  H  H104  1  0.93759400  0.07215000  0.18256700  1
  C  C1  1  0.41359100  0.51471600  0.90627300  1
  C  C2  1  0.58599400  0.51267500  0.09315200  1
  C  C3  1  0.91359100  0.01471600  0.90627300  1
  C  C4  1  0.08599400  0.01267500  0.09315200  1
  C  C5  1  0.50752500  0.51528700  0.88913300  1
  C  C6  1  0.49202900  0.51276000  0.11020300  1
  C  C7  1  0.00752500  0.01528700  0.88913300  1
  C  C8  1  0.99202900  0.01276000  0.11020300  1
  C  C9  1  0.00053000  0.26691100  0.49980300  1
  C  C10  1  0.50053000  0.76691100  0.49980300  1
  C  C11  1  0.01388900  0.28985400  0.46194900  1
  C  C12  1  0.98695200  0.28994500  0.53726100  1
  C  C13  1  0.51388900  0.78985400  0.46194900  1
  C  C14  1  0.48695200  0.78994500  0.53726100  1
  C  C15  1  0.00012200  0.35839300  0.49904900  1
  C  C16  1  0.50012200  0.85839300  0.49904900  1
  C  C17  1  0.01312000  0.33533300  0.46071000  1
  C  C18  1  0.98731800  0.33543300  0.53775300  1
  C  C19  1  0.51312000  0.83533300  0.46071000  1
  C  C20  1  0.48731800  0.83543300  0.53775300  1
  C  C21  1  0.53254000  0.48675300  0.74835800  1
  C  C22  1  0.46845800  0.48375000  0.25263500  1
  C  C23  1  0.03254000  0.98675300  0.74835800  1
  C  C24  1  0.96845800  0.98375000  0.25263500  1
  C  C25  1  0.49564500  0.49123700  0.68013200  1
  C  C26  1  0.50506000  0.49031300  0.32053800  1
  C  C27  1  0.99564500  0.99123700  0.68013200  1
  C  C28  1  0.00506000  0.99031300  0.32053800  1
  C  C29  1  0.53156900  0.48557200  0.81392100  1
  C  C30  1  0.46950300  0.48231400  0.18714800  1
  C  C31  1  0.03156900  0.98557200  0.81392100  1
  C  C32  1  0.96950300  0.98231400  0.18714800  1
  C  C33  1  0.51048200  0.51682400  0.82566400  1
  C  C34  1  0.48900700  0.51443300  0.17359500  1
  C  C35  1  0.01048200  0.01682400  0.82566400  1
  C  C36  1  0.98900700  0.01443300  0.17359500  1
  C  C37  1  0.29842000  0.47203100  0.80308200  1
  C  C38  1  0.70130000  0.47001700  0.19957400  1
  C  C39  1  0.79842000  0.97203100  0.80308200  1
  C  C40  1  0.20130000  0.97001700  0.19957400  1
  C  C41  1  0.34375700  0.47409500  0.84759200  1
  C  C42  1  0.65594900  0.47189800  0.15508600  1
  C  C43  1  0.84375700  0.97409500  0.84759200  1
  C  C44  1  0.15594900  0.97189800  0.15508600  1
  C  C45  1  0.36524400  0.51326400  0.85597200  1
  C  C46  1  0.63434800  0.51146100  0.14354700  1
  C  C47  1  0.86524400  0.01326400  0.85597200  1
  C  C48  1  0.13434800  0.01146100  0.14354700  1
  C  C49  1  0.34071500  0.55009500  0.81702600  1
  C  C50  1  0.65878300  0.54893700  0.17940400  1
  C  C51  1  0.84071500  0.05009500  0.81702600  1
  C  C52  1  0.15878300  0.04893700  0.17940400  1
  C  C53  1  0.29515900  0.54753100  0.77021600  1
  C  C54  1  0.70435000  0.54664000  0.22622500  1
  C  C55  1  0.79515900  0.04753100  0.77021600  1
  C  C56  1  0.20435000  0.04664000  0.22622500  1
  C  C57  1  0.27386600  0.50861100  0.76402900  1
  C  C58  1  0.72575300  0.50725900  0.23549200  1
  C  C59  1  0.77386600  0.00861100  0.76402900  1
  C  C60  1  0.22575300  0.00725900  0.23549200  1
  C  C61  1  0.20163400  0.51902600  0.64380600  1
  C  C62  1  0.79803400  0.51996300  0.35456100  1
  C  C63  1  0.70163400  0.01902600  0.64380600  1
  C  C64  1  0.29803400  0.01996300  0.35456100  1
  C  C65  1  0.15633800  0.51405400  0.59890300  1
  C  C66  1  0.84335200  0.51525800  0.39965600  1
  C  C67  1  0.65633800  0.01405400  0.59890300  1
  C  C68  1  0.34335200  0.01525800  0.39965600  1
  C  C69  1  0.13454200  0.49698200  0.62751700  1
  C  C70  1  0.86513700  0.49635000  0.37229100  1
  C  C71  1  0.63454200  0.99698200  0.62751700  1
  C  C72  1  0.36513700  0.99635000  0.37229100  1
  C  C73  1  0.15851500  0.48440500  0.70110300  1
  C  C74  1  0.84112800  0.48167400  0.29978800  1
  C  C75  1  0.65851500  0.98440500  0.70110300  1
  C  C76  1  0.34112800  0.98167400  0.29978800  1
  C  C77  1  0.20387200  0.48798500  0.74518300  1
  C  C78  1  0.79574500  0.48500900  0.25562400  1
  C  C79  1  0.70387200  0.98798500  0.74518300  1
  C  C80  1  0.29574500  0.98500900  0.25562400  1
  C  C81  1  0.22560600  0.50563800  0.71696200  1
  C  C82  1  0.77402600  0.50449100  0.28256300  1
  C  C83  1  0.72560600  0.00563800  0.71696200  1
  C  C84  1  0.27402600  0.00449100  0.28256300  1
  C  C85  1  0.49933100  0.40617600  0.49957100  1
  C  C86  1  0.99933100  0.90617600  0.49957100  1
  C  C87  1  0.49699000  0.49227000  0.61535700  1
  C  C88  1  0.50364100  0.49170300  0.38522900  1
  C  C89  1  0.99699000  0.99227000  0.61535700  1
  C  C90  1  0.00364100  0.99170300  0.38522900  1
  C  C91  1  0.50129400  0.57876600  0.50103900  1
  C  C92  1  0.00129400  0.07876600  0.50103900  1
  C  C93  1  0.99997400  0.40676300  0.49873600  1
  C  C94  1  0.49997400  0.90676300  0.49873600  1
  C  C95  1  0.08627200  0.49382200  0.58106800  1
  C  C96  1  0.91342300  0.49341000  0.41888400  1
  C  C97  1  0.58627200  0.99382200  0.58106800  1
  C  C98  1  0.41342300  0.99341000  0.41888400  1
  C  C99  1  0.99969800  0.57942400  0.50113300  1
  C  C100  1  0.49969800  0.07942400  0.50113300  1
  C  C101  1  0.46272200  0.28962600  0.44522000  1
  C  C102  1  0.53638500  0.28981500  0.55508800  1
  C  C103  1  0.96272200  0.78962600  0.44522000  1
  C  C104  1  0.03638500  0.78981500  0.55508800  1
  C  C105  1  0.46239400  0.33502700  0.44557600  1
  C  C106  1  0.53657100  0.33521900  0.55426400  1
  C  C107  1  0.96239400  0.83502700  0.44557600  1
  C  C108  1  0.03657100  0.83521900  0.55426400  1
  C  C109  1  0.49944300  0.35799600  0.49980500  1
  C  C110  1  0.99944300  0.85799600  0.49980500  1
  C  C111  1  0.49958600  0.26688300  0.50027300  1
  C  C112  1  0.99958600  0.76688300  0.50027300  1
  C  C113  1  0.01358000  0.69599500  0.56470100  1
  C  C114  1  0.98571900  0.69576200  0.43653700  1
  C  C115  1  0.51358000  0.19599500  0.56470100  1
  C  C116  1  0.48571900  0.19576200  0.43653700  1
  C  C117  1  0.01297900  0.65059200  0.56466000  1
  C  C118  1  0.98634400  0.65036000  0.43698200  1
  C  C119  1  0.51297900  0.15059200  0.56466000  1
  C  C120  1  0.48634400  0.15036000  0.43698200  1
  C  C121  1  0.99966500  0.62760300  0.50092000  1
  C  C122  1  0.49966500  0.12760300  0.50092000  1
  C  C123  1  0.99964200  0.71871500  0.50051600  1
  C  C124  1  0.49964200  0.21871500  0.50051600  1
  C  C125  1  0.46469500  0.69543100  0.48661200  1
  C  C126  1  0.53700500  0.69566700  0.51412800  1
  C  C127  1  0.96469500  0.19543100  0.48661200  1
  C  C128  1  0.03700500  0.19566700  0.51412800  1
  C  C129  1  0.46460900  0.64995100  0.48581500  1
  C  C130  1  0.53746800  0.65018900  0.51553200  1
  C  C131  1  0.96460900  0.14995100  0.48581500  1
  C  C132  1  0.03746800  0.15018900  0.51553200  1
  C  C133  1  0.50112900  0.62709500  0.50080700  1
  C  C134  1  0.00112900  0.12709500  0.50080700  1
  C  C135  1  0.50075000  0.71853700  0.50020000  1
  C  C136  1  0.00075000  0.21853700  0.50020000  1
  C  C137  1  0.55739800  0.45070000  0.86813300  1
  C  C138  1  0.59801300  0.45972600  0.93337400  1
  C  C139  1  0.62294700  0.42591300  0.98145500  1
  C  C140  1  0.60734900  0.38324900  0.96506200  1
  C  C141  1  0.56709000  0.37418000  0.89974500  1
  C  C142  1  0.54241100  0.40780100  0.85096300  1
  C  C143  1  0.44549300  0.44604700  0.13497900  1
  C  C144  1  0.40458900  0.45292400  0.06905900  1
  C  C145  1  0.38149000  0.41780500  0.02282100  1
  C  C146  1  0.39916900  0.37596800  0.04182400  1
  C  C147  1  0.43969100  0.36902900  0.10785800  1
  C  C148  1  0.46256900  0.40395500  0.15473400  1
  C  C149  1  0.05739800  0.95070000  0.86813300  1
  C  C150  1  0.09801300  0.95972600  0.93337400  1
  C  C151  1  0.12294700  0.92591300  0.98145500  1
  C  C152  1  0.10734900  0.88324900  0.96506200  1
  C  C153  1  0.06709000  0.87418000  0.89974500  1
  C  C154  1  0.04241100  0.90780100  0.85096300  1
  C  C155  1  0.94549300  0.94604700  0.13497900  1
  C  C156  1  0.90458900  0.95292400  0.06905900  1
  C  C157  1  0.88149000  0.91780500  0.02282100  1
  C  C158  1  0.89916900  0.87596800  0.04182400  1
  C  C159  1  0.93969100  0.86902900  0.10785800  1
  C  C160  1  0.96256900  0.90395500  0.15473400  1
  C  C161  1  0.49464900  0.55730600  0.78074100  1
  C  C162  1  0.45036600  0.56851100  0.73946800  1
  C  C163  1  0.43596100  0.60651100  0.69746100  1
  C  C164  1  0.46554300  0.63358300  0.69679700  1
  C  C165  1  0.50969300  0.62278300  0.73843400  1
  C  C166  1  0.52425100  0.58485300  0.78052700  1
  C  C167  1  0.50280700  0.55579000  0.21617000  1
  C  C168  1  0.54647400  0.56918100  0.25667200  1
  C  C169  1  0.55898000  0.60797900  0.29648400  1
  C  C170  1  0.52809700  0.63368300  0.29568300  1
  C  C171  1  0.48454000  0.62070900  0.25476500  1
  C  C172  1  0.47188000  0.58196700  0.21488000  1
  C  C173  1  0.99464900  0.05730600  0.78074100  1
  C  C174  1  0.95036600  0.06851100  0.73946800  1
  C  C175  1  0.93596100  0.10651100  0.69746100  1
  C  C176  1  0.96554300  0.13358300  0.69679700  1
  C  C177  1  0.00969300  0.12278300  0.73843400  1
  C  C178  1  0.02425100  0.08485300  0.78052700  1
  C  C179  1  0.00280700  0.05579000  0.21617000  1
  C  C180  1  0.04647400  0.06918100  0.25667200  1
  C  C181  1  0.05898000  0.10797900  0.29648400  1
  C  C182  1  0.02809700  0.13368300  0.29568300  1
  C  C183  1  0.98454000  0.12070900  0.25476500  1
  C  C184  1  0.97188000  0.08196700  0.21488000  1
  Cl  Cl1  1  0.61923000  0.51347500  0.95441000  1
  Cl  Cl2  1  0.38070000  0.50554200  0.04486300  1
  Cl  Cl3  1  0.11923000  0.01347500  0.95441000  1
  Cl  Cl4  1  0.88070000  0.00554200  0.04486300  1
  Cl  Cl5  1  0.41161500  0.53370600  0.73635500  1
  Cl  Cl6  1  0.58689400  0.53620300  0.26161400  1
  Cl  Cl7  1  0.91161500  0.03370600  0.73635500  1
  Cl  Cl8  1  0.08689400  0.03620300  0.26161400  1
  O  O1  1  0.43411100  0.55293600  0.92695400  1
  O  O2  1  0.56538500  0.55080500  0.06977700  1
  O  O3  1  0.93411100  0.05293600  0.92695400  1
  O  O4  1  0.06538500  0.05080500  0.06977700  1
  O  O5  1  0.43434400  0.47695300  0.93007200  1
  O  O6  1  0.56533200  0.47479600  0.07199400  1
  O  O7  1  0.93434400  0.97695300  0.93007200  1
  O  O8  1  0.06533200  0.97479600  0.07199400  1
  O  O9  1  0.50435600  0.55316400  0.91410600  1
  O  O10  1  0.49316700  0.55065500  0.08295300  1
  O  O11  1  0.00435600  0.05316400  0.91410600  1
  O  O12  1  0.99316700  0.05065500  0.08295300  1
  O  O13  1  0.50623000  0.47716500  0.91611800  1
  O  O14  1  0.49534000  0.47466600  0.08548700  1
  O  O15  1  0.00623000  0.97716500  0.91611800  1
  O  O16  1  0.99534000  0.97466600  0.08548700  1
  O  O17  1  0.53741400  0.42682600  0.53664100  1
  O  O18  1  0.46115600  0.42660000  0.46234100  1
  O  O19  1  0.03741400  0.92682600  0.53664100  1
  O  O20  1  0.96115600  0.92660000  0.46234100  1
  O  O21  1  0.53551900  0.49369100  0.62574600  1
  O  O22  1  0.46509100  0.49128700  0.37481700  1
  O  O23  1  0.03551900  0.99369100  0.62574600  1
  O  O24  1  0.96509100  0.99128700  0.37481700  1
  O  O25  1  0.45934200  0.49135300  0.54960100  1
  O  O26  1  0.54127600  0.49299900  0.45097200  1
  O  O27  1  0.95934200  0.99135300  0.54960100  1
  O  O28  1  0.04127600  0.99299900  0.45097200  1
  O  O29  1  0.53941600  0.55824400  0.53760700  1
  O  O30  1  0.46327700  0.55801000  0.46459600  1
  O  O31  1  0.03941600  0.05824400  0.53760700  1
  O  O32  1  0.96327700  0.05801000  0.46459600  1
  O  O33  1  0.00107900  0.42733200  0.44758200  1
  O  O34  1  0.99885600  0.42753700  0.54976000  1
  O  O35  1  0.50107900  0.92733200  0.44758200  1
  O  O36  1  0.49885600  0.92753700  0.54976000  1
  O  O37  1  0.06527900  0.49313900  0.50870700  1
  O  O38  1  0.93441500  0.49476500  0.49120800  1
  O  O39  1  0.56527900  0.99313900  0.50870700  1
  O  O40  1  0.43441500  0.99476500  0.49120800  1
  O  O41  1  0.06596400  0.49384100  0.61385900  1
  O  O42  1  0.93373100  0.49161600  0.38613800  1
  O  O43  1  0.56596400  0.99384100  0.61385900  1
  O  O44  1  0.43373100  0.99161600  0.38613800  1
  O  O45  1  0.99963100  0.55877900  0.44883200  1
  O  O46  1  0.99982000  0.55898500  0.55360700  1
  O  O47  1  0.49963100  0.05877900  0.44883200  1
  O  O48  1  0.49982000  0.05898500  0.55360700  1
