# generated using pymatgen
data_VH7C14O5
_symmetry_space_group_name_H-M   'P 1'
_cell_length_a   6.80147700
_cell_length_b   14.20401900
_cell_length_c   19.38254300
_cell_angle_alpha   100.70287800
_cell_angle_beta   97.82698100
_cell_angle_gamma   79.02050000
_symmetry_Int_Tables_number   1
_chemical_formula_structural   VH7C14O5
_chemical_formula_sum   'V2 H14 C28 O10'
_cell_volume   1796.36890081
_cell_formula_units_Z   2
loop_
 _symmetry_equiv_pos_site_id
 _symmetry_equiv_pos_as_xyz
  1  'x, y, z'
loop_
 _atom_site_type_symbol
 _atom_site_label
 _atom_site_symmetry_multiplicity
 _atom_site_fract_x
 _atom_site_fract_y
 _atom_site_fract_z
 _atom_site_occupancy
  V  V1  1  0.95670900  0.99228000  0.99314300  1
  V  V2  1  0.45515700  0.00797500  0.00477600  1
  H  H1  1  0.75200300  0.47853000  0.93812700  1
  H  H2  1  0.07116100  0.52218900  0.06123800  1
  H  H3  1  0.26684700  0.00378800  0.79148600  1
  H  H4  1  0.19255400  0.99994400  0.66444000  1
  H  H5  1  0.81538700  0.99602900  0.64873300  1
  H  H6  1  0.88767700  0.99677100  0.77566800  1
  H  H7  1  0.75907900  0.94037900  0.54857400  1
  H  H8  1  0.68825700  0.93866300  0.42274800  1
  H  H9  1  0.06741200  0.04677400  0.44742400  1
  H  H10  1  0.13829800  0.04956700  0.57400700  1
  H  H11  1  0.01624500  0.99259900  0.34528000  1
  H  H12  1  0.95284800  0.99488000  0.21783100  1
  H  H13  1  0.57333200  0.00023800  0.21061300  1
  H  H14  1  0.63809900  0.99932500  0.33711200  1
  C  C1  1  0.62271900  0.00110200  0.86732600  1
  C  C2  1  0.74541400  0.81715300  0.99192300  1
  C  C3  1  0.22942000  0.99848600  0.13054800  1
  C  C4  1  0.10528500  0.18309200  0.00611800  1
  C  C5  1  0.05858300  0.28701300  0.01105000  1
  C  C6  1  0.98256000  0.47866200  0.02159800  1
  C  C7  1  0.84011200  0.52185400  0.97810200  1
  C  C8  1  0.80532600  0.62606300  0.98329600  1
  C  C9  1  0.02230500  0.37432700  0.01560700  1
  C  C10  1  0.77728300  0.71329200  0.98736700  1
  C  C11  1  0.38710800  0.00209300  0.75987400  1
  C  C12  1  0.34539500  0.00067300  0.68811500  1
  C  C13  1  0.49850700  0.99768800  0.64722500  1
  C  C14  1  0.69368800  0.99636600  0.67917100  1
  C  C15  1  0.73501300  0.99764400  0.75103300  1
  C  C16  1  0.58164300  0.00044600  0.79139700  1
  C  C17  1  0.60709100  0.96542100  0.52729100  1
  C  C18  1  0.56667700  0.96444500  0.45556200  1
  C  C19  1  0.37291200  0.99354900  0.42617000  1
  C  C20  1  0.21939000  0.02253600  0.46929100  1
  C  C21  1  0.25992000  0.02392000  0.54120000  1
  C  C22  1  0.45434600  0.99575100  0.57070900  1
  C  C23  1  0.13931400  0.99479800  0.31613600  1
  C  C24  1  0.10329700  0.99556800  0.24424500  1
  C  C25  1  0.25977500  0.99728900  0.20636400  1
  C  C26  1  0.45105100  0.99818900  0.24026800  1
  C  C27  1  0.48754800  0.99667400  0.31164500  1
  C  C28  1  0.33213900  0.99472000  0.35004000  1
  O  O1  1  0.56330700  0.86764000  0.99712600  1
  O  O2  1  0.80833100  0.99628500  0.89801700  1
  O  O3  1  0.95918700  0.13262800  0.00077100  1
  O  O4  1  0.89890200  0.86032100  0.99039100  1
  O  O5  1  0.05167000  0.99433500  0.09464000  1
  O  O6  1  0.47168400  0.00562000  0.90399300  1
  O  O7  1  0.67611700  0.04376600  0.03227400  1
  O  O8  1  0.38523900  0.00330700  0.09910300  1
  O  O9  1  0.29430100  0.13990100  0.00772800  1
  O  O10  1  0.18500300  0.95652300  0.96563200  1
