# generated using pymatgen
data_FeH15C27O8
_symmetry_space_group_name_H-M   'P 1'
_cell_length_a   15.67616500
_cell_length_b   19.43393900
_cell_length_c   13.24535000
_cell_angle_alpha   90.44579100
_cell_angle_beta   87.07707600
_cell_angle_gamma   70.79762000
_symmetry_Int_Tables_number   1
_chemical_formula_structural   FeH15C27O8
_chemical_formula_sum   'Fe2 H30 C54 O16'
_cell_volume   3804.43659270
_cell_formula_units_Z   2
loop_
 _symmetry_equiv_pos_site_id
 _symmetry_equiv_pos_as_xyz
  1  'x, y, z'
loop_
 _atom_site_type_symbol
 _atom_site_label
 _atom_site_symmetry_multiplicity
 _atom_site_fract_x
 _atom_site_fract_y
 _atom_site_fract_z
 _atom_site_occupancy
  Fe  Fe1  1  0.52143800  0.01028200  0.18614100  1
  Fe  Fe2  1  0.51471700  0.01255400  0.73213400  1
  H  H1  1  0.93048500  0.01078500  0.80610900  1
  H  H2  1  0.19543900  0.99469900  0.80902200  1
  H  H3  1  0.06020300  0.98384200  0.84916700  1
  H  H4  1  0.79104400  0.00859200  0.75589500  1
  H  H5  1  0.26072300  0.99845400  0.16518500  1
  H  H6  1  0.94174200  0.99170200  0.24924200  1
  H  H7  1  0.80717100  0.98737900  0.19566600  1
  H  H8  1  0.46217600  0.10153900  0.45042100  1
  H  H9  1  0.25425700  0.25901400  0.30557700  1
  H  H10  1  0.25721700  0.26431500  0.62771800  1
  H  H11  1  0.87923200  0.51327000  0.60263400  1
  H  H12  1  0.74960700  0.62070200  0.59620000  1
  H  H13  1  0.84293500  0.66399200  0.30170600  1
  H  H14  1  0.96597400  0.55101400  0.30223500  1
  H  H15  1  0.69474300  0.72995600  0.29301200  1
  H  H16  1  0.53521700  0.91463900  0.47179200  1
  H  H17  1  0.72547900  0.74158500  0.61241600  1
  H  H18  1  0.10190100  0.50214800  0.36627500  1
  H  H19  1  0.23418600  0.39463300  0.37074800  1
  H  H20  1  0.08883300  0.29275500  0.56445000  1
  H  H21  1  0.95272800  0.39721500  0.55374600  1
  H  H22  1  0.18331100  0.94362200  0.25138800  1
  H  H23  1  0.07413300  0.95549100  0.29016700  1
  H  H24  1  0.13575600  0.08782200  0.24268600  1
  H  H25  1  0.97614800  0.07145300  0.37253300  1
  H  H26  1  0.97062200  0.11458500  0.25068900  1
  H  H27  1  0.00549700  0.15325100  0.35814100  1
  H  H28  1  0.13002300  0.01016800  0.44260400  1
  H  H29  1  0.15059900  0.09594400  0.42774200  1
  H  H30  1  0.23032300  0.01357800  0.37173300  1
  C  C1  1  0.88711200  0.00024100  0.86497800  1
  C  C2  1  0.29103400  0.00216800  0.91387800  1
  C  C3  1  0.20974500  0.99566700  0.88781200  1
  C  C4  1  0.14475300  0.99227300  0.96056300  1
  C  C5  1  0.06425000  0.98835000  0.92937300  1
  C  C6  1  0.99388200  0.98898700  0.99802200  1
  C  C7  1  0.80447600  0.00105500  0.83497800  1
  C  C8  1  0.74093800  0.99035000  0.90249500  1
  C  C9  1  0.90896000  0.99003600  0.96557600  1
  C  C10  1  0.84246500  0.98416200  0.03546800  1
  C  C11  1  0.75915700  0.98185000  0.00407800  1
  C  C12  1  0.30754300  0.00298500  0.01605700  1
  C  C13  1  0.24374200  0.99654300  0.08784800  1
  C  C14  1  0.16041500  0.99267300  0.06168800  1
  C  C15  1  0.09315000  0.98905900  0.13376000  1
  C  C16  1  0.00914500  0.98813300  0.10078100  1
  C  C17  1  0.93871700  0.98806600  0.16876500  1
  C  C18  1  0.85814200  0.98529800  0.13698800  1
  C  C19  1  0.68842800  0.97554500  0.07783900  1
  C  C20  1  0.58306500  0.87103800  0.28386200  1
  C  C21  1  0.38863300  0.01373200  0.05416500  1
  C  C22  1  0.39282600  0.13308200  0.27793200  1
  C  C23  1  0.60542200  0.87449000  0.64362100  1
  C  C24  1  0.65597800  0.98888700  0.86226900  1
  C  C25  1  0.40391700  0.14027500  0.63994500  1
  C  C26  1  0.35746800  0.00495000  0.83197300  1
  C  C27  1  0.36387900  0.17833100  0.36955800  1
  C  C28  1  0.28729400  0.23874100  0.37419200  1
  C  C29  1  0.25078200  0.27145100  0.46665700  1
  C  C30  1  0.28821200  0.24065400  0.55521000  1
  C  C31  1  0.36603400  0.18017200  0.55004000  1
  C  C32  1  0.40471500  0.15109000  0.45662000  1
  C  C33  1  0.87097200  0.54414500  0.53431400  1
  C  C34  1  0.79756600  0.60704900  0.53164200  1
  C  C35  1  0.78660500  0.65209000  0.44938000  1
  C  C36  1  0.84804000  0.63029800  0.36703100  1
  C  C37  1  0.92027800  0.56627800  0.36859200  1
  C  C38  1  0.93411900  0.52342500  0.45339500  1
  C  C39  1  0.67458400  0.75672700  0.36629900  1
  C  C40  1  0.61180900  0.82636100  0.37268900  1
  C  C41  1  0.58365400  0.86018000  0.46602400  1
  C  C42  1  0.62360400  0.82909500  0.55166100  1
  C  C43  1  0.69050400  0.76221800  0.54515100  1
  C  C44  1  0.71423800  0.72385700  0.45335600  1
  C  C45  1  0.09636200  0.45623500  0.40816000  1
  C  C46  1  0.17239200  0.39550000  0.41172800  1
  C  C47  1  0.17061100  0.33687500  0.46862500  1
  C  C48  1  0.09164800  0.33908700  0.52145300  1
  C  C49  1  0.01442200  0.39890600  0.51540000  1
  C  C50  1  0.01587700  0.45834000  0.45865600  1
  C  C51  1  0.11417400  0.98243900  0.24464800  1
  C  C52  1  0.10621800  0.05600700  0.29425600  1
  C  C53  1  0.00823600  0.10134900  0.32046700  1
  C  C54  1  0.15752200  0.04299100  0.39030300  1
  O  O1  1  0.60529100  0.02117200  0.07533400  1
  O  O2  1  0.58496900  0.84184300  0.19374700  1
  O  O3  1  0.70781000  0.92401200  0.14465900  1
  O  O4  1  0.56239300  0.94192100  0.29753000  1
  O  O5  1  0.43251700  0.97065400  0.12399000  1
  O  O6  1  0.40531000  0.07449800  0.03559900  1
  O  O7  1  0.47922100  0.11089900  0.24924200  1
  O  O8  1  0.34206500  0.09528800  0.25046400  1
  O  O9  1  0.52209100  0.91777200  0.66457600  1
  O  O10  1  0.67323200  0.88782700  0.68373800  1
  O  O11  1  0.62672200  0.02682200  0.78188500  1
  O  O12  1  0.61566900  0.94380500  0.89736100  1
  O  O13  1  0.34034600  0.99757300  0.73729300  1
  O  O14  1  0.48209400  0.08757500  0.62756300  1
  O  O15  1  0.43400500  0.01415000  0.85265700  1
  O  O16  1  0.35518900  0.14895900  0.72549700  1
