# generated using pymatgen
data_ZnH12C24BrNO4
_symmetry_space_group_name_H-M   'P 1'
_cell_length_a   14.39382900
_cell_length_b   8.54708400
_cell_length_c   19.34611900
_cell_angle_alpha   90.00000000
_cell_angle_beta   91.01873100
_cell_angle_gamma   90.00000000
_symmetry_Int_Tables_number   1
_chemical_formula_structural   ZnH12C24BrNO4
_chemical_formula_sum   'Zn2 H24 C48 Br2 N2 O8'
_cell_volume   2379.68522575
_cell_formula_units_Z   2
loop_
 _symmetry_equiv_pos_site_id
 _symmetry_equiv_pos_as_xyz
  1  'x, y, z'
loop_
 _atom_site_type_symbol
 _atom_site_label
 _atom_site_symmetry_multiplicity
 _atom_site_fract_x
 _atom_site_fract_y
 _atom_site_fract_z
 _atom_site_occupancy
  Zn  Zn1  1  0.89706300  0.51100400  0.50718600  1
  Zn  Zn2  1  0.10293700  0.51100400  0.49281400  1
  H  H1  1  0.04389400  0.01105900  0.54738800  1
  H  H2  1  0.95610600  0.01105900  0.45261200  1
  H  H3  1  0.00205900  0.26318300  0.73188200  1
  H  H4  1  0.01237000  0.76059900  0.26962100  1
  H  H5  1  0.99794100  0.26318300  0.26811800  1
  H  H6  1  0.98763000  0.76059900  0.73037900  1
  H  H7  1  0.94401200  0.77980600  0.04573800  1
  H  H8  1  0.94081500  0.23862400  0.95397700  1
  H  H9  1  0.05598800  0.77980600  0.95426100  1
  H  H10  1  0.05918500  0.23862400  0.04602200  1
  H  H11  1  0.94064600  0.78184100  0.17044900  1
  H  H12  1  0.93332500  0.23700600  0.82887400  1
  H  H13  1  0.05935400  0.78184100  0.82955000  1
  H  H14  1  0.06667500  0.23700600  0.17112600  1
  H  H15  1  0.42204400  0.50194700  0.38588800  1
  H  H16  1  0.57795600  0.50194700  0.61411100  1
  H  H17  1  0.69897300  0.31447400  0.41131100  1
  H  H18  1  0.78950900  0.31653100  0.30569500  1
  H  H19  1  0.61331100  0.67062300  0.22098900  1
  H  H20  1  0.52393500  0.67393900  0.32762800  1
  H  H21  1  0.30102700  0.31447500  0.58868900  1
  H  H22  1  0.21049100  0.31653100  0.69430500  1
  H  H23  1  0.38668900  0.67062300  0.77901100  1
  H  H24  1  0.47606500  0.67393900  0.67237200  1
  C  C1  1  0.01866600  0.15030300  0.63581200  1
  C  C2  1  0.98209500  0.87186500  0.36434100  1
  C  C3  1  0.98133400  0.15030300  0.36418800  1
  C  C4  1  0.01790500  0.87186500  0.63565900  1
  C  C5  1  0.00512700  0.15145500  0.70620400  1
  C  C6  1  0.99934900  0.87126100  0.29448000  1
  C  C7  1  0.99487300  0.15145500  0.29379500  1
  C  C8  1  0.00065100  0.87126100  0.70551900  1
  C  C9  1  0.00002800  0.01099900  0.74233400  1
  C  C10  1  0.99997200  0.01099900  0.25766600  1
  C  C11  1  0.03114000  0.01104600  0.60204700  1
  C  C12  1  0.96886000  0.01104600  0.39795200  1
  C  C13  1  0.97129000  0.88003400  0.07346000  1
  C  C14  1  0.96634900  0.13797800  0.92632600  1
  C  C15  1  0.02871000  0.88003400  0.92654000  1
  C  C16  1  0.03365100  0.13797800  0.07367300  1
  C  C17  1  0.97078300  0.88101800  0.14467300  1
  C  C18  1  0.96304700  0.13693500  0.85498600  1
  C  C19  1  0.02921700  0.88101800  0.85532700  1
  C  C20  1  0.03695300  0.13693500  0.14501300  1
  C  C21  1  0.00419800  0.00911200  0.18141300  1
  C  C22  1  0.99580200  0.00911200  0.81858700  1
  C  C23  1  0.00126600  0.00929700  0.03775800  1
  C  C24  1  0.99873400  0.00929700  0.96224100  1
  C  C25  1  0.01248100  0.72980700  0.59395800  1
  C  C26  1  0.98724900  0.29242600  0.40588300  1
  C  C27  1  0.98751900  0.72980700  0.40604100  1
  C  C28  1  0.01275200  0.29242600  0.59411700  1
  C  C29  1  0.45663100  0.50209000  0.43592900  1
  C  C30  1  0.54336900  0.50209000  0.56407100  1
  C  C31  1  0.40423100  0.50082600  0.49485900  1
  C  C32  1  0.59576900  0.50082500  0.50514100  1
  C  C33  1  0.44757500  0.49931300  0.55926300  1
  C  C34  1  0.55242500  0.49931300  0.44073700  1
  C  C35  1  0.30473900  0.50703900  0.48892900  1
  C  C36  1  0.69526100  0.50703900  0.51107000  1
  C  C37  1  0.60690200  0.49786300  0.37753100  1
  C  C38  1  0.68145800  0.39726200  0.37095300  1
  C  C39  1  0.73164000  0.39603100  0.31088400  1
  C  C40  1  0.70748700  0.49465900  0.25715800  1
  C  C41  1  0.63251100  0.59363500  0.26321200  1
  C  C42  1  0.58199500  0.59464600  0.32310200  1
  C  C43  1  0.39309800  0.49786300  0.62246900  1
  C  C44  1  0.31854200  0.39726200  0.62904700  1
  C  C45  1  0.26836000  0.39603100  0.68911500  1
  C  C46  1  0.29251300  0.49466000  0.74284100  1
  C  C47  1  0.36748900  0.59363500  0.73678800  1
  C  C48  1  0.41800500  0.59464600  0.67689800  1
  Br  Br1  1  0.77689000  0.49253700  0.17417100  1
  Br  Br2  1  0.22311000  0.49253700  0.82582900  1
  N  N1  1  0.77558600  0.51084800  0.51409500  1
  N  N2  1  0.22441400  0.51084800  0.48590500  1
  O  O1  1  0.08840900  0.68060400  0.56427100  1
  O  O2  1  0.91155800  0.34164500  0.43565300  1
  O  O3  1  0.91159100  0.68060400  0.43572800  1
  O  O4  1  0.08844200  0.34164500  0.56434700  1
  O  O5  1  0.92958800  0.67433900  0.57885800  1
  O  O6  1  0.07027800  0.34749600  0.42120000  1
  O  O7  1  0.07041200  0.67433900  0.42114100  1
  O  O8  1  0.92972200  0.34749600  0.57880000  1
