# generated using pymatgen
data_FeH9C23NClO8
_symmetry_space_group_name_H-M   'P 1'
_cell_length_a   15.85064600
_cell_length_b   9.28187400
_cell_length_c   18.19897700
_cell_angle_alpha   90.06349700
_cell_angle_beta   100.27015500
_cell_angle_gamma   97.51106800
_symmetry_Int_Tables_number   1
_chemical_formula_structural   FeH9C23NClO8
_chemical_formula_sum   'Fe2 H18 C46 N2 Cl2 O16'
_cell_volume   2611.17806054
_cell_formula_units_Z   2
loop_
 _symmetry_equiv_pos_site_id
 _symmetry_equiv_pos_as_xyz
  1  'x, y, z'
loop_
 _atom_site_type_symbol
 _atom_site_label
 _atom_site_symmetry_multiplicity
 _atom_site_fract_x
 _atom_site_fract_y
 _atom_site_fract_z
 _atom_site_occupancy
  Fe  Fe1  1  0.49983600  0.02053200  0.82797000  1
  Fe  Fe2  1  0.50953800  0.99888900  0.15789500  1
  H  H1  1  0.22209100  0.99585600  0.82015900  1
  H  H2  1  0.07797300  0.98584900  0.85190800  1
  H  H3  1  0.18767900  0.03474700  0.08195500  1
  H  H4  1  0.78549000  0.05176700  0.16325900  1
  H  H5  1  0.93015100  0.06623900  0.13337000  1
  H  H6  1  0.51202300  0.76894100  0.61554700  1
  H  H7  1  0.48976900  0.30741300  0.58038100  1
  H  H8  1  0.52684800  0.71420200  0.40684400  1
  H  H9  1  0.50786000  0.48154600  0.79812200  1
  H  H10  1  0.49679300  0.53453800  0.18892100  1
  H  H11  1  0.77312100  0.72566900  0.88939300  1
  H  H12  1  0.87770300  0.84940900  0.69526300  1
  H  H13  1  0.92242800  0.09752300  0.74787000  1
  H  H14  1  0.89229400  0.16019300  0.87096500  1
  H  H15  1  0.34556700  0.17184300  0.31060400  1
  H  H16  1  0.41296500  0.84261400  0.46447400  1
  H  H17  1  0.55312800  0.98958500  0.51117400  1
  H  H18  1  0.58976000  0.22747800  0.45784600  1
  C  C1  1  0.21560900  0.00271400  0.87814300  1
  C  C2  1  0.13442200  0.99824800  0.89573400  1
  C  C3  1  0.12536300  0.01273400  0.96898100  1
  C  C4  1  0.19720800  0.02751200  0.02482500  1
  C  C5  1  0.27941400  0.03092700  0.00811600  1
  C  C6  1  0.28850200  0.02242200  0.93340300  1
  C  C7  1  0.04091600  0.01214800  0.98725700  1
  C  C8  1  0.96975300  0.01256500  0.00191800  1
  C  C9  1  0.81338100  0.98310200  0.96160700  1
  C  C10  1  0.72962900  0.98307500  0.97656100  1
  C  C11  1  0.72021800  0.00278000  0.05088100  1
  C  C12  1  0.79252000  0.03577800  0.10593900  1
  C  C13  1  0.87414300  0.04280600  0.08953000  1
  C  C14  1  0.88439600  0.01361500  0.01799400  1
  C  C15  1  0.49189900  0.23606800  0.72111100  1
  C  C16  1  0.37274200  0.04038700  0.90968500  1
  C  C17  1  0.65439300  0.97984900  0.91420900  1
  C  C18  1  0.51049700  0.76069700  0.76439600  1
  C  C19  1  0.48749200  0.25565400  0.22177500  1
  C  C20  1  0.35277300  0.03308400  0.07077900  1
  C  C21  1  0.63622400  0.98229200  0.07525400  1
  C  C22  1  0.52017900  0.78236900  0.26477600  1
  C  C23  1  0.50979800  0.63906100  0.71263700  1
  C  C24  1  0.50869200  0.66045600  0.63730000  1
  C  C25  1  0.50281500  0.54318400  0.58876300  1
  C  C26  1  0.49581100  0.40293100  0.61591200  1
  C  C27  1  0.49911000  0.38234300  0.69131200  1
  C  C28  1  0.50725100  0.49993900  0.73945700  1
  C  C29  1  0.48965100  0.35899800  0.35038900  1
  C  C30  1  0.48960800  0.37773600  0.27451400  1
  C  C31  1  0.49718000  0.51725100  0.24763100  1
  C  C32  1  0.51049200  0.63663200  0.29541100  1
  C  C33  1  0.51552100  0.61811500  0.37108900  1
  C  C34  1  0.50254600  0.47899500  0.39855700  1
  C  C35  1  0.83043300  0.94696400  0.88776200  1
  C  C36  1  0.80572600  0.80756700  0.85826100  1
  C  C37  1  0.82262700  0.77264100  0.78913100  1
  C  C38  1  0.86447700  0.87681200  0.74945800  1
  C  C39  1  0.88956500  0.01588600  0.77896200  1
  C  C40  1  0.87277600  0.05089900  0.84812100  1
  C  C41  1  0.47002700  0.21480900  0.38064200  1
  C  C42  1  0.39161400  0.13158900  0.35425800  1
  C  C43  1  0.37125000  0.99793100  0.38424900  1
  C  C44  1  0.42913900  0.94712300  0.44075200  1
  C  C45  1  0.50763400  0.02961600  0.46699300  1
  C  C46  1  0.52804000  0.16341500  0.43711800  1
  N  N1  1  0.50451100  0.56958600  0.51236800  1
  N  N2  1  0.49976500  0.45554700  0.47500100  1
  Cl  Cl1  1  0.79104500  0.59589300  0.75176500  1
  Cl  Cl2  1  0.27149400  0.89327000  0.35099800  1
  O  O1  1  0.52968100  0.21683800  0.79004800  1
  O  O2  1  0.43066100  0.15177300  0.93492500  1
  O  O3  1  0.44312200  0.12816500  0.68138700  1
  O  O4  1  0.38569800  0.95704600  0.85552200  1
  O  O5  1  0.57888500  0.00758800  0.92627800  1
  O  O6  1  0.66473400  0.97089200  0.84455700  1
  O  O7  1  0.50903800  0.89415400  0.74097400  1
  O  O8  1  0.50767800  0.73525600  0.83489300  1
  O  O9  1  0.49991500  0.12478600  0.24501900  1
  O  O10  1  0.48332600  0.28166100  0.15044700  1
  O  O11  1  0.42954400  0.00987800  0.05986100  1
  O  O12  1  0.33924500  0.04333900  0.13953400  1
  O  O13  1  0.56918300  0.89023000  0.30437800  1
  O  O14  1  0.62294400  0.06506200  0.12955700  1
  O  O15  1  0.48147000  0.80213400  0.19616000  1
  O  O16  1  0.57958600  0.86854500  0.05117300  1
