# generated using pymatgen
data_ZnH16C20NO8
_symmetry_space_group_name_H-M   'P 1'
_cell_length_a   14.28435600
_cell_length_b   8.58306300
_cell_length_c   15.07102000
_cell_angle_alpha   90.00000000
_cell_angle_beta   90.98957300
_cell_angle_gamma   90.00000000
_symmetry_Int_Tables_number   1
_chemical_formula_structural   ZnH16C20NO8
_chemical_formula_sum   'Zn2 H32 C40 N2 O16'
_cell_volume   1847.48462968
_cell_formula_units_Z   2
loop_
 _symmetry_equiv_pos_site_id
 _symmetry_equiv_pos_as_xyz
  1  'x, y, z'
loop_
 _atom_site_type_symbol
 _atom_site_label
 _atom_site_symmetry_multiplicity
 _atom_site_fract_x
 _atom_site_fract_y
 _atom_site_fract_z
 _atom_site_occupancy
  Zn  Zn1  1  0.89620900  0.50303200  0.50775000  1
  Zn  Zn2  1  0.10354900  0.50126100  0.48903100  1
  H  H1  1  0.04442500  0.00401300  0.56003100  1
  H  H2  1  0.96125400  0.99935400  0.43878000  1
  H  H3  1  0.86558800  0.88875800  0.91223900  1
  H  H4  1  0.12666600  0.11847800  0.08467600  1
  H  H5  1  0.86228200  0.88853100  0.07503800  1
  H  H6  1  0.13103400  0.11555700  0.92196800  1
  H  H7  1  0.45699300  0.44255900  0.34415400  1
  H  H8  1  0.54244800  0.56205600  0.65306200  1
  H  H9  1  0.95508200  0.27910300  0.87423500  1
  H  H10  1  0.95412200  0.37708300  0.77057200  1
  H  H11  1  0.11707300  0.34817400  0.77547100  1
  H  H12  1  0.02231900  0.72232600  0.11569000  1
  H  H13  1  0.95656400  0.63188800  0.20149000  1
  H  H14  1  0.14690100  0.72556400  0.20709400  1
  H  H15  1  0.97568100  0.29092700  0.11617200  1
  H  H16  1  0.03641200  0.37120800  0.21087300  1
  H  H17  1  0.84365400  0.29467500  0.19481600  1
  H  H18  1  0.02604300  0.71558300  0.87889300  1
  H  H19  1  0.04141000  0.62154200  0.77520100  1
  H  H20  1  0.89862800  0.60507900  0.86754600  1
  H  H21  1  0.62178500  0.22000000  0.39847700  1
  H  H22  1  0.51573100  0.12734500  0.43560800  1
  H  H23  1  0.68791900  0.14610400  0.50987400  1
  H  H24  1  0.48355900  0.87737700  0.56161300  1
  H  H25  1  0.37803700  0.78408300  0.59921800  1
  H  H26  1  0.31057700  0.83434900  0.48228100  1
  H  H27  1  0.37430700  0.32702600  0.65605300  1
  H  H28  1  0.47996200  0.21256700  0.64742800  1
  H  H29  1  0.30850200  0.18599200  0.56720700  1
  H  H30  1  0.51954000  0.79047900  0.34885500  1
  H  H31  1  0.62596900  0.67770400  0.34148600  1
  H  H32  1  0.68995800  0.81367400  0.43552900  1
  C  C1  1  0.01828200  0.14236000  0.67343500  1
  C  C2  1  0.98241500  0.86231400  0.32398400  1
  C  C3  1  0.97943500  0.14044800  0.32502400  1
  C  C4  1  0.01940900  0.86328500  0.67273300  1
  C  C5  1  0.00471300  0.14246700  0.76411100  1
  C  C6  1  0.99573700  0.86314100  0.23335000  1
  C  C7  1  0.98524800  0.14329200  0.23385400  1
  C  C8  1  0.00493200  0.86152400  0.76325800  1
  C  C9  1  0.00216000  0.00165200  0.80971100  1
  C  C10  1  0.99158600  0.00370400  0.18708200  1
  C  C11  1  0.03115500  0.00328900  0.63000800  1
  C  C12  1  0.97129800  0.00059800  0.36829500  1
  C  C13  1  0.92347000  0.93777000  0.94989500  1
  C  C14  1  0.06921200  0.06824800  0.04681400  1
  C  C15  1  0.92130100  0.93869400  0.04135900  1
  C  C16  1  0.07128600  0.06756100  0.95539800  1
  C  C17  1  0.99406000  0.00419900  0.08997900  1
  C  C18  1  0.99863400  0.00196300  0.90674600  1
  C  C19  1  0.01367700  0.72182800  0.61815300  1
  C  C20  1  0.98572300  0.28285000  0.37844600  1
  C  C21  1  0.98766200  0.71951400  0.37712300  1
  C  C22  1  0.01241800  0.28434300  0.61939900  1
  C  C23  1  0.46529000  0.39688700  0.55074900  1
  C  C24  1  0.53437700  0.60780000  0.44639300  1
  C  C25  1  0.53306900  0.36644400  0.47712600  1
  C  C26  1  0.46659200  0.63822200  0.52003100  1
  C  C27  1  0.52317200  0.53504600  0.58314600  1
  C  C28  1  0.47649000  0.46957200  0.41401800  1
  C  C29  1  0.59039600  0.50409500  0.50810600  1
  C  C30  1  0.40929200  0.50058500  0.48903500  1
  C  C31  1  0.69276800  0.50451100  0.51449700  1
  C  C32  1  0.30696000  0.49999200  0.48245900  1
  C  C33  1  0.99442600  0.29366000  0.81209600  1
  C  C34  1  0.01521300  0.71197400  0.18832300  1
  C  C35  1  0.97650700  0.29771500  0.18936500  1
  C  C36  1  0.99836100  0.70863800  0.80993900  1
  C  C37  1  0.57318600  0.20823800  0.45468400  1
  C  C38  1  0.42624400  0.79614500  0.54272700  1
  C  C39  1  0.42352100  0.27240900  0.60920100  1
  C  C40  1  0.57604300  0.73213200  0.38775200  1
  N  N1  1  0.77378500  0.50449200  0.51730300  1
  N  N2  1  0.22596100  0.49983900  0.47950500  1
  O  O1  1  0.09003600  0.67103300  0.58039800  1
  O  O2  1  0.90959100  0.33343900  0.41634800  1
  O  O3  1  0.91110500  0.67084000  0.41545100  1
  O  O4  1  0.08878200  0.33347100  0.58129400  1
  O  O5  1  0.93013500  0.66612000  0.59909900  1
  O  O6  1  0.06952700  0.33803400  0.39772300  1
  O  O7  1  0.07095000  0.66357800  0.39685900  1
  O  O8  1  0.92892200  0.34051100  0.59987600  1
  O  O9  1  0.08281400  0.35469300  0.83188800  1
  O  O10  1  0.09801500  0.64933500  0.22313900  1
  O  O11  1  0.89327800  0.36684000  0.21597900  1
  O  O12  1  0.90532100  0.65962300  0.81012100  1
  O  O13  1  0.62174900  0.14903500  0.52828300  1
  O  O14  1  0.37714000  0.85522300  0.46941300  1
  O  O15  1  0.37544400  0.16430200  0.55656600  1
  O  O16  1  0.62301800  0.84178000  0.44023400  1
