# generated using pymatgen
data_Cu6H32C61O26
_symmetry_space_group_name_H-M   'P 1'
_cell_length_a   18.64911000
_cell_length_b   18.63999600
_cell_length_c   18.64846100
_cell_angle_alpha   109.44668800
_cell_angle_beta   109.47636800
_cell_angle_gamma   109.48169100
_symmetry_Int_Tables_number   1
_chemical_formula_structural   Cu6H32C61O26
_chemical_formula_sum   'Cu6 H32 C61 O26'
_cell_volume   4990.82990503
_cell_formula_units_Z   1
loop_
 _symmetry_equiv_pos_site_id
 _symmetry_equiv_pos_as_xyz
  1  'x, y, z'
loop_
 _atom_site_type_symbol
 _atom_site_label
 _atom_site_symmetry_multiplicity
 _atom_site_fract_x
 _atom_site_fract_y
 _atom_site_fract_z
 _atom_site_occupancy
  Cu  Cu1  1  0.49991500  0.43934200  0.43891800  1
  Cu  Cu2  1  0.50003100  0.56143800  0.55884200  1
  Cu  Cu3  1  0.94071800  0.44278000  0.99868800  1
  Cu  Cu4  1  0.06124600  0.56226700  0.99679200  1
  Cu  Cu5  1  0.06062300  0.99914000  0.55923800  1
  Cu  Cu6  1  0.94170000  0.00245700  0.43971000  1
  H  H1  1  0.15517500  0.09774700  0.18513200  1
  H  H2  1  0.18005500  0.13969900  0.08009900  1
  H  H3  1  0.21832500  0.28883400  0.10591900  1
  H  H4  1  0.20641500  0.35446400  0.34209600  1
  H  H5  1  0.16751600  0.20475500  0.31543100  1
  H  H6  1  0.11853200  0.36456900  0.12173700  1
  H  H7  1  0.37782800  0.63657200  0.37769800  1
  H  H8  1  0.39376600  0.70751000  0.27279600  1
  H  H9  1  0.42293700  0.85714700  0.30858900  1
  H  H10  1  0.32168800  0.90436300  0.33580000  1
  H  H11  1  0.19184700  0.80215700  0.32826600  1
  H  H12  1  0.16185600  0.65194100  0.29180700  1
  H  H13  1  0.74505700  0.77853800  0.63017700  1
  H  H14  1  0.85847300  0.88749800  0.62735300  1
  H  H15  1  0.63822900  0.60390800  0.35846700  1
  H  H16  1  0.62663600  0.50592900  0.76442300  1
  H  H17  1  0.73857000  0.50329400  0.87576600  1
  H  H18  1  0.87731700  0.50157800  0.73381000  1
  H  H19  1  0.76374200  0.50096400  0.62086700  1
  H  H20  1  0.24320900  0.38267800  0.51064900  1
  H  H21  1  0.12934000  0.26921800  0.50917000  1
  H  H22  1  0.26429700  0.12368200  0.49986300  1
  H  H23  1  0.37650300  0.23544300  0.49774000  1
  H  H24  1  0.00672000  0.77090200  0.12305400  1
  H  H25  1  0.00554200  0.88310200  0.23614600  1
  H  H26  1  0.99975000  0.73844200  0.37214400  1
  H  H27  1  0.99690800  0.62482700  0.25762700  1
  H  H28  1  0.14076700  0.37650200  0.87608400  1
  H  H29  1  0.14045600  0.26141000  0.76484800  1
  H  H30  1  0.85985900  0.12293400  0.62338800  1
  H  H31  1  0.86015100  0.23628300  0.73642300  1
  H  H32  1  0.69007500  0.62721500  0.20344300  1
  C  C1  1  0.61534300  0.61692900  0.49550400  1
  C  C2  1  0.37909400  0.49649900  0.38056000  1
  C  C3  1  0.38478900  0.38405900  0.50245900  1
  C  C4  1  0.61934200  0.50317200  0.61716700  1
  C  C5  1  0.18637600  0.18707600  0.13792500  1
  C  C6  1  0.20785500  0.27084500  0.15250000  1
  C  C7  1  0.21686700  0.33183700  0.22672500  1
  C  C8  1  0.20177600  0.30777600  0.28505900  1
  C  C9  1  0.17970500  0.22375000  0.27006100  1
  C  C10  1  0.17244500  0.16356300  0.19677900  1
  C  C11  1  0.17555900  0.42486400  0.17787500  1
  C  C12  1  0.18616200  0.50493700  0.18689100  1
  C  C13  1  0.25986600  0.58160100  0.26009400  1
  C  C14  1  0.32092300  0.57624600  0.32147000  1
  C  C15  1  0.31028700  0.49621100  0.31251900  1
  C  C16  1  0.23622300  0.41953500  0.23973800  1
  C  C17  1  0.34883200  0.72782800  0.28425500  1
  C  C18  1  0.36528900  0.81186400  0.30435900  1
  C  C19  1  0.30855600  0.83832800  0.31960200  1
  C  C20  1  0.23552800  0.78083400  0.31504300  1
  C  C21  1  0.21864600  0.69653500  0.29434200  1
  C  C22  1  0.27481100  0.66951000  0.27791600  1
  C  C23  1  0.74556300  0.76361000  0.56923500  1
  C  C24  1  0.81063400  0.82506900  0.56790300  1
  C  C25  1  0.81372900  0.80866700  0.49138600  1
  C  C26  1  0.75107100  0.72790400  0.41522300  1
  C  C27  1  0.68594400  0.66676900  0.41727300  1
  C  C28  1  0.68297400  0.68394800  0.49389300  1
  C  C29  1  0.68158200  0.50509200  0.75730300  1
  C  C30  1  0.74455800  0.50278900  0.81994500  1
  C  C31  1  0.81555300  0.50223400  0.81235100  1
  C  C32  1  0.82245200  0.50256600  0.74101400  1
  C  C33  1  0.75780200  0.50158400  0.67673900  1
  C  C34  1  0.68755900  0.50361200  0.68506300  1
  C  C35  1  0.24858800  0.32615000  0.50856000  1
  C  C36  1  0.18360600  0.26148900  0.50694700  1
  C  C37  1  0.18909200  0.18876700  0.50455000  1
  C  C38  1  0.25938700  0.18055300  0.50246800  1
  C  C39  1  0.32260700  0.24355600  0.50060400  1
  C  C40  1  0.31773900  0.31688700  0.50417800  1
  C  C41  1  0.00125600  0.62143300  0.11422700  1
  C  C42  1  0.11869800  0.50486800  0.11769300  1
  C  C43  1  0.00065200  0.38344100  0.88134200  1
  C  C44  1  0.88328100  0.50170600  0.87976700  1
  C  C45  1  0.00285300  0.88610400  0.38084900  1
  C  C46  1  0.88227700  0.87896700  0.49382800  1
  C  C47  1  0.00001100  0.11607200  0.61811500  1
  C  C48  1  0.12040500  0.12039500  0.50337500  1
  C  C49  1  0.00500100  0.76325900  0.17751600  1
  C  C50  1  0.00375600  0.82653300  0.24127400  1
  C  C51  1  0.00271100  0.81863500  0.31207400  1
  C  C52  1  0.00121000  0.74616800  0.31764400  1
  C  C53  1  0.99878300  0.68127600  0.25218900  1
  C  C54  1  0.00166700  0.68989800  0.18229100  1
  C  C55  1  0.07874300  0.32092200  0.82084700  1
  C  C56  1  0.07855900  0.25529200  0.75817300  1
  C  C57  1  0.00013100  0.18413900  0.68635400  1
  C  C58  1  0.92187900  0.17832400  0.67882600  1
  C  C59  1  0.92204700  0.24227900  0.74322300  1
  C  C60  1  0.00048400  0.31440400  0.81404300  1
  C  C61  1  0.75386800  0.70153500  0.33291300  1
  O  O1  1  0.56832200  0.53606400  0.42772200  1
  O  O2  1  0.60506500  0.63991000  0.56498400  1
  O  O3  1  0.39219300  0.42870600  0.35977700  1
  O  O4  1  0.42748100  0.56704400  0.45970500  1
  O  O5  1  0.43154900  0.36188000  0.46908000  1
  O  O6  1  0.39499100  0.46379600  0.53383400  1
  O  O7  1  0.60759600  0.46912000  0.53692800  1
  O  O8  1  0.57236500  0.53635200  0.63903800  1
  O  O9  1  0.96869300  0.54184700  0.10437200  1
  O  O10  1  0.03381400  0.64208600  0.06626400  1
  O  O11  1  0.03893100  0.43517100  0.06989600  1
  O  O12  1  0.14044500  0.57228100  0.10406100  1
  O  O13  1  0.93173900  0.36249900  0.89268000  1
  O  O14  1  0.06964900  0.46358500  0.92765500  1
  O  O15  1  0.86159100  0.46953100  0.92745800  1
  O  O16  1  0.96300500  0.53352200  0.88991000  1
  O  O17  1  0.03375800  0.89441900  0.45984900  1
  O  O18  1  0.97071800  0.93448400  0.36061300  1
  O  O19  1  0.96121400  0.92671300  0.56467200  1
  O  O20  1  0.86152800  0.89398500  0.42725800  1
  O  O21  1  0.06875700  0.10446200  0.63974400  1
  O  O22  1  0.93154300  0.06998400  0.53770000  1
  O  O23  1  0.14120300  0.07176800  0.53466500  1
  O  O24  1  0.04068400  0.11026800  0.47086600  1
  O  O25  1  0.82373600  0.72736900  0.33412400  1
  O  O26  1  0.67661700  0.64041800  0.25305600  1
