# generated using pymatgen
data_Zn2H19C49(NO3)3
_symmetry_space_group_name_H-M   'P 1'
_cell_length_a   8.51922700
_cell_length_b   10.75142200
_cell_length_c   17.48672100
_cell_angle_alpha   97.79072600
_cell_angle_beta   90.11056800
_cell_angle_gamma   90.00835400
_symmetry_Int_Tables_number   1
_chemical_formula_structural   Zn2H19C49(NO3)3
_chemical_formula_sum   'Zn2 H19 C49 N3 O9'
_cell_volume   1586.88842528
_cell_formula_units_Z   1
loop_
 _symmetry_equiv_pos_site_id
 _symmetry_equiv_pos_as_xyz
  1  'x, y, z'
loop_
 _atom_site_type_symbol
 _atom_site_label
 _atom_site_symmetry_multiplicity
 _atom_site_fract_x
 _atom_site_fract_y
 _atom_site_fract_z
 _atom_site_occupancy
  Zn  Zn1  1  0.50165200  0.49713600  0.08529000  1
  Zn  Zn2  1  0.50054000  0.50362000  0.91509500  1
  H  H1  1  0.99908100  0.59300700  0.04336200  1
  H  H2  1  0.99581600  0.40737100  0.95736200  1
  H  H3  1  0.25685600  0.90454800  0.99387800  1
  H  H4  1  0.25634000  0.09695100  0.00650100  1
  H  H5  1  0.61174700  0.10339700  0.98906900  1
  H  H6  1  0.48303700  0.30034300  0.17383300  1
  H  H7  1  0.55025400  0.80412000  0.33481100  1
  H  H8  1  0.42956100  0.07447100  0.40078300  1
  H  H9  1  0.42725800  0.08078500  0.53949900  1
  H  H10  1  0.57910900  0.91661400  0.46181700  1
  H  H11  1  0.57973800  0.91984700  0.60220300  1
  H  H12  1  0.45026200  0.19431500  0.66632500  1
  H  H13  1  0.55590100  0.81152000  0.71282100  1
  H  H14  1  0.53253200  0.70122100  0.82331300  1
  H  H15  1  0.52417400  0.69077100  0.20826400  1
  H  H16  1  0.47173900  0.30960300  0.79313000  1
  H  H17  1  0.68860100  0.06716300  0.30301800  1
  H  H18  1  0.60371100  0.89047500  0.18894900  1
  H  H19  1  0.33191800  0.96267600  0.13708400  1
  C  C1  1  0.00048700  0.69040200  0.03450300  1
  C  C2  1  0.14082600  0.74770400  0.02371100  1
  C  C3  1  0.14380800  0.86887900  0.00721100  1
  C  C4  1  0.86165700  0.75046600  0.02385800  1
  C  C5  1  0.86312900  0.87529900  0.01126900  1
  C  C6  1  0.00516200  0.93699500  0.00554900  1
  C  C7  1  0.00475000  0.06323600  0.99449100  1
  C  C8  1  0.14292000  0.13222600  0.99329000  1
  C  C9  1  0.13902000  0.25361400  0.97718700  1
  C  C10  1  0.72377200  0.05809100  0.99411400  1
  C  C11  1  0.86206300  0.12362700  0.98830300  1
  C  C12  1  0.85955900  0.24883900  0.97590000  1
  C  C13  1  0.99811100  0.30989200  0.96601300  1
  C  C14  1  0.28219500  0.67116800  0.01661500  1
  C  C15  1  0.28018900  0.33085700  0.98429200  1
  C  C16  1  0.71800900  0.32681500  0.98343700  1
  C  C17  1  0.71974500  0.67281900  0.01643700  1
  C  C18  1  0.48980600  0.38539100  0.21413200  1
  C  C19  1  0.51497900  0.60408900  0.23249900  1
  C  C20  1  0.47169200  0.27191700  0.32431800  1
  C  C21  1  0.48603700  0.38363900  0.29340300  1
  C  C22  1  0.50135000  0.49513400  0.34208500  1
  C  C23  1  0.51726300  0.60567200  0.31133400  1
  C  C24  1  0.53654500  0.71757500  0.35917200  1
  C  C25  1  0.44811700  0.16367100  0.43603200  1
  C  C26  1  0.46966800  0.27337800  0.40387000  1
  C  C27  1  0.48579600  0.38586600  0.45196200  1
  C  C28  1  0.44577400  0.16662000  0.51503200  1
  C  C29  1  0.46572600  0.27839900  0.56264400  1
  C  C30  1  0.50269200  0.49641400  0.42102500  1
  C  C31  1  0.52127000  0.60851400  0.46904300  1
  C  C32  1  0.53968800  0.71887000  0.43807300  1
  C  C33  1  0.56176500  0.83040000  0.48599600  1
  C  C34  1  0.48504400  0.38812000  0.53114800  1
  C  C35  1  0.50319100  0.50021700  0.57902000  1
  C  C36  1  0.52213500  0.61032000  0.54803700  1
  C  C37  1  0.54174500  0.72215500  0.59609000  1
  C  C38  1  0.56258700  0.83213500  0.56494100  1
  C  C39  1  0.46533200  0.28051100  0.64172500  1
  C  C40  1  0.48404200  0.39270600  0.68934900  1
  C  C41  1  0.50258200  0.50221000  0.65799900  1
  C  C42  1  0.52078700  0.61359900  0.70614900  1
  C  C43  1  0.54092600  0.72388400  0.67519200  1
  C  C44  1  0.48428200  0.39587600  0.76842300  1
  C  C45  1  0.51892500  0.61396900  0.78518300  1
  C  C46  1  0.46582800  0.15270800  0.27306200  1
  C  C47  1  0.58222200  0.06390800  0.26900800  1
  C  C48  1  0.53873800  0.97385500  0.21090900  1
  C  C49  1  0.39808700  0.01342500  0.18409900  1
  N  N1  1  0.72674100  0.93638700  0.00497000  1
  N  N2  1  0.50268600  0.49483800  0.18536600  1
  N  N3  1  0.50011600  0.50575800  0.81500100  1
  O  O1  1  0.33216600  0.63172700  0.94662100  1
  O  O2  1  0.33748400  0.63021100  0.07872100  1
  O  O3  1  0.33156700  0.37003700  0.05417000  1
  O  O4  1  0.33509600  0.37167700  0.92218200  1
  O  O5  1  0.66961800  0.36860500  0.05343900  1
  O  O6  1  0.66388900  0.36983600  0.92177700  1
  O  O7  1  0.67018500  0.63118200  0.94649200  1
  O  O8  1  0.66624300  0.62983300  0.07815700  1
  O  O9  1  0.35328200  0.12308400  0.22146200  1
