# generated using pymatgen
data_ZnH11C17N3O5
_symmetry_space_group_name_H-M   'P 1'
_cell_length_a   14.08047900
_cell_length_b   15.92957100
_cell_length_c   17.08838300
_cell_angle_alpha   89.11798500
_cell_angle_beta   90.30383700
_cell_angle_gamma   91.91869600
_symmetry_Int_Tables_number   1
_chemical_formula_structural   ZnH11C17N3O5
_chemical_formula_sum   'Zn2 H22 C34 N6 O10'
_cell_volume   3830.20902597
_cell_formula_units_Z   2
loop_
 _symmetry_equiv_pos_site_id
 _symmetry_equiv_pos_as_xyz
  1  'x, y, z'
loop_
 _atom_site_type_symbol
 _atom_site_label
 _atom_site_symmetry_multiplicity
 _atom_site_fract_x
 _atom_site_fract_y
 _atom_site_fract_z
 _atom_site_occupancy
  Zn  Zn1  1  0.49530800  0.59527800  0.50200500  1
  Zn  Zn2  1  0.50475200  0.40482800  0.49741500  1
  H  H1  1  0.01038600  0.58615100  0.45931500  1
  H  H2  1  0.98967500  0.41395400  0.54011300  1
  H  H3  1  0.51486800  0.62325300  0.74913000  1
  H  H4  1  0.48512900  0.37686300  0.25031300  1
  H  H5  1  0.47136300  0.64772700  0.11049900  1
  H  H6  1  0.52885700  0.35238800  0.88891700  1
  H  H7  1  0.48017200  0.64418400  0.25265200  1
  H  H8  1  0.52000200  0.35592600  0.74676400  1
  H  H9  1  0.58744100  0.74156300  0.41530600  1
  H  H10  1  0.41263500  0.25854200  0.58412400  1
  H  H11  1  0.58245100  0.89291400  0.42094200  1
  H  H12  1  0.41762800  0.10719100  0.57849000  1
  H  H13  1  0.61982400  0.13335900  0.39233400  1
  H  H14  1  0.38022300  0.86674700  0.60707400  1
  H  H15  1  0.61068700  0.28634300  0.40168300  1
  H  H16  1  0.38935700  0.71376300  0.59772400  1
  H  H17  1  0.59045300  0.63697800  0.95188200  1
  H  H18  1  0.46842500  0.66124000  0.92996600  1
  H  H19  1  0.63768900  0.71634400  0.86741000  1
  H  H20  1  0.53188700  0.33919000  0.06967500  1
  H  H21  1  0.40962900  0.36297100  0.04744200  1
  H  H22  1  0.47652700  0.24649400  0.13791300  1
  C  C1  1  0.49048800  0.50697900  0.34663700  1
  C  C2  1  0.50957300  0.49312600  0.65278200  1
  C  C3  1  0.68535600  0.51338600  0.49293900  1
  C  C4  1  0.31470400  0.48672000  0.50648100  1
  C  C5  1  0.21291700  0.47991800  0.50950800  1
  C  C6  1  0.78714300  0.52018700  0.48991500  1
  C  C7  1  0.02533600  0.46897000  0.51434500  1
  C  C8  1  0.97472400  0.53113600  0.48508200  1
  C  C9  1  0.87265600  0.52536200  0.48762600  1
  C  C10  1  0.12740400  0.47474300  0.51180000  1
  C  C11  1  0.48433400  0.50974600  0.26084200  1
  C  C12  1  0.51574200  0.49036000  0.73857500  1
  C  C13  1  0.48179600  0.43602000  0.21898300  1
  C  C14  1  0.51824200  0.56408200  0.78043600  1
  C  C15  1  0.47508300  0.43757200  0.13792000  1
  C  C16  1  0.52500100  0.56253200  0.86149200  1
  C  C17  1  0.47429000  0.51494900  0.09860100  1
  C  C18  1  0.52585700  0.48516200  0.90081500  1
  C  C19  1  0.47405600  0.58788600  0.14098900  1
  C  C20  1  0.52611900  0.41222600  0.85842700  1
  C  C21  1  0.47930800  0.58569600  0.22142200  1
  C  C22  1  0.52083600  0.41441300  0.77799400  1
  C  C23  1  0.45843100  0.23043400  0.54201400  1
  C  C24  1  0.54163900  0.76967100  0.45741200  1
  C  C25  1  0.46164900  0.14406100  0.53830200  1
  C  C26  1  0.53842200  0.85604500  0.46112400  1
  C  C27  1  0.52010200  0.10815800  0.48391500  1
  C  C28  1  0.47996100  0.89194800  0.51550400  1
  C  C29  1  0.57383700  0.16007800  0.43513400  1
  C  C30  1  0.42621600  0.84002900  0.56428000  1
  C  C31  1  0.56870200  0.24598300  0.44048900  1
  C  C32  1  0.43135000  0.75412300  0.55892400  1
  C  C33  1  0.53714300  0.64383900  0.90440200  1
  C  C34  1  0.46291100  0.35628700  0.09496900  1
  N  N1  1  0.47060700  0.52211400  0.01602300  1
  N  N2  1  0.52954200  0.47799900  0.98339200  1
  N  N3  1  0.51142300  0.27980600  0.49341200  1
  N  N4  1  0.48863700  0.72030000  0.50600700  1
  N  N5  1  0.52634500  0.02017300  0.47653700  1
  N  N6  1  0.47371800  0.97993300  0.52288200  1
  O  O1  1  0.48930100  0.57785800  0.38484100  1
  O  O2  1  0.51076000  0.42224800  0.61457900  1
  O  O3  1  0.49631200  0.43346900  0.38173500  1
  O  O4  1  0.50374700  0.56663700  0.61768500  1
  O  O5  1  0.63777700  0.58263200  0.49602400  1
  O  O6  1  0.36228300  0.41747300  0.50339600  1
  O  O7  1  0.64485200  0.43807400  0.49302500  1
  O  O8  1  0.35520700  0.56203100  0.50639500  1
  O  O9  1  0.56947300  0.70833400  0.85421400  1
  O  O10  1  0.43098000  0.29170400  0.14522400  1
