# generated using pymatgen
data_FeH9C24N2O9
_symmetry_space_group_name_H-M   'P 1'
_cell_length_a   14.36401100
_cell_length_b   9.43581000
_cell_length_c   19.72343800
_cell_angle_alpha   85.71111400
_cell_angle_beta   90.43569300
_cell_angle_gamma   110.12177100
_symmetry_Int_Tables_number   1
_chemical_formula_structural   FeH9C24N2O9
_chemical_formula_sum   'Fe2 H18 C48 N4 O18'
_cell_volume   2502.57469335
_cell_formula_units_Z   2
loop_
 _symmetry_equiv_pos_site_id
 _symmetry_equiv_pos_as_xyz
  1  'x, y, z'
loop_
 _atom_site_type_symbol
 _atom_site_label
 _atom_site_symmetry_multiplicity
 _atom_site_fract_x
 _atom_site_fract_y
 _atom_site_fract_z
 _atom_site_occupancy
  Fe  Fe1  1  0.48472100  0.99938600  0.09162300  1
  Fe  Fe2  1  0.49803700  0.00930500  0.80498300  1
  H  H1  1  0.98577100  0.87274800  0.90072800  1
  H  H2  1  0.97847000  0.11161700  0.88184900  1
  H  H3  1  0.82218500  0.09854600  0.83242300  1
  H  H4  1  0.25340400  0.06479700  0.10063600  1
  H  H5  1  0.11870000  0.08299300  0.16486300  1
  H  H6  1  0.95480000  0.07569700  0.17497000  1
  H  H7  1  0.79798100  0.05414600  0.12794800  1
  H  H8  1  0.48931400  0.54402900  0.78323600  1
  H  H9  1  0.48730900  0.29425100  0.61164500  1
  H  H10  1  0.45714600  0.24302700  0.31490000  1
  H  H11  1  0.45925700  0.44195000  0.11477200  1
  H  H12  1  0.45621900  0.69614600  0.28440500  1
  H  H13  1  0.98579000  0.89020200  0.77986600  1
  H  H14  1  0.98577600  0.70671200  0.68408500  1
  H  H15  1  0.12957900  0.59959100  0.71354800  1
  H  H16  1  0.39929100  0.87205300  0.61147400  1
  H  H17  1  0.47207200  0.09551400  0.51505400  1
  H  H18  1  0.62057900  0.04458800  0.45606800  1
  C  C1  1  0.23191400  0.95000400  0.90469600  1
  C  C2  1  0.13597900  0.90347400  0.88040200  1
  C  C3  1  0.06069500  0.92259300  0.91763900  1
  C  C4  1  0.91370900  0.07569100  0.91487400  1
  C  C5  1  0.24648400  0.99058900  0.97125700  1
  C  C6  1  0.17042200  0.01153400  0.00784100  1
  C  C7  1  0.07946100  0.99263600  0.97810500  1
  C  C8  1  0.00570100  0.02582800  0.01352100  1
  C  C9  1  0.82562800  0.07568100  0.88673100  1
  C  C10  1  0.74101400  0.03619800  0.92654200  1
  C  C11  1  0.91895400  0.03761400  0.98388600  1
  C  C12  1  0.83890300  0.02865400  0.02522000  1
  C  C13  1  0.74758600  0.01624800  0.99651000  1
  C  C14  1  0.18474000  0.04974300  0.07455400  1
  C  C15  1  0.10796600  0.06095900  0.11184700  1
  C  C16  1  0.01895600  0.04749400  0.08200800  1
  C  C17  1  0.94377900  0.05817700  0.12154200  1
  C  C18  1  0.85308100  0.04207500  0.09434200  1
  C  C19  1  0.65861400  0.98520500  0.03946700  1
  C  C20  1  0.45562300  0.71108400  0.14686900  1
  C  C21  1  0.34236900  0.01669600  0.00322000  1
  C  C22  1  0.45852800  0.19091300  0.18511500  1
  C  C23  1  0.51098700  0.80481500  0.71719600  1
  C  C24  1  0.64497200  0.00779500  0.89373300  1
  C  C25  1  0.48847600  0.27549000  0.74915100  1
  C  C26  1  0.31639000  0.96512700  0.85880300  1
  C  C27  1  0.49020500  0.40538100  0.70235800  1
  C  C28  1  0.49194100  0.39910800  0.63244600  1
  C  C29  1  0.49537700  0.52444600  0.58934400  1
  C  C30  1  0.50385400  0.65967600  0.61698300  1
  C  C31  1  0.49957300  0.66382400  0.68667700  1
  C  C32  1  0.49026700  0.53657600  0.72887400  1
  C  C33  1  0.46484500  0.48298000  0.38145500  1
  C  C34  1  0.48512400  0.51023000  0.51545200  1
  C  C35  1  0.45667500  0.33913100  0.28166200  1
  C  C36  1  0.45793400  0.32990200  0.21253500  1
  C  C37  1  0.45832200  0.45157700  0.16897800  1
  C  C38  1  0.45533300  0.58274800  0.19438400  1
  C  C39  1  0.45558500  0.59255500  0.26416100  1
  C  C40  1  0.45777900  0.47126900  0.30781600  1
  C  C41  1  0.11064200  0.82279700  0.81824100  1
  C  C42  1  0.03481400  0.82612800  0.77588100  1
  C  C43  1  0.03480400  0.73275800  0.72678600  1
  C  C44  1  0.11000100  0.67807800  0.74273900  1
  C  C45  1  0.51854500  0.79908300  0.57374600  1
  C  C46  1  0.46165100  0.88927600  0.57756600  1
  C  C47  1  0.49851500  0.00301500  0.52821500  1
  C  C48  1  0.57541200  0.97462500  0.49786900  1
  N  N1  1  0.45071300  0.60373900  0.47618200  1
  N  N2  1  0.44164000  0.59158100  0.40997700  1
  N  N3  1  0.49625300  0.38613100  0.42082300  1
  N  N4  1  0.50622900  0.39945300  0.48700000  1
  O  O1  1  0.59334500  0.05038100  0.02304500  1
  O  O2  1  0.44939600  0.69465100  0.08131400  1
  O  O3  1  0.64367900  0.89128300  0.09397900  1
  O  O4  1  0.46998300  0.84541400  0.16861400  1
  O  O5  1  0.35735200  0.90852900  0.04290200  1
  O  O6  1  0.40737200  0.15450800  0.00112700  1
  O  O7  1  0.51358600  0.19954300  0.13118700  1
  O  O8  1  0.40103600  0.05900200  0.21239900  1
  O  O9  1  0.45405500  0.80366900  0.76893900  1
  O  O10  1  0.58281900  0.93016800  0.69663400  1
  O  O11  1  0.63510900  0.09654200  0.84167800  1
  O  O12  1  0.56991200  0.88555100  0.91305900  1
  O  O13  1  0.30825000  0.98972900  0.79301200  1
  O  O14  1  0.50355300  0.15713800  0.72702900  1
  O  O15  1  0.40373900  0.97357500  0.88236100  1
  O  O16  1  0.47535800  0.27967100  0.81464000  1
  O  O17  1  0.15628800  0.73188200  0.79860700  1
  O  O18  1  0.58797000  0.85012000  0.52529200  1
