# generated using pymatgen
data_Zn2H19C30N2ClO8
_symmetry_space_group_name_H-M   'P 1'
_cell_length_a   8.53808000
_cell_length_b   8.76845900
_cell_length_c   14.19253200
_cell_angle_alpha   90.37958900
_cell_angle_beta   92.90827700
_cell_angle_gamma   82.91529600
_symmetry_Int_Tables_number   1
_chemical_formula_structural   Zn2H19C30N2ClO8
_chemical_formula_sum   'Zn2 H19 C30 N2 Cl1 O8'
_cell_volume   1053.06463262
_cell_formula_units_Z   1
loop_
 _symmetry_equiv_pos_site_id
 _symmetry_equiv_pos_as_xyz
  1  'x, y, z'
loop_
 _atom_site_type_symbol
 _atom_site_label
 _atom_site_symmetry_multiplicity
 _atom_site_fract_x
 _atom_site_fract_y
 _atom_site_fract_z
 _atom_site_occupancy
  Zn  Zn1  1  0.50508000  0.48463000  0.10622300  1
  Zn  Zn2  1  0.48675300  0.52040700  0.89672200  1
  H  H1  1  0.98826700  0.60765400  0.04441600  1
  H  H2  1  0.67226100  0.01510100  0.99822500  1
  H  H3  1  0.31956300  0.98993600  0.00471600  1
  H  H4  1  0.00355600  0.39738100  0.95851500  1
  H  H5  1  0.72093400  0.58911600  0.58699800  1
  H  H6  1  0.73097300  0.57247200  0.42861300  1
  H  H7  1  0.69219600  0.31359400  0.45081800  1
  H  H8  1  0.66679300  0.32138900  0.60165800  1
  H  H9  1  0.47024100  0.27252100  0.59498000  1
  H  H10  1  0.29798900  0.65676200  0.40443000  1
  H  H11  1  0.25280200  0.46345500  0.40910600  1
  H  H12  1  0.28230400  0.68037300  0.56063100  1
  H  H13  1  0.56420600  0.71956200  0.41457100  1
  H  H14  1  0.55961300  0.74239100  0.57263100  1
  H  H15  1  0.24241600  0.48396000  0.56966500  1
  H  H16  1  0.54253000  0.93330900  0.24771100  1
  H  H17  1  0.28283800  0.88027000  0.29616500  1
  H  H18  1  0.15108600  0.03565200  0.42064800  1
  H  H19  1  0.27481800  0.24221000  0.49557300  1
  C  C1  1  0.09732800  0.80652300  0.01829500  1
  C  C2  1  0.96984000  0.72969900  0.03226900  1
  C  C3  1  0.81846100  0.80356900  0.02268700  1
  C  C4  1  0.79219300  0.95932200  0.00688800  1
  C  C5  1  0.91927200  0.04107600  0.99964100  1
  C  C6  1  0.07255300  0.96395900  0.00329600  1
  C  C7  1  0.19963200  0.04571400  0.99605200  1
  C  C8  1  0.17336500  0.20146900  0.98025400  1
  C  C9  1  0.02198500  0.27533600  0.97066500  1
  C  C10  1  0.89449900  0.19851200  0.98464400  1
  C  C11  1  0.25190400  0.71325000  0.01191700  1
  C  C12  1  0.30220000  0.29518000  0.98703600  1
  C  C13  1  0.73992600  0.29178400  0.99102700  1
  C  C14  1  0.68962600  0.70986100  0.01590800  1
  C  C15  1  0.60726100  0.60699600  0.44771900  1
  C  C16  1  0.56380400  0.33537400  0.46052700  1
  C  C17  1  0.54803000  0.35095400  0.56651100  1
  C  C18  1  0.50351300  0.48766000  0.41312800  1
  C  C19  1  0.60103100  0.62162000  0.55398500  1
  C  C20  1  0.48849200  0.51666000  0.58985800  1
  C  C21  1  0.32555100  0.55946200  0.54333200  1
  C  C22  1  0.33470000  0.54288200  0.43736900  1
  C  C23  1  0.48101100  0.53281900  0.69227800  1
  C  C24  1  0.51092600  0.47194400  0.31067900  1
  C  C25  1  0.48532500  0.20549600  0.41649400  1
  C  C26  1  0.55816500  0.11735400  0.34544200  1
  C  C27  1  0.48542600  0.00069500  0.30318900  1
  C  C28  1  0.33984400  0.97083400  0.33025600  1
  C  C29  1  0.26613500  0.05804900  0.39983600  1
  C  C30  1  0.33776700  0.17493900  0.44250300  1
  N  N1  1  0.47742900  0.54078400  0.77357000  1
  N  N2  1  0.51441600  0.46424400  0.22937600  1
  Cl  Cl1  1  0.74025800  0.15324800  0.30382700  1
  O  O1  1  0.30087900  0.67439800  0.92761300  1
  O  O2  1  0.31994900  0.65032700  0.08968700  1
  O  O3  1  0.35301600  0.33259800  0.07174900  1
  O  O4  1  0.34346300  0.35644000  0.90959600  1
  O  O5  1  0.69095300  0.33063900  0.07532800  1
  O  O6  1  0.67188100  0.35470800  0.91326000  1
  O  O7  1  0.63881500  0.67244000  0.93119700  1
  O  O8  1  0.64836700  0.64859900  0.09334900  1
