# generated using pymatgen
data_ZnH7C16NO8
_symmetry_space_group_name_H-M   'P 1'
_cell_length_a   11.89799300
_cell_length_b   13.03197000
_cell_length_c   14.05356800
_cell_angle_alpha   90.41923400
_cell_angle_beta   81.18175800
_cell_angle_gamma   91.19753500
_symmetry_Int_Tables_number   1
_chemical_formula_structural   ZnH7C16NO8
_chemical_formula_sum   'Zn2 H14 C32 N2 O16'
_cell_volume   2152.81962245
_cell_formula_units_Z   2
loop_
 _symmetry_equiv_pos_site_id
 _symmetry_equiv_pos_as_xyz
  1  'x, y, z'
loop_
 _atom_site_type_symbol
 _atom_site_label
 _atom_site_symmetry_multiplicity
 _atom_site_fract_x
 _atom_site_fract_y
 _atom_site_fract_z
 _atom_site_occupancy
  Zn  Zn1  1  0.36897600  0.50690500  0.51067800  1
  Zn  Zn2  1  0.62617700  0.49116300  0.49325600  1
  H  H1  1  0.40818100  0.58206300  0.02365700  1
  H  H2  1  0.58697600  0.41602800  0.98027500  1
  H  H3  1  0.62408500  0.16729300  0.43469700  1
  H  H4  1  0.37119600  0.83083900  0.56893600  1
  H  H5  1  0.70033400  0.00715500  0.38183200  1
  H  H6  1  0.29463600  0.99093600  0.62143400  1
  H  H7  1  0.19151800  0.40014000  0.42222900  1
  H  H8  1  0.80311800  0.59784000  0.58180400  1
  H  H9  1  0.19281000  0.63279300  0.62678900  1
  H  H10  1  0.80257900  0.36537400  0.37707000  1
  H  H11  1  0.24510200  0.30232100  0.74337800  1
  H  H12  1  0.86687700  0.80591900  0.28458100  1
  H  H13  1  0.14284400  0.31022000  0.22520900  1
  H  H14  1  0.98438200  0.79210300  0.74271400  1
  C  C1  1  0.51883100  0.69875600  0.48377300  1
  C  C2  1  0.47633600  0.29931600  0.52011200  1
  C  C3  1  0.48227000  0.51647000  0.68889100  1
  C  C4  1  0.51288500  0.48160600  0.31504300  1
  C  C5  1  0.52047100  0.47559000  0.21226300  1
  C  C6  1  0.47468400  0.52249300  0.79167100  1
  C  C7  1  0.53020000  0.46845600  0.02317900  1
  C  C8  1  0.46495700  0.52963400  0.98075500  1
  C  C9  1  0.46978100  0.52618600  0.87790800  1
  C  C10  1  0.52537500  0.47190200  0.12602500  1
  C  C11  1  0.46641200  0.18696500  0.52837900  1
  C  C12  1  0.52883400  0.81113000  0.47520400  1
  C  C13  1  0.62916900  0.96741900  0.42390900  1
  C  C14  1  0.36587200  0.03073300  0.57947000  1
  C  C15  1  0.62161700  0.86142600  0.42090300  1
  C  C16  1  0.37352200  0.13675600  0.58243100  1
  C  C17  1  0.44341400  0.86873100  0.52646200  1
  C  C18  1  0.55181600  0.12939700  0.47709800  1
  C  C19  1  0.45087200  0.97445800  0.52686900  1
  C  C20  1  0.54426100  0.02368100  0.47661100  1
  C  C21  1  0.96694400  0.40509200  0.41111300  1
  C  C22  1  0.02838200  0.59335200  0.59297500  1
  C  C23  1  0.85020700  0.41210600  0.42137400  1
  C  C24  1  0.14510100  0.58608700  0.58255200  1
  C  C25  1  0.85152400  0.54186900  0.53709000  1
  C  C26  1  0.14344400  0.45632100  0.46693700  1
  C  C27  1  0.96815400  0.53333400  0.53441400  1
  C  C28  1  0.02690200  0.46509200  0.46973400  1
  C  C29  1  0.28599700  0.19105600  0.64832400  1
  C  C30  1  0.70920900  0.80755600  0.35462600  1
  C  C31  1  0.02197500  0.33525900  0.33605600  1
  C  C32  1  0.97417500  0.66358700  0.66811900  1
  N  N1  1  0.20003300  0.51764100  0.52143700  1
  N  N2  1  0.79512100  0.48044900  0.48251100  1
  O  O1  1  0.41634500  0.65686900  0.49577400  1
  O  O2  1  0.57882000  0.34119800  0.50812300  1
  O  O3  1  0.61131200  0.64508800  0.48242200  1
  O  O4  1  0.38382400  0.35297400  0.52154500  1
  O  O5  1  0.38804700  0.51839900  0.65121400  1
  O  O6  1  0.60711900  0.47971100  0.35271400  1
  O  O7  1  0.58325000  0.50654800  0.63771800  1
  O  O8  1  0.41189300  0.49149400  0.36621700  1
  O  O9  1  0.18960800  0.15511100  0.66519100  1
  O  O10  1  0.31444400  0.27747600  0.69905900  1
  O  O11  1  0.68482900  0.73067200  0.31157400  1
  O  O12  1  0.81843700  0.84998500  0.33367600  1
  O  O13  1  0.97496300  0.25407100  0.32084100  1
  O  O14  1  0.12001400  0.36572600  0.27472000  1
  O  O15  1  0.88698200  0.63826800  0.72081400  1
  O  O16  1  0.02983100  0.75486000  0.68662100  1
