# generated using pymatgen
data_Cu3H4C40(NO3)12
_symmetry_space_group_name_H-M   'P 1'
_cell_length_a   32.00746300
_cell_length_b   32.00835500
_cell_length_c   35.23025200
_cell_angle_alpha   90.00000000
_cell_angle_beta   90.00000000
_cell_angle_gamma   90.00000000
_symmetry_Int_Tables_number   1
_chemical_formula_structural   Cu3H4C40(NO3)12
_chemical_formula_sum   'Cu12 H16 C160 N48 O144'
_cell_volume   36093.61295276
_cell_formula_units_Z   4
loop_
 _symmetry_equiv_pos_site_id
 _symmetry_equiv_pos_as_xyz
  1  'x, y, z'
loop_
 _atom_site_type_symbol
 _atom_site_label
 _atom_site_symmetry_multiplicity
 _atom_site_fract_x
 _atom_site_fract_y
 _atom_site_fract_z
 _atom_site_occupancy
  Cu  Cu1  1  0.99999900  0.54020200  0.99999900  1
  Cu  Cu2  1  0.54066800  0.00036900  0.00001600  1
  Cu  Cu3  1  0.99999900  0.45886900  0.00000300  1
  Cu  Cu4  1  0.45933300  0.00037000  0.99998100  1
  Cu  Cu5  1  0.50001400  0.04070400  0.49999900  1
  Cu  Cu6  1  0.04066500  0.50000000  0.50001800  1
  Cu  Cu7  1  0.49999500  0.95937100  0.49999900  1
  Cu  Cu8  1  0.95933000  0.49998100  0.49998400  1
  Cu  Cu9  1  0.49997500  0.50036700  0.96214200  1
  Cu  Cu10  1  0.50002300  0.50036700  0.03785800  1
  Cu  Cu11  1  0.99998200  0.00001000  0.46215200  1
  Cu  Cu12  1  0.00002700  0.99997500  0.53784800  1
  H  H1  1  0.95467400  0.45144100  0.61743700  1
  H  H2  1  0.45151900  0.04533600  0.61746700  1
  H  H3  1  0.04523400  0.54841500  0.61753000  1
  H  H4  1  0.54847200  0.95475300  0.61749400  1
  H  H5  1  0.95474400  0.54843000  0.38247500  1
  H  H6  1  0.45152300  0.95476500  0.38250400  1
  H  H7  1  0.04532900  0.45147900  0.38256300  1
  H  H8  1  0.54850000  0.04532200  0.38252900  1
  H  H9  1  0.45461600  0.95188700  0.11743600  1
  H  H10  1  0.95149200  0.54490900  0.11745500  1
  H  H11  1  0.54530200  0.04874500  0.11753000  1
  H  H12  1  0.04836300  0.45423600  0.11751700  1
  H  H13  1  0.45470500  0.04875000  0.88246700  1
  H  H14  1  0.95163700  0.45421700  0.88249200  1
  H  H15  1  0.54537900  0.95188000  0.88256100  1
  H  H16  1  0.04849700  0.54490100  0.88254100  1
  C  C1  1  0.92111300  0.49953400  0.99993500  1
  C  C2  1  0.50000100  0.07925300  0.99999800  1
  C  C3  1  0.07888500  0.49953400  0.00006800  1
  C  C4  1  0.50000000  0.92148700  0.99999900  1
  C  C5  1  0.42112100  0.00005600  0.49999800  1
  C  C6  1  0.99997900  0.57887300  0.50001400  1
  C  C7  1  0.57888700  0.00001900  0.50000000  1
  C  C8  1  0.00001600  0.42110900  0.49998800  1
  C  C9  1  0.00006400  0.49953400  0.92810500  1
  C  C10  1  0.50003400  0.00035900  0.92810200  1
  C  C11  1  0.99993300  0.49954300  0.07189800  1
  C  C12  1  0.49996700  0.00035900  0.07189500  1
  C  C13  1  0.50000800  0.00003700  0.42810300  1
  C  C14  1  0.00003000  0.49999500  0.42810500  1
  C  C15  1  0.50000000  0.00003800  0.57189500  1
  C  C16  1  0.99996400  0.49997000  0.57189700  1
  C  C17  1  0.97506500  0.47176000  0.67215400  1
  C  C18  1  0.47191100  0.02497500  0.67217100  1
  C  C19  1  0.02485600  0.52795500  0.67221000  1
  C  C20  1  0.52809600  0.97517200  0.67218700  1
  C  C21  1  0.97512500  0.52797600  0.32779400  1
  C  C22  1  0.47190400  0.97517800  0.32781000  1
  C  C23  1  0.02492900  0.47179300  0.32784700  1
  C  C24  1  0.52810100  0.02496700  0.32782500  1
  C  C25  1  0.47502900  0.97218400  0.17215400  1
  C  C26  1  0.97187800  0.52456700  0.17216700  1
  C  C27  1  0.52489400  0.02831300  0.17220800  1
  C  C28  1  0.02801500  0.47471100  0.17220100  1
  C  C29  1  0.47511200  0.02831600  0.82778900  1
  C  C30  1  0.97197900  0.47468800  0.82780600  1
  C  C31  1  0.52497000  0.97218100  0.82784400  1
  C  C32  1  0.02810900  0.52455200  0.82783200  1
  C  C33  1  0.97405900  0.47313600  0.63297800  1
  C  C34  1  0.47323000  0.02595300  0.63299300  1
  C  C35  1  0.02584900  0.52668400  0.63303000  1
  C  C36  1  0.52676600  0.97415100  0.63300900  1
  C  C37  1  0.97413400  0.52670400  0.36697500  1
  C  C38  1  0.47323500  0.97415700  0.36698900  1
  C  C39  1  0.02593700  0.47317000  0.36702300  1
  C  C40  1  0.52678400  0.02594500  0.36700400  1
  C  C41  1  0.47402900  0.97355800  0.13297700  1
  C  C42  1  0.97318600  0.52551400  0.13298700  1
  C  C43  1  0.52588700  0.02703900  0.13302800  1
  C  C44  1  0.02667500  0.47366300  0.13302300  1
  C  C45  1  0.47411700  0.02704200  0.86696900  1
  C  C46  1  0.97332200  0.47364400  0.86698300  1
  C  C47  1  0.52596900  0.97355400  0.86702100  1
  C  C48  1  0.02680400  0.52550200  0.86701200  1
  C  C49  1  0.99995400  0.49993300  0.61340100  1
  C  C50  1  0.49999700  0.00004400  0.61339800  1
  C  C51  1  0.00003800  0.49996100  0.38660200  1
  C  C52  1  0.50001100  0.00004300  0.38659900  1
  C  C53  1  0.49995700  0.00032200  0.11339900  1
  C  C54  1  0.99992400  0.49956500  0.11340200  1
  C  C55  1  0.50004400  0.00032200  0.88659800  1
  C  C56  1  0.00007100  0.49955200  0.88660000  1
  C  C57  1  0.99996600  0.49982800  0.69200700  1
  C  C58  1  0.50000900  0.00008800  0.69200400  1
  C  C59  1  0.00002000  0.49985500  0.30799600  1
  C  C60  1  0.49999700  0.00008700  0.30799300  1
  C  C61  1  0.49996400  0.00022300  0.19200600  1
  C  C62  1  0.99995700  0.49966700  0.19200900  1
  C  C63  1  0.50003900  0.00022300  0.80799100  1
  C  C64  1  0.00003300  0.49964700  0.80799400  1
  C  C65  1  0.99998600  0.49976300  0.73287400  1
  C  C66  1  0.50002300  0.00012800  0.73287100  1
  C  C67  1  0.00000000  0.49978900  0.26712900  1
  C  C68  1  0.49998200  0.00012700  0.26712600  1
  C  C69  1  0.49997200  0.00016900  0.23287300  1
  C  C70  1  0.99998100  0.49973200  0.23287500  1
  C  C71  1  0.50003100  0.00016900  0.76712500  1
  C  C72  1  0.00000500  0.49970800  0.76712700  1
  C  C73  1  0.72889900  0.47309800  0.02370200  1
  C  C74  1  0.47332400  0.27136100  0.02400800  1
  C  C75  1  0.27090500  0.52643300  0.02433200  1
  C  C76  1  0.52666100  0.72938500  0.02402300  1
  C  C77  1  0.72909400  0.52643200  0.97566900  1
  C  C78  1  0.47333800  0.72938500  0.97597700  1
  C  C79  1  0.27109900  0.47309900  0.97629900  1
  C  C80  1  0.52667700  0.27136100  0.97599000  1
  C  C81  1  0.22904200  0.97339100  0.52411800  1
  C  C82  1  0.97328800  0.77095700  0.52413400  1
  C  C83  1  0.77101900  0.02662500  0.52392800  1
  C  C84  1  0.02671400  0.22898700  0.52389700  1
  C  C85  1  0.22899300  0.02672700  0.47608500  1
  C  C86  1  0.97337800  0.22902300  0.47586300  1
  C  C87  1  0.77096400  0.97330100  0.47588400  1
  C  C88  1  0.02661300  0.77100000  0.47609100  1
  C  C89  1  0.70751200  0.49982900  0.99967100  1
  C  C90  1  0.50000000  0.29284400  0.99999900  1
  C  C91  1  0.29248600  0.49983000  0.00033000  1
  C  C92  1  0.49999900  0.70790300  0.00000000  1
  C  C93  1  0.20753500  0.00005600  0.50011700  1
  C  C94  1  0.99995100  0.79246100  0.50012800  1
  C  C95  1  0.79247300  0.99995800  0.49989000  1
  C  C96  1  0.00004800  0.20752300  0.49986500  1
  C  C97  1  0.77240400  0.52645200  0.97583000  1
  C  C98  1  0.52680500  0.22805100  0.97610800  1
  C  C99  1  0.22778500  0.47286200  0.97637500  1
  C  C100  1  0.47321000  0.77269500  0.97609500  1
  C  C101  1  0.77221300  0.47286100  0.02362600  1
  C  C102  1  0.52678900  0.77269500  0.02390400  1
  C  C103  1  0.22759500  0.52645300  0.02417200  1
  C  C104  1  0.47319600  0.22805000  0.02389000  1
  C  C105  1  0.27230400  0.02686000  0.47617200  1
  C  C106  1  0.02674400  0.72769000  0.47618000  1
  C  C107  1  0.72765300  0.97318400  0.47603400  1
  C  C108  1  0.97324600  0.27233300  0.47601200  1
  C  C109  1  0.27235200  0.97326700  0.52396800  1
  C  C110  1  0.02683800  0.27229700  0.52380900  1
  C  C111  1  0.72770800  0.02676500  0.52384100  1
  C  C112  1  0.97316200  0.72764700  0.52398600  1
  C  C113  1  0.79379100  0.49961300  0.99975600  1
  C  C114  1  0.50000100  0.20656900  0.99999900  1
  C  C115  1  0.20620700  0.49961400  0.00024500  1
  C  C116  1  0.50000000  0.79417500  0.99999900  1
  C  C117  1  0.29380800  0.00006600  0.50005500  1
  C  C118  1  0.99995600  0.70618700  0.50006900  1
  C  C119  1  0.70620000  0.99998100  0.49995100  1
  C  C120  1  0.00004000  0.29379600  0.49992500  1
  C  C121  1  0.66261600  0.50003600  0.99968100  1
  C  C122  1  0.50000000  0.33773900  0.00000000  1
  C  C123  1  0.33738200  0.50003600  0.00032000  1
  C  C124  1  0.49999900  0.66301000  0.00000000  1
  C  C125  1  0.16264200  0.00005000  0.50015300  1
  C  C126  1  0.99995500  0.83735500  0.50016500  1
  C  C127  1  0.83736600  0.99995500  0.49985000  1
  C  C128  1  0.00004900  0.16262900  0.49983200  1
  C  C129  1  0.83868500  0.49955200  0.99983000  1
  C  C130  1  0.50000100  0.16167700  0.99999900  1
  C  C131  1  0.16131300  0.49955300  0.00017200  1
  C  C132  1  0.50000000  0.83906600  0.99999900  1
  C  C133  1  0.33869900  0.00007000  0.50002600  1
  C  C134  1  0.99996400  0.66129600  0.50004500  1
  C  C135  1  0.66131000  0.99999800  0.49997600  1
  C  C136  1  0.00003600  0.33868700  0.49995300  1
  C  C137  1  0.87632700  0.49953200  0.99988300  1
  C  C138  1  0.50000100  0.12403600  0.99999900  1
  C  C139  1  0.12367100  0.49953300  0.00011900  1
  C  C140  1  0.50000000  0.87670600  0.99999900  1
  C  C141  1  0.37633900  0.00006800  0.50000900  1
  C  C142  1  0.99997100  0.62365600  0.50002900  1
  C  C143  1  0.62366900  0.00001000  0.49999000  1
  C  C144  1  0.00002800  0.37632700  0.49997200  1
  C  C145  1  0.62497200  0.50029100  0.99968600  1
  C  C146  1  0.50000000  0.37538200  0.00000000  1
  C  C147  1  0.37502600  0.50029100  0.00031400  1
  C  C148  1  0.49999900  0.62536800  0.00000000  1
  C  C149  1  0.12500000  0.00004000  0.50018600  1
  C  C150  1  0.99996200  0.87499800  0.50019700  1
  C  C151  1  0.87500900  0.99995600  0.49981400  1
  C  C152  1  0.00004500  0.12498700  0.49980200  1
  C  C153  1  0.49999900  0.42017100  0.00000000  1
  C  C154  1  0.41981600  0.50070400  0.00031300  1
  C  C155  1  0.49999900  0.58058000  0.00000000  1
  C  C156  1  0.58018300  0.50070400  0.99968700  1
  C  C157  1  0.99997600  0.91978600  0.50023800  1
  C  C158  1  0.91979700  0.99996500  0.49976900  1
  C  C159  1  0.00003400  0.08019900  0.49976100  1
  C  C160  1  0.08021200  0.00002300  0.50023000  1
  N  N1  1  0.95051300  0.44112000  0.69148600  1
  N  N2  1  0.44130400  0.04954600  0.69152700  1
  N  N3  1  0.04941400  0.55854300  0.69160300  1
  N  N4  1  0.55870700  0.95062000  0.69155700  1
  N  N5  1  0.95055700  0.55855700  0.30840200  1
  N  N6  1  0.44128600  0.95063300  0.30844200  1
  N  N7  1  0.04948600  0.44115800  0.30851400  1
  N  N8  1  0.55871300  0.04953100  0.30846900  1
  N  N9  1  0.45043300  0.94157900  0.19148600  1
  N  N10  1  0.94130600  0.54918900  0.19151400  1
  N  N11  1  0.54949400  0.05886800  0.19160100  1
  N  N12  1  0.05861000  0.45014600  0.19157900  1
  N  N13  1  0.45051600  0.05887400  0.80839600  1
  N  N14  1  0.94138600  0.45011700  0.80843100  1
  N  N15  1  0.54956100  0.94157200  0.80851200  1
  N  N16  1  0.05867700  0.54917600  0.80848100  1
  N  N17  1  0.79465300  0.44664900  0.04937700  1
  N  N18  1  0.44702400  0.20551500  0.04960600  1
  N  N19  1  0.20496600  0.55256600  0.04986800  1
  N  N20  1  0.55294600  0.79523000  0.04963300  1
  N  N21  1  0.79503300  0.55256600  0.95013400  1
  N  N22  1  0.44705400  0.79522900  0.95036600  1
  N  N23  1  0.20534500  0.44665000  0.95062500  1
  N  N24  1  0.55297800  0.20551700  0.95039200  1
  N  N25  1  0.29491300  0.94710600  0.54967400  1
  N  N26  1  0.94700600  0.70509000  0.54969900  1
  N  N27  1  0.70520100  0.05292800  0.54958400  1
  N  N28  1  0.05299900  0.29481300  0.54954800  1
  N  N29  1  0.29481400  0.05302500  0.45043200  1
  N  N30  1  0.94708000  0.29488700  0.45030400  1
  N  N31  1  0.70508900  0.94703300  0.45032200  1
  N  N32  1  0.05290400  0.70517800  0.45043700  1
  N  N33  1  0.70626600  0.44449200  0.04710200  1
  N  N34  1  0.44464800  0.29389300  0.04741800  1
  N  N35  1  0.29333800  0.55516100  0.04776700  1
  N  N36  1  0.55532100  0.70685200  0.04744800  1
  N  N37  1  0.70666100  0.55516000  0.95223400  1
  N  N38  1  0.44467800  0.70685200  0.95255200  1
  N  N39  1  0.29373100  0.44449300  0.95289800  1
  N  N40  1  0.55535300  0.29389400  0.95258100  1
  N  N41  1  0.20653200  0.94472100  0.54755200  1
  N  N42  1  0.94462500  0.79346900  0.54757300  1
  N  N43  1  0.79358000  0.05528000  0.54733500  1
  N  N44  1  0.05538400  0.20643700  0.54729900  1
  N  N45  1  0.20643500  0.05539200  0.45268400  1
  N  N46  1  0.94471300  0.20650800  0.45242900  1
  N  N47  1  0.79347000  0.94463500  0.45244400  1
  N  N48  1  0.05527500  0.79355300  0.45268300  1
  O  O1  1  0.94060700  0.53383600  0.98891200  1
  O  O2  1  0.53430900  0.05977000  0.98897300  1
  O  O3  1  0.05941300  0.46523300  0.98901200  1
  O  O4  1  0.46570400  0.94096900  0.98894400  1
  O  O5  1  0.94058500  0.46523400  0.01099500  1
  O  O6  1  0.53429700  0.94096900  0.01105400  1
  O  O7  1  0.05939100  0.53383800  0.01108700  1
  O  O8  1  0.46569300  0.05977100  0.01102400  1
  O  O9  1  0.44061000  0.03435200  0.48895500  1
  O  O10  1  0.03429100  0.55940200  0.48898300  1
  O  O11  1  0.55939900  0.96572200  0.48895800  1
  O  O12  1  0.96571500  0.44058400  0.48893600  1
  O  O13  1  0.44059400  0.96575000  0.51104000  1
  O  O14  1  0.03430800  0.44059600  0.51104800  1
  O  O15  1  0.55941400  0.03432500  0.51104200  1
  O  O16  1  0.96567600  0.55938100  0.51103800  1
  O  O17  1  0.01223600  0.53379200  0.94590200  1
  O  O18  1  0.53428800  0.98818300  0.94590700  1
  O  O19  1  0.98786800  0.46527300  0.94588600  1
  O  O20  1  0.46576800  0.01255300  0.94587600  1
  O  O21  1  0.01213100  0.46528000  0.05412000  1
  O  O22  1  0.53423400  0.01255300  0.05412100  1
  O  O23  1  0.98776200  0.53379900  0.05409700  1
  O  O24  1  0.46571300  0.98818400  0.05409100  1
  O  O25  1  0.51220100  0.03429300  0.44589200  1
  O  O26  1  0.03428600  0.48782200  0.44590700  1
  O  O27  1  0.48781100  0.96578100  0.44589200  1
  O  O28  1  0.96576100  0.51217800  0.44588200  1
  O  O29  1  0.51218200  0.96577600  0.55410600  1
  O  O30  1  0.03422800  0.51217400  0.55412500  1
  O  O31  1  0.48782300  0.03429900  0.55410500  1
  O  O32  1  0.96571400  0.48778600  0.55409200  1
  O  O33  1  0.50165700  0.43956700  0.96720200  1
  O  O34  1  0.43920400  0.49885200  0.96755500  1
  O  O35  1  0.50174200  0.56115500  0.96728100  1
  O  O36  1  0.56079800  0.49876300  0.96694300  1
  O  O37  1  0.49825600  0.56115500  0.03271900  1
  O  O38  1  0.43920000  0.49876300  0.03305700  1
  O  O39  1  0.49834200  0.43956700  0.03279800  1
  O  O40  1  0.56079400  0.49885200  0.03244500  1
  O  O41  1  0.99825600  0.93923800  0.46749900  1
  O  O42  1  0.93916600  0.00173500  0.46700300  1
  O  O43  1  0.99827100  0.06082600  0.46699600  1
  O  O44  1  0.06075700  0.00172500  0.46749200  1
  O  O45  1  0.00174100  0.06074700  0.53250200  1
  O  O46  1  0.93925300  0.99824800  0.53250700  1
  O  O47  1  0.00175100  0.93915900  0.53300200  1
  O  O48  1  0.06084400  0.99826300  0.53299700  1
  O  O49  1  0.91683000  0.42688200  0.67541600  1
  O  O50  1  0.96621400  0.42074700  0.72006300  1
  O  O51  1  0.42704600  0.08321700  0.67545300  1
  O  O52  1  0.42097200  0.03386900  0.72013900  1
  O  O53  1  0.08308400  0.57283500  0.67555100  1
  O  O54  1  0.03372500  0.57882800  0.72023800  1
  O  O55  1  0.57296200  0.91693300  0.67550900  1
  O  O56  1  0.57904400  0.96632300  0.72015500  1
  O  O57  1  0.91688600  0.57284200  0.32445600  1
  O  O58  1  0.96623700  0.57884500  0.27976400  1
  O  O59  1  0.42702400  0.91695000  0.32449000  1
  O  O60  1  0.42095300  0.96634100  0.27984300  1
  O  O61  1  0.08317500  0.42693000  0.32458100  1
  O  O62  1  0.03378400  0.42077700  0.27994100  1
  O  O63  1  0.57298100  0.08319800  0.32454300  1
  O  O64  1  0.57903900  0.03385000  0.27985500  1
  O  O65  1  0.41673600  0.92738100  0.17541300  1
  O  O66  1  0.46610200  0.92119300  0.22007100  1
  O  O67  1  0.92707900  0.58286200  0.17542200  1
  O  O68  1  0.92096900  0.53356100  0.22014600  1
  O  O69  1  0.58319000  0.07310400  0.17555400  1
  O  O70  1  0.53383000  0.07918300  0.22023000  1
  O  O71  1  0.07282500  0.41643100  0.17555100  1
  O  O72  1  0.07897400  0.46585700  0.22015700  1
  O  O73  1  0.41682200  0.07311400  0.82444300  1
  O  O74  1  0.46618400  0.07918800  0.77976800  1
  O  O75  1  0.92717500  0.41640300  0.82446300  1
  O  O76  1  0.92102000  0.46582100  0.77985100  1
  O  O77  1  0.58325600  0.92737000  0.82458500  1
  O  O78  1  0.53388900  0.92118800  0.77992800  1
  O  O79  1  0.07290100  0.58285300  0.82457000  1
  O  O80  1  0.07901300  0.53354800  0.77984900  1
  O  O81  1  0.82443800  0.42250100  0.03714700  1
  O  O82  1  0.78431900  0.44561600  0.08506900  1
  O  O83  1  0.42291400  0.17572400  0.03732600  1
  O  O84  1  0.44595900  0.21579300  0.08531000  1
  O  O85  1  0.17516700  0.57664600  0.03755400  1
  O  O86  1  0.21519000  0.55364000  0.08558500  1
  O  O87  1  0.57706500  0.82501900  0.03736500  1
  O  O88  1  0.55399000  0.78495200  0.08533800  1
  O  O89  1  0.82483200  0.57664500  0.96244900  1
  O  O90  1  0.78481000  0.55363900  0.91441700  1
  O  O91  1  0.42293400  0.82501900  0.96263300  1
  O  O92  1  0.44600900  0.78495100  0.91466100  1
  O  O93  1  0.17555900  0.42250200  0.96285500  1
  O  O94  1  0.21567800  0.44561700  0.91493300  1
  O  O95  1  0.57708800  0.17572500  0.96267100  1
  O  O96  1  0.55404300  0.21579500  0.91468800  1
  O  O97  1  0.32469100  0.92298900  0.53737600  1
  O  O98  1  0.28466800  0.94605100  0.58538600  1
  O  O99  1  0.92289100  0.67530700  0.53741000  1
  O  O100  1  0.94595900  0.71533900  0.58541000  1
  O  O101  1  0.67540600  0.07705400  0.53733600  1
  O  O102  1  0.71551000  0.05397100  0.58528200  1
  O  O103  1  0.07710900  0.32461900  0.53729700  1
  O  O104  1  0.05405400  0.28450400  0.58524500  1
  O  O105  1  0.32461800  0.07713900  0.46268300  1
  O  O106  1  0.28450300  0.05407900  0.41473600  1
  O  O107  1  0.92295900  0.32466100  0.46259900  1
  O  O108  1  0.94602900  0.28464000  0.41459200  1
  O  O109  1  0.67530300  0.92292200  0.46261200  1
  O  O110  1  0.71533500  0.94598400  0.41461000  1
  O  O111  1  0.07702500  0.67538000  0.46268600  1
  O  O112  1  0.05394900  0.71548500  0.41473900  1
  O  O113  1  0.67648500  0.45774800  0.06915000  1
  O  O114  1  0.71644800  0.40515800  0.04758900  1
  O  O115  1  0.45781900  0.32367700  0.06950300  1
  O  O116  1  0.40533800  0.28361100  0.04787900  1
  O  O117  1  0.32312500  0.54205700  0.06988300  1
  O  O118  1  0.28295800  0.59444300  0.04822300  1
  O  O119  1  0.54213300  0.67707200  0.06952900  1
  O  O120  1  0.59463100  0.71713100  0.04792900  1
  O  O121  1  0.67687400  0.54205700  0.93011700  1
  O  O122  1  0.71704100  0.59444300  0.95177800  1
  O  O123  1  0.45786600  0.67707100  0.93047100  1
  O  O124  1  0.40536900  0.71713100  0.95207100  1
  O  O125  1  0.32351300  0.45774800  0.93085100  1
  O  O126  1  0.28354900  0.40515900  0.95241200  1
  O  O127  1  0.54218100  0.32367800  0.93049600  1
  O  O128  1  0.59466200  0.28361300  0.95212000  1
  O  O129  1  0.17677100  0.95789900  0.56966100  1
  O  O130  1  0.21681600  0.90541400  0.54801500  1
  O  O131  1  0.95781000  0.82323100  0.56967700  1
  O  O132  1  0.90531600  0.78318700  0.54804400  1
  O  O133  1  0.82338100  0.04208700  0.56939200  1
  O  O134  1  0.78331000  0.09459100  0.54782200  1
  O  O135  1  0.04220700  0.17663100  0.56935700  1
  O  O136  1  0.09469200  0.21672200  0.54778000  1
  O  O137  1  0.17663000  0.04220900  0.43062700  1
  O  O138  1  0.21671200  0.09470100  0.45220400  1
  O  O139  1  0.95789700  0.17674800  0.43032300  1
  O  O140  1  0.90540200  0.21678500  0.45196500  1
  O  O141  1  0.82323200  0.95781500  0.43033800  1
  O  O142  1  0.78318000  0.90532900  0.45197300  1
  O  O143  1  0.04208700  0.82335500  0.43062400  1
  O  O144  1  0.09458400  0.78327600  0.45219700  1
