# generated using pymatgen
data_Zn2H14C29N4O9
_symmetry_space_group_name_H-M   'P 1'
_cell_length_a   8.52857100
_cell_length_b   10.73886200
_cell_length_c   13.40317400
_cell_angle_alpha   97.67161200
_cell_angle_beta   90.09587900
_cell_angle_gamma   90.00837300
_symmetry_Int_Tables_number   1
_chemical_formula_structural   Zn2H14C29N4O9
_chemical_formula_sum   'Zn2 H14 C29 N4 O9'
_cell_volume   1216.56937284
_cell_formula_units_Z   1
loop_
 _symmetry_equiv_pos_site_id
 _symmetry_equiv_pos_as_xyz
  1  'x, y, z'
loop_
 _atom_site_type_symbol
 _atom_site_label
 _atom_site_symmetry_multiplicity
 _atom_site_fract_x
 _atom_site_fract_y
 _atom_site_fract_z
 _atom_site_occupancy
  Zn  Zn1  1  0.50261400  0.49817400  0.11525900  1
  Zn  Zn2  1  0.49611900  0.50611900  0.89341100  1
  H  H1  1  0.99745300  0.59340100  0.06094400  1
  H  H2  1  0.99425900  0.40865600  0.94745200  1
  H  H3  1  0.25575500  0.91056900  0.00907700  1
  H  H4  1  0.24861000  0.10305400  0.02630500  1
  H  H5  1  0.49914800  0.70590000  0.77812200  1
  H  H6  1  0.49780200  0.30027300  0.24163700  1
  H  H7  1  0.49116400  0.19645400  0.38824200  1
  H  H8  1  0.50323100  0.71553300  0.60109900  1
  H  H9  1  0.51112000  0.71162300  0.44707400  1
  H  H10  1  0.48710800  0.31166900  0.72983900  1
  H  H11  1  0.51360200  0.69400200  0.26833000  1
  H  H12  1  0.59202100  0.14108200  0.87050400  1
  H  H13  1  0.51491400  0.16209600  0.99945700  1
  H  H14  1  0.41356200  0.01533200  0.85390200  1
  C  C1  1  0.99893500  0.69106100  0.04973900  1
  C  C2  1  0.13928400  0.74977900  0.03892600  1
  C  C3  1  0.14218700  0.87264500  0.02086500  1
  C  C4  1  0.86097200  0.75021900  0.03232700  1
  C  C5  1  0.86269600  0.87388500  0.01347000  1
  C  C6  1  0.00310500  0.93864600  0.01297300  1
  C  C7  1  0.00103800  0.06507600  0.99829000  1
  C  C8  1  0.13784600  0.13631500  0.00268300  1
  C  C9  1  0.13609500  0.25601400  0.97763200  1
  C  C10  1  0.72239400  0.04996000  0.97547700  1
  C  C11  1  0.85847300  0.12225200  0.98154700  1
  C  C12  1  0.85678100  0.24912300  0.96808100  1
  C  C13  1  0.99607400  0.31109900  0.95895500  1
  C  C14  1  0.28091500  0.67340000  0.02818400  1
  C  C15  1  0.27789900  0.33293600  0.98602500  1
  C  C16  1  0.71674400  0.32899500  0.98007300  1
  C  C17  1  0.71879100  0.67355200  0.02310100  1
  C  C18  1  0.48988100  0.40020700  0.69984800  1
  C  C19  1  0.49672300  0.61934400  0.72670100  1
  C  C20  1  0.49948000  0.62371500  0.62444100  1
  C  C21  1  0.49802400  0.51312300  0.55747800  1
  C  C22  1  0.49252800  0.40066100  0.59697500  1
  C  C23  1  0.50833100  0.61833100  0.40659800  1
  C  C24  1  0.50196700  0.51063700  0.45305800  1
  C  C25  1  0.49920200  0.39589300  0.39247400  1
  C  C26  1  0.49331400  0.28634600  0.43538500  1
  C  C27  1  0.51050400  0.60902700  0.30328700  1
  C  C28  1  0.50153600  0.39017200  0.28872000  1
  C  C29  1  0.57131200  0.09660700  0.93928700  1
  N  N1  1  0.72779800  0.92937000  0.99249700  1
  N  N2  1  0.49218300  0.50868000  0.76292000  1
  N  N3  1  0.49036300  0.29048300  0.53599800  1
  N  N4  1  0.50702100  0.49640000  0.24585800  1
  O  O1  1  0.32882300  0.63441000  0.93639500  1
  O  O2  1  0.33834300  0.63162700  0.10824600  1
  O  O3  1  0.33191200  0.37102600  0.07672400  1
  O  O4  1  0.33134300  0.37411200  0.90453600  1
  O  O5  1  0.66982500  0.36957700  0.07211400  1
  O  O6  1  0.66002400  0.37231400  0.90036900  1
  O  O7  1  0.66644700  0.63357900  0.93238000  1
  O  O8  1  0.66666667  0.63059500  0.10390700  1
  O  O9  1  0.47236100  0.99426900  0.91316000  1
