# generated using pymatgen
data_Zn2H18C23(NO4)2
_symmetry_space_group_name_H-M   'P 1'
_cell_length_a   13.06907800
_cell_length_b   11.13261700
_cell_length_c   9.95766300
_cell_angle_alpha   89.99741000
_cell_angle_beta   95.33265800
_cell_angle_gamma   90.00594300
_symmetry_Int_Tables_number   1
_chemical_formula_structural   Zn2H18C23(NO4)2
_chemical_formula_sum   'Zn2 H18 C23 N2 O8'
_cell_volume   1442.50020732
_cell_formula_units_Z   1
loop_
 _symmetry_equiv_pos_site_id
 _symmetry_equiv_pos_as_xyz
  1  'x, y, z'
loop_
 _atom_site_type_symbol
 _atom_site_label
 _atom_site_symmetry_multiplicity
 _atom_site_fract_x
 _atom_site_fract_y
 _atom_site_fract_z
 _atom_site_occupancy
  Zn  Zn1  1  0.50053300  0.49750400  0.66578500  1
  Zn  Zn2  1  0.50072300  0.50147700  0.36008700  1
  H  H1  1  0.82703100  0.49892200  0.33836800  1
  H  H2  1  0.82933300  0.49271000  0.76851600  1
  H  H3  1  0.98512100  0.50259200  0.23713600  1
  H  H4  1  0.01614500  0.49466900  0.78888100  1
  H  H5  1  0.17192900  0.50482800  0.25750200  1
  H  H6  1  0.17423600  0.49843000  0.68765400  1
  H  H7  1  0.48059900  0.88435700  0.31287800  1
  H  H8  1  0.51756800  0.90762200  0.62089300  1
  H  H9  1  0.49539100  0.10521100  0.30442800  1
  H  H10  1  0.49249600  0.09541400  0.61130700  1
  H  H11  1  0.57324400  0.65386900  0.88611200  1
  H  H12  1  0.48434800  0.41435800  0.91535400  1
  H  H13  1  0.44355100  0.46234500  0.10739500  1
  H  H14  1  0.70934500  0.64357200  0.11205100  1
  H  H15  1  0.64373000  0.65506900  0.26128300  1
  H  H16  1  0.53101400  0.80894600  0.06104900  1
  H  H17  1  0.74132900  0.86083400  0.21050500  1
  H  H18  1  0.64595600  0.97107400  0.12969600  1
  C  C1  1  0.49790600  0.26467500  0.50628700  1
  C  C2  1  0.29941100  0.50212700  0.48735800  1
  C  C3  1  0.50298400  0.73444100  0.52019400  1
  C  C4  1  0.70185500  0.49580200  0.53867300  1
  C  C5  1  0.81463800  0.49558300  0.55177000  1
  C  C6  1  0.18662800  0.50188500  0.47425100  1
  C  C7  1  0.02653000  0.50170700  0.33629500  1
  C  C8  1  0.13247400  0.50302400  0.34814700  1
  C  C9  1  0.13349400  0.49949300  0.58815700  1
  C  C10  1  0.02740200  0.49807800  0.57593000  1
  C  C11  1  0.97386600  0.49914400  0.45008700  1
  C  C12  1  0.86777400  0.49780300  0.43786100  1
  C  C13  1  0.86879100  0.49438500  0.67787200  1
  C  C14  1  0.97473700  0.49554800  0.68972200  1
  C  C15  1  0.49274000  0.93071000  0.40849200  1
  C  C16  1  0.50496400  0.86616500  0.52277000  1
  C  C17  1  0.49539700  0.06366300  0.40284200  1
  C  C18  1  0.49559800  0.13327200  0.51204500  1
  C  C19  1  0.54185000  0.57878000  0.93785600  1
  C  C20  1  0.55587400  0.57766600  0.08760700  1
  C  C21  1  0.63441100  0.66323200  0.15122800  1
  C  C22  1  0.60450000  0.78954700  0.11649300  1
  C  C23  1  0.66783900  0.87924800  0.15457400  1
  N  N1  1  0.50075900  0.49228100  0.86664400  1
  N  N2  1  0.50249400  0.50863700  0.15928100  1
  O  O1  1  0.49941300  0.31997000  0.62225100  1
  O  O2  1  0.49830700  0.32130500  0.39023500  1
  O  O3  1  0.34764400  0.50102900  0.60899300  1
  O  O4  1  0.34743600  0.50190300  0.37720300  1
  O  O5  1  0.50340200  0.67744700  0.63568400  1
  O  O6  1  0.50236500  0.67926200  0.40381000  1
  O  O7  1  0.65382800  0.49637700  0.64877400  1
  O  O8  1  0.65359700  0.49653900  0.41708900  1
