# generated using pymatgen
data_Zn2H11C20N2ClO8
_symmetry_space_group_name_H-M   'P 1'
_cell_length_a   11.91518500
_cell_length_b   11.13720100
_cell_length_c   9.94749100
_cell_angle_alpha   89.99737600
_cell_angle_beta   89.98892900
_cell_angle_gamma   89.99561700
_symmetry_Int_Tables_number   1
_chemical_formula_structural   Zn2H11C20N2ClO8
_chemical_formula_sum   'Zn2 H11 C20 N2 Cl1 O8'
_cell_volume   1320.05003373
_cell_formula_units_Z   1
loop_
 _symmetry_equiv_pos_site_id
 _symmetry_equiv_pos_as_xyz
  1  'x, y, z'
loop_
 _atom_site_type_symbol
 _atom_site_label
 _atom_site_symmetry_multiplicity
 _atom_site_fract_x
 _atom_site_fract_y
 _atom_site_fract_z
 _atom_site_occupancy
  Zn  Zn1  1  0.49410600  0.50750600  0.63318000  1
  Zn  Zn2  1  0.49013000  0.50842400  0.32686500  1
  H  H1  1  0.49449800  0.89620300  0.27651000  1
  H  H2  1  0.48640500  0.91407200  0.58424500  1
  H  H3  1  0.49077100  0.11740000  0.27448200  1
  H  H4  1  0.49243900  0.10279600  0.58233400  1
  H  H5  1  0.45150200  0.44205400  0.88043400  1
  H  H6  1  0.64911600  0.56751700  0.11027300  1
  H  H7  1  0.41106200  0.50652300  0.07572400  1
  H  H8  1  0.54749500  0.79568500  0.84837200  1
  H  H9  1  0.88787100  0.85694800  0.73650800  1
  H  H10  1  0.93170700  0.64510600  0.78260300  1
  H  H11  1  0.78358900  0.50871000  0.86179100  1
  C  C1  1  0.49165600  0.27315500  0.47847900  1
  C  C2  1  0.27287000  0.50795700  0.48572700  1
  C  C3  1  0.49146100  0.74276300  0.48193600  1
  C  C4  1  0.71136200  0.50792500  0.47427200  1
  C  C5  1  0.15243500  0.50801200  0.48577900  1
  C  C6  1  0.05133600  0.50802700  0.48257000  1
  C  C7  1  0.93290000  0.50801700  0.47744000  1
  C  C8  1  0.83179900  0.50798900  0.47423200  1
  C  C9  1  0.49186000  0.94079600  0.37325200  1
  C  C10  1  0.48980100  0.87428300  0.48554600  1
  C  C11  1  0.49098000  0.07393500  0.37193000  1
  C  C12  1  0.49150600  0.14168600  0.48309900  1
  C  C13  1  0.56937600  0.56318000  0.91046700  1
  C  C14  1  0.57252600  0.54449000  0.05776100  1
  C  C15  1  0.65508900  0.64229600  0.85347600  1
  C  C16  1  0.63128300  0.76185900  0.83089500  1
  C  C17  1  0.71480900  0.83881500  0.78845700  1
  C  C18  1  0.82240400  0.79656100  0.76950700  1
  C  C19  1  0.84694600  0.67782800  0.79526800  1
  C  C20  1  0.76373500  0.60123300  0.83911900  1
  N  N1  1  0.49928200  0.50676600  0.83435000  1
  N  N2  1  0.48627300  0.51130100  0.12581400  1
  Cl  Cl1  1  0.68506600  0.99092400  0.76189300  1
  O  O1  1  0.49271300  0.32908100  0.59432500  1
  O  O2  1  0.49040800  0.32912100  0.36215000  1
  O  O3  1  0.32611800  0.50801300  0.60125800  1
  O  O4  1  0.32384900  0.50842400  0.36905000  1
  O  O5  1  0.49251200  0.68657700  0.59788400  1
  O  O6  1  0.49050400  0.68711200  0.36548700  1
  O  O7  1  0.66039100  0.50805500  0.59102000  1
  O  O8  1  0.65815400  0.50831900  0.35865500  1
