# generated using pymatgen
data_ZnH19C31NO5
_symmetry_space_group_name_H-M   'P 1'
_cell_length_a   15.22017800
_cell_length_b   11.90536800
_cell_length_c   13.40044100
_cell_angle_alpha   90.16295400
_cell_angle_beta   89.99012500
_cell_angle_gamma   90.00000000
_symmetry_Int_Tables_number   1
_chemical_formula_structural   ZnH19C31NO5
_chemical_formula_sum   'Zn2 H38 C62 N2 O10'
_cell_volume   2428.17444293
_cell_formula_units_Z   2
loop_
 _symmetry_equiv_pos_site_id
 _symmetry_equiv_pos_as_xyz
  1  'x, y, z'
loop_
 _atom_site_type_symbol
 _atom_site_label
 _atom_site_symmetry_multiplicity
 _atom_site_fract_x
 _atom_site_fract_y
 _atom_site_fract_z
 _atom_site_occupancy
  Zn  Zn1  1  0.50516600  0.50654800  0.89046600  1
  Zn  Zn2  1  0.49477800  0.51193500  0.11229000  1
  H  H1  1  0.21432800  0.95352300  0.12315600  1
  H  H2  1  0.83329100  0.14363400  0.85317200  1
  H  H3  1  0.25347500  0.68121900  0.85028800  1
  H  H4  1  0.70227300  0.26047400  0.17248200  1
  H  H5  1  0.34393600  0.83315700  0.12034000  1
  H  H6  1  0.70496000  0.26377500  0.85269400  1
  H  H7  1  0.12530300  0.80436500  0.85147900  1
  H  H8  1  0.83016500  0.13562900  0.17069800  1
  H  H9  1  0.18589400  0.10724100  0.84369400  1
  H  H10  1  0.87247900  0.81185100  0.14920000  1
  H  H11  1  0.27279200  0.30462100  0.15088600  1
  H  H12  1  0.66380600  0.81618800  0.86926700  1
  H  H13  1  0.31289700  0.23357400  0.84068800  1
  H  H14  1  0.74472300  0.68804200  0.15229700  1
  H  H15  1  0.14515600  0.18282500  0.15112900  1
  H  H16  1  0.79318200  0.93678800  0.86531700  1
  H  H17  1  0.00108700  0.80337800  0.99206500  1
  H  H18  1  0.99793200  0.21497700  0.01188000  1
  H  H19  1  0.62783600  0.50160800  0.24864900  1
  H  H20  1  0.37199200  0.50318000  0.75389600  1
  H  H21  1  0.71194600  0.48020300  0.39616700  1
  H  H22  1  0.28724000  0.48937400  0.60579000  1
  H  H23  1  0.72064900  0.46734100  0.57501900  1
  H  H24  1  0.27808800  0.48343400  0.42635700  1
  H  H25  1  0.28529100  0.67577600  0.20702600  1
  H  H26  1  0.28990500  0.65535100  0.33754600  1
  H  H27  1  0.20100000  0.51168700  0.10901100  1
  H  H28  1  0.04899500  0.44456700  0.09484000  1
  H  H29  1  0.94713000  0.46636300  0.23610700  1
  H  H30  1  0.99746200  0.55592200  0.39138100  1
  H  H31  1  0.14918400  0.62286900  0.40634700  1
  H  H32  1  0.72851200  0.63855000  0.81044700  1
  H  H33  1  0.71117700  0.64166900  0.67886800  1
  H  H34  1  0.80772100  0.44827700  0.87120500  1
  H  H35  1  0.95571900  0.36749700  0.85828200  1
  H  H36  1  0.04954300  0.41316500  0.71456700  1
  H  H37  1  0.99523600  0.54023700  0.58417800  1
  H  H38  1  0.84710500  0.61990200  0.59576600  1
  C  C1  1  0.30674100  0.74761300  0.98612700  1
  C  C2  1  0.69417800  0.27151100  0.01276800  1
  C  C3  1  0.07924400  0.95242400  0.99267800  1
  C  C4  1  0.92057700  0.06606000  0.00899500  1
  C  C5  1  0.22383800  0.89629200  0.06138900  1
  C  C6  1  0.80315500  0.16707200  0.92325000  1
  C  C7  1  0.24651300  0.74285400  0.90915200  1
  C  C8  1  0.72924800  0.23341000  0.10178500  1
  C  C9  1  0.29636400  0.82678200  0.06069600  1
  C  C10  1  0.73058300  0.23577800  0.92355600  1
  C  C11  1  0.16158500  0.88842800  0.98662600  1
  C  C12  1  0.83860700  0.12992200  0.01161100  1
  C  C13  1  0.17369300  0.81188800  0.91017900  1
  C  C14  1  0.80140300  0.16273800  0.10105100  1
  C  C15  1  0.30216700  0.27800700  0.99555200  1
  C  C16  1  0.69568000  0.74310800  0.01063100  1
  C  C17  1  0.07803100  0.06867300  0.99962300  1
  C  C18  1  0.92142600  0.95001300  0.00341300  1
  C  C19  1  0.20595400  0.14986600  0.91129100  1
  C  C20  1  0.82598500  0.81397100  0.08824500  1
  C  C21  1  0.25537200  0.26137300  0.08274700  1
  C  C22  1  0.70887600  0.81539100  0.93158400  1
  C  C23  1  0.27726700  0.22174700  0.90963600  1
  C  C24  1  0.75347300  0.74457200  0.09011600  1
  C  C25  1  0.15838200  0.13584200  0.99816600  1
  C  C26  1  0.84029100  0.88420200  0.00814700  1
  C  C27  1  0.18288300  0.19254200  0.08333600  1
  C  C28  1  0.78132100  0.88487300  0.92990000  1
  C  C29  1  0.00068900  0.89412500  0.99547100  1
  C  C30  1  0.99882000  0.12426200  0.00799900  1
  C  C31  1  0.62394400  0.66106900  0.00799500  1
  C  C32  1  0.37529800  0.35810500  0.99537400  1
  C  C33  1  0.62256100  0.35410800  0.01089600  1
  C  C34  1  0.37790900  0.66482400  0.99115600  1
  C  C35  1  0.41380500  0.51564900  0.29798000  1
  C  C36  1  0.58646200  0.50273800  0.70495600  1
  C  C37  1  0.56776800  0.50491100  0.29134700  1
  C  C38  1  0.43216100  0.50309000  0.71128100  1
  C  C39  1  0.57258000  0.50082400  0.39375100  1
  C  C40  1  0.42726600  0.50152000  0.60880900  1
  C  C41  1  0.49733500  0.50364300  0.44977000  1
  C  C42  1  0.50260400  0.50169800  0.55289600  1
  C  C43  1  0.41695800  0.50642800  0.40216900  1
  C  C44  1  0.58297000  0.49763600  0.60049900  1
  C  C45  1  0.65263100  0.48833200  0.43997400  1
  C  C46  1  0.34684900  0.49519200  0.56225400  1
  C  C47  1  0.65758600  0.48374600  0.54242300  1
  C  C48  1  0.34179600  0.49445300  0.45970400  1
  C  C49  1  0.27746000  0.61222700  0.26565700  1
  C  C50  1  0.18553000  0.56949900  0.25911000  1
  C  C51  1  0.15674300  0.52033900  0.17166000  1
  C  C52  1  0.07129100  0.48302100  0.16348700  1
  C  C53  1  0.01418800  0.49536300  0.24257800  1
  C  C54  1  0.04246600  0.54549900  0.32966800  1
  C  C55  1  0.12791600  0.58294600  0.33793600  1
  C  C56  1  0.72708200  0.58632200  0.74269100  1
  C  C57  1  0.81659300  0.53620000  0.73290200  1
  C  C58  1  0.84806700  0.46683900  0.80704100  1
  C  C59  1  0.93142500  0.42212500  0.80019700  1
  C  C60  1  0.98406800  0.44787700  0.71977900  1
  C  C61  1  0.95353200  0.51898300  0.64659300  1
  C  C62  1  0.87007900  0.56351800  0.65321600  1
  N  N1  1  0.48961800  0.51205500  0.24444200  1
  N  N2  1  0.51045800  0.50558000  0.75832000  1
  O  O1  1  0.59371500  0.62299400  0.09319500  1
  O  O2  1  0.40719100  0.39388800  0.90992000  1
  O  O3  1  0.59513500  0.62619700  0.92060100  1
  O  O4  1  0.40346200  0.39428700  0.08212000  1
  O  O5  1  0.59796200  0.39206000  0.92366000  1
  O  O6  1  0.40332900  0.62857900  0.07921000  1
  O  O7  1  0.58826500  0.39024900  0.09506600  1
  O  O8  1  0.41071600  0.62680800  0.90711700  1
  O  O9  1  0.33644200  0.52596900  0.24901700  1
  O  O10  1  0.66423100  0.50362400  0.75419200  1
