# generated using pymatgen
data_Fe2H27C46NO16
_symmetry_space_group_name_H-M   'P 1'
_cell_length_a   14.17069000
_cell_length_b   13.15930100
_cell_length_c   13.26002600
_cell_angle_alpha   112.04875000
_cell_angle_beta   93.12900900
_cell_angle_gamma   115.89583300
_symmetry_Int_Tables_number   1
_chemical_formula_structural   Fe2H27C46NO16
_chemical_formula_sum   'Fe2 H27 C46 N1 O16'
_cell_volume   1989.64403427
_cell_formula_units_Z   1
loop_
 _symmetry_equiv_pos_site_id
 _symmetry_equiv_pos_as_xyz
  1  'x, y, z'
loop_
 _atom_site_type_symbol
 _atom_site_label
 _atom_site_symmetry_multiplicity
 _atom_site_fract_x
 _atom_site_fract_y
 _atom_site_fract_z
 _atom_site_occupancy
  Fe  Fe1  1  0.50428200  0.02697300  0.23144100  1
  Fe  Fe2  1  0.50760600  0.00742300  0.77905900  1
  H  H1  1  0.87541800  0.04709900  0.22350600  1
  H  H2  1  0.80772100  0.00501000  0.84004200  1
  H  H3  1  0.97160400  0.00403900  0.81989200  1
  H  H4  1  0.13572800  0.00275200  0.79716000  1
  H  H5  1  0.21386000  0.03239700  0.17462600  1
  H  H6  1  0.19452300  0.25832200  0.29977300  1
  H  H7  1  0.20951900  0.26077000  0.49294100  1
  H  H8  1  0.95083800  0.89745600  0.25074400  1
  H  H9  1  0.51424000  0.54428100  0.71635600  1
  H  H10  1  0.44962300  0.39076700  0.40205700  1
  H  H11  1  0.56465800  0.64511700  0.60948600  1
  H  H12  1  0.50133600  0.49187700  0.29549200  1
  H  H13  1  0.56176700  0.17395600  0.55247700  1
  H  H14  1  0.54070600  0.45161800  0.83433300  1
  H  H15  1  0.45166000  0.86075200  0.45797200  1
  H  H16  1  0.47484100  0.58409300  0.17709600  1
  H  H17  1  0.06795900  0.94706300  0.47788900  1
  H  H18  1  0.19947100  0.17278500  0.61830100  1
  H  H19  1  0.10092300  0.08113000  0.67156400  1
  H  H20  1  0.08960300  0.27725800  0.60595400  1
  H  H21  1  0.11913200  0.28955100  0.74464100  1
  H  H22  1  0.92720400  0.23070400  0.67541300  1
  H  H23  1  0.93758600  0.11173600  0.70406400  1
  H  H24  1  0.90400400  0.11003600  0.47184800  1
  H  H25  1  0.80241400  0.01652800  0.52345200  1
  H  H26  1  0.87547700  0.89016600  0.40372600  1
  H  H27  1  0.90935400  0.91720900  0.54672000  1
  C  C1  1  0.86100200  0.03516900  0.13834400  1
  C  C2  1  0.76478000  0.02434000  0.09290300  1
  C  C3  1  0.74653300  0.01488700  0.98442600  1
  C  C4  1  0.82303700  0.01409700  0.92456800  1
  C  C5  1  0.91572600  0.01823700  0.96832600  1
  C  C6  1  0.93603500  0.02967500  0.07598100  1
  C  C7  1  0.98829700  0.01240500  0.90397400  1
  C  C8  1  0.08162700  0.01641200  0.94598000  1
  C  C9  1  0.10277000  0.02723700  0.05319000  1
  C  C10  1  0.03182700  0.03749300  0.12007900  1
  C  C11  1  0.15423900  0.01127800  0.88089500  1
  C  C12  1  0.24941700  0.01677100  0.92164500  1
  C  C13  1  0.26838000  0.02341500  0.02884300  1
  C  C14  1  0.19502600  0.02703900  0.09228900  1
  C  C15  1  0.15003400  0.18158600  0.41676600  1
  C  C16  1  0.07008100  0.06596700  0.40513600  1
  C  C17  1  0.01691300  0.99371100  0.29158900  1
  C  C18  1  0.06399300  0.06978800  0.23973800  1
  C  C19  1  0.68687300  0.02552700  0.16285400  1
  C  C20  1  0.46430800  0.80098600  0.24558800  1
  C  C21  1  0.36682500  0.03463000  0.08379100  1
  C  C22  1  0.51269700  0.23133700  0.40087600  1
  C  C23  1  0.50066500  0.80384700  0.61006200  1
  C  C24  1  0.64674200  0.99901900  0.92610900  1
  C  C25  1  0.54985200  0.23382200  0.76499500  1
  C  C26  1  0.32547500  0.01309300  0.84945900  1
  C  C27  1  0.55656900  0.25902600  0.59097900  1
  C  C28  1  0.53810800  0.30830600  0.52195900  1
  C  C29  1  0.52270900  0.41185100  0.56533800  1
  C  C30  1  0.52896800  0.46594300  0.67971800  1
  C  C31  1  0.54348300  0.41287100  0.74753700  1
  C  C32  1  0.55468600  0.30693600  0.70257900  1
  C  C33  1  0.49407000  0.45759000  0.48863300  1
  C  C34  1  0.52027000  0.57819900  0.52291100  1
  C  C35  1  0.47570900  0.72688700  0.48901500  1
  C  C36  1  0.45729500  0.77594600  0.41973800  1
  C  C37  1  0.45974900  0.72819500  0.30828600  1
  C  C38  1  0.47160500  0.62269700  0.26373900  1
  C  C39  1  0.48609600  0.56985500  0.33178400  1
  C  C40  1  0.49167800  0.62374000  0.44600400  1
  C  C41  1  0.04587700  0.02195000  0.49497100  1
  C  C42  1  0.11160600  0.12574000  0.61386100  1
  C  C43  1  0.07374000  0.22269500  0.65535900  1
  C  C44  1  0.95348600  0.15882400  0.64802900  1
  C  C45  1  0.89031700  0.06271400  0.52765400  1
  C  C46  1  0.92516300  0.96352200  0.49001800  1
  N  N1  1  0.14502000  0.18296900  0.31583600  1
  O  O1  1  0.60467400  0.03848600  0.13292800  1
  O  O2  1  0.48096300  0.76885900  0.14468000  1
  O  O3  1  0.69997800  0.01437900  0.25617600  1
  O  O4  1  0.46657400  0.90876000  0.29996600  1
  O  O5  1  0.35801200  0.96489500  0.13605400  1
  O  O6  1  0.46177600  0.13120700  0.10213100  1
  O  O7  1  0.58417200  0.20141500  0.35936900  1
  O  O8  1  0.40966000  0.15755400  0.34625400  1
  O  O9  1  0.42857100  0.83267000  0.65136000  1
  O  O10  1  0.60361300  0.87862900  0.66483300  1
  O  O11  1  0.65358100  0.07021700  0.87585200  1
  O  O12  1  0.55285300  0.90051300  0.90684100  1
  O  O13  1  0.31229800  0.02669700  0.75750600  1
  O  O14  1  0.54594200  0.12517700  0.71000400  1
  O  O15  1  0.40604800  0.99575300  0.87648200  1
  O  O16  1  0.53440000  0.26663600  0.86641500  1
