# generated using pymatgen
data_Zn6H61C116N7O24
_symmetry_space_group_name_H-M   'P 1'
_cell_length_a   27.82889400
_cell_length_b   27.84564800
_cell_length_c   27.94765600
_cell_angle_alpha   109.31471500
_cell_angle_beta   109.70489500
_cell_angle_gamma   109.20169500
_symmetry_Int_Tables_number   1
_chemical_formula_structural   Zn6H61C116N7O24
_chemical_formula_sum   'Zn6 H61 C116 N7 O24'
_cell_volume   16710.77409635
_cell_formula_units_Z   1
loop_
 _symmetry_equiv_pos_site_id
 _symmetry_equiv_pos_as_xyz
  1  'x, y, z'
loop_
 _atom_site_type_symbol
 _atom_site_label
 _atom_site_symmetry_multiplicity
 _atom_site_fract_x
 _atom_site_fract_y
 _atom_site_fract_z
 _atom_site_occupancy
  Zn  Zn1  1  0.99682400  0.04207300  0.54694300  1
  Zn  Zn2  1  0.99822600  0.94918300  0.45332800  1
  Zn  Zn3  1  0.45322400  0.94969800  0.00333800  1
  Zn  Zn4  1  0.54551000  0.04498900  0.00293200  1
  Zn  Zn5  1  0.45381200  0.49747200  0.45873900  1
  Zn  Zn6  1  0.54874100  0.49667800  0.55189700  1
  H  H1  1  0.70438000  0.90830000  0.25493700  1
  H  H2  1  0.71079700  0.91578000  0.15720700  1
  H  H3  1  0.79314800  0.08911300  0.25049900  1
  H  H4  1  0.78957100  0.08099700  0.34925500  1
  H  H5  1  0.83365000  0.73453300  0.49818400  1
  H  H6  1  0.75793300  0.65828600  0.49881400  1
  H  H7  1  0.66429100  0.75236100  0.50064700  1
  H  H8  1  0.73998800  0.82858900  0.50001700  1
  H  H9  1  0.23603300  0.99245900  0.83456900  1
  H  H10  1  0.16062700  0.99357900  0.75798700  1
  H  H11  1  0.18615900  0.15054200  0.41756100  1
  H  H12  1  0.31175600  0.34695300  0.59195100  1
  H  H13  1  0.23346100  0.27015400  0.58923000  1
  H  H14  1  0.47124600  0.23998100  0.15756000  1
  H  H15  1  0.51634900  0.24573700  0.34604400  1
  H  H16  1  0.51599300  0.16989900  0.26925000  1
  H  H17  1  0.58874800  0.84934200  0.81684600  1
  H  H18  1  0.58969000  0.77314300  0.74171500  1
  H  H19  1  0.41654900  0.72769800  0.76693700  1
  H  H20  1  0.29537100  0.03100800  0.66753600  1
  H  H21  1  0.31096900  0.98407400  0.59439100  1
  H  H22  1  0.29179700  0.89201000  0.52052900  1
  H  H23  1  0.21486000  0.79796700  0.49591100  1
  H  H24  1  0.15647700  0.79636500  0.54516000  1
  H  H25  1  0.17416700  0.88713100  0.61831500  1
  H  H26  1  0.33497400  0.96114300  0.70733900  1
  H  H27  1  0.41072000  0.01056200  0.69585900  1
  H  H28  1  0.48527900  0.10413000  0.71825700  1
  H  H29  1  0.50647900  0.19667000  0.79438700  1
  H  H30  1  0.45307400  0.19524800  0.84870200  1
  H  H31  1  0.37916400  0.10296800  0.82777800  1
  H  H32  1  0.30854200  0.23115700  0.42017100  1
  H  H33  1  0.32839800  0.27818100  0.37016800  1
  H  H34  1  0.30274300  0.32925000  0.31839800  1
  H  H35  1  0.20981400  0.33058500  0.29375400  1
  H  H36  1  0.14242900  0.28058600  0.32161600  1
  H  H37  1  0.16733500  0.22982500  0.37391200  1
  H  H38  1  0.62987700  0.94811200  0.25774400  1
  H  H39  1  0.54828400  0.95205500  0.20658900  1
  H  H40  1  0.50434800  0.01054800  0.18477100  1
  H  H41  1  0.56601500  0.11700700  0.23018300  1
  H  H42  1  0.67181000  0.16508700  0.29801700  1
  H  H43  1  0.71631600  0.10778700  0.32093400  1
  H  H44  1  0.47623300  0.33229300  0.20053300  1
  H  H45  1  0.43838100  0.40450500  0.22741700  1
  H  H46  1  0.34647100  0.40260300  0.21652400  1
  H  H47  1  0.26937300  0.31914900  0.20761100  1
  H  H48  1  0.28408900  0.23721000  0.20876300  1
  H  H49  1  0.37358800  0.23721900  0.21835400  1
  H  H50  1  0.37476800  0.63116000  0.69684200  1
  H  H51  1  0.35477100  0.52892100  0.59932900  1
  H  H52  1  0.30823500  0.49227700  0.49338100  1
  H  H53  1  0.30360600  0.55991200  0.45575300  1
  H  H54  1  0.34464000  0.66397100  0.52413200  1
  H  H55  1  0.39044300  0.70096700  0.62927500  1
  H  H56  1  0.82163700  0.96954700  0.18842800  1
  H  H57  1  0.86274800  0.02999400  0.15641900  1
  H  H58  1  0.93538600  0.12594000  0.18103000  1
  H  H59  1  0.99289600  0.20778400  0.28228700  1
  H  H60  1  0.97791200  0.19319700  0.35931500  1
  H  H61  1  0.90582700  0.09742000  0.33547700  1
  C  C1  1  0.91683500  0.91294100  0.49879800  1
  C  C2  1  0.91593300  0.99477500  0.41818700  1
  C  C3  1  0.07820700  0.07832300  0.50145500  1
  C  C4  1  0.07906100  0.99643400  0.58210400  1
  C  C5  1  0.70812100  0.99616100  0.26396500  1
  C  C6  1  0.72484300  0.94874600  0.25316300  1
  C  C7  1  0.87116700  0.99501300  0.37400900  1
  C  C8  1  0.62821200  0.00006900  0.12885900  1
  C  C9  1  0.77136600  0.04433100  0.30505000  1
  C  C10  1  0.78836900  0.99698200  0.29298200  1
  C  C11  1  0.77413600  0.04846400  0.25243200  1
  C  C12  1  0.71036600  0.99979100  0.21237700  1
  C  C13  1  0.79089600  0.00116000  0.24189200  1
  C  C14  1  0.72782000  0.95274300  0.20081800  1
  C  C15  1  0.83363400  0.99561800  0.33722700  1
  C  C16  1  0.66566700  0.00008800  0.16637100  1
  C  C17  1  0.75398400  0.69568700  0.49903300  1
  C  C18  1  0.70654700  0.70073300  0.49974000  1
  C  C19  1  0.70148500  0.74843500  0.50006000  1
  C  C20  1  0.74389700  0.79114600  0.49971000  1
  C  C21  1  0.79135300  0.78613300  0.49904100  1
  C  C22  1  0.79640900  0.73841000  0.49868200  1
  C  C23  1  0.66247900  0.65646600  0.50032500  1
  C  C24  1  0.83554400  0.83069100  0.49886600  1
  C  C25  1  0.87264800  0.86820400  0.49879500  1
  C  C26  1  0.62535600  0.61949800  0.50092000  1
  C  C27  1  0.29554200  0.99533400  0.74782500  1
  C  C28  1  0.28889500  0.99388500  0.79416600  1
  C  C29  1  0.24062800  0.99321300  0.79789500  1
  C  C30  1  0.19842400  0.99379100  0.75503000  1
  C  C31  1  0.20435800  0.99460200  0.70830900  1
  C  C32  1  0.25220200  0.99451000  0.70379900  1
  C  C33  1  0.33305200  0.99381900  0.83913600  1
  C  C34  1  0.16035000  0.99533700  0.66385200  1
  C  C35  1  0.12330800  0.99585400  0.62646900  1
  C  C36  1  0.37057900  0.99415500  0.87688400  1
  C  C37  1  0.25725400  0.23686400  0.45687800  1
  C  C38  1  0.29298500  0.29196900  0.50630100  1
  C  C39  1  0.28407600  0.30384900  0.55354300  1
  C  C40  1  0.24016500  0.26082800  0.55201300  1
  C  C41  1  0.20506400  0.20578700  0.50319700  1
  C  C42  1  0.21360500  0.19381500  0.45573100  1
  C  C43  1  0.33908200  0.33732500  0.50882700  1
  C  C44  1  0.16011500  0.16078200  0.50217600  1
  C  C45  1  0.12262500  0.12309300  0.50169700  1
  C  C46  1  0.37707000  0.37472600  0.50956300  1
  C  C47  1  0.49679500  0.07630800  0.08359700  1
  C  C48  1  0.58305500  0.99971500  0.08447300  1
  C  C49  1  0.50179000  0.91834900  0.92256200  1
  C  C50  1  0.41568500  0.99491100  0.92171400  1
  C  C51  1  0.49744900  0.41375600  0.42291900  1
  C  C52  1  0.58101300  0.57577700  0.50176500  1
  C  C53  1  0.50513100  0.58038800  0.58771300  1
  C  C54  1  0.42153900  0.41847100  0.50893300  1
  C  C55  1  0.47944100  0.28305300  0.24142300  1
  C  C56  1  0.49319000  0.28514500  0.29478000  1
  C  C57  1  0.50592700  0.24426100  0.30448700  1
  C  C58  1  0.50589100  0.20182900  0.26147500  1
  C  C59  1  0.49366600  0.20054700  0.20884800  1
  C  C60  1  0.48078100  0.24129300  0.19894700  1
  C  C61  1  0.49510800  0.33027300  0.34052800  1
  C  C62  1  0.49466300  0.15694700  0.16448800  1
  C  C63  1  0.49564500  0.12024200  0.12747500  1
  C  C64  1  0.49627000  0.36828200  0.37833000  1
  C  C65  1  0.55136600  0.76308100  0.74680100  1
  C  C66  1  0.50328700  0.70740700  0.71130900  1
  C  C67  1  0.45394200  0.69444600  0.71760900  1
  C  C68  1  0.45424400  0.73722700  0.76080800  1
  C  C69  1  0.50247800  0.79280100  0.79617800  1
  C  C70  1  0.55091500  0.80578700  0.78901900  1
  C  C71  1  0.50557000  0.66327000  0.66876200  1
  C  C72  1  0.50234100  0.83711700  0.84068600  1
  C  C73  1  0.50218700  0.87426700  0.87807800  1
  C  C74  1  0.50603900  0.62569900  0.63215200  1
  C  C75  1  0.24487400  0.94251300  0.61252900  1
  C  C76  1  0.27696600  0.94308200  0.58404000  1
  C  C77  1  0.26631400  0.89127500  0.54240400  1
  C  C78  1  0.22323800  0.83858500  0.52862600  1
  C  C79  1  0.19059400  0.83771400  0.55631700  1
  C  C80  1  0.20114600  0.88940900  0.59808800  1
  C  C81  1  0.38873500  0.04973800  0.75926700  1
  C  C82  1  0.41954200  0.05087600  0.72947200  1
  C  C83  1  0.46158000  0.10353500  0.74194900  1
  C  C84  1  0.47344500  0.15538200  0.78457200  1
  C  C85  1  0.44342600  0.15455700  0.81493500  1
  C  C86  1  0.40124400  0.10200400  0.80255100  1
  C  C87  1  0.25019600  0.25110700  0.37654600  1
  C  C88  1  0.28731500  0.27825000  0.35965300  1
  C  C89  1  0.27300200  0.30711100  0.33041600  1
  C  C90  1  0.22105300  0.30806200  0.31684500  1
  C  C91  1  0.18336900  0.28014300  0.33258500  1
  C  C92  1  0.19781300  0.25176800  0.36244200  1
  C  C93  1  0.63567200  0.02551000  0.26432300  1
  C  C94  1  0.57588200  0.99886500  0.22704800  1
  C  C95  1  0.55098300  0.03164800  0.21451000  1
  C  C96  1  0.58549600  0.09126700  0.23976300  1
  C  C97  1  0.64486000  0.11820300  0.27776100  1
  C  C98  1  0.66994100  0.08555600  0.29024200  1
  C  C99  1  0.41377700  0.32222900  0.22494800  1
  C  C100  1  0.40456400  0.36756100  0.22327700  1
  C  C101  1  0.35299900  0.36662400  0.21727300  1
  C  C102  1  0.30982900  0.31991100  0.21227800  1
  C  C103  1  0.31817900  0.27404000  0.21305000  1
  C  C104  1  0.36972200  0.27475800  0.21910600  1
  C  C105  1  0.37667200  0.61724700  0.62156800  1
  C  C106  1  0.35240500  0.55864400  0.58287300  1
  C  C107  1  0.32646100  0.53809300  0.52343700  1
  C  C108  1  0.32396500  0.57600100  0.50237100  1
  C  C109  1  0.34709000  0.63437000  0.54074000  1
  C  C110  1  0.37332000  0.65513900  0.60025900  1
  C  C111  1  0.87844000  0.05751000  0.24405700  1
  C  C112  1  0.88766000  0.06563100  0.20109300  1
  C  C113  1  0.92852400  0.11962900  0.21481600  1
  C  C114  1  0.96075700  0.16551700  0.27156200  1
  C  C115  1  0.95229400  0.15736000  0.31470200  1
  C  C116  1  0.91143800  0.10344300  0.30109800  1
  N  N1  1  0.25695800  0.99622900  0.65554900  1
  N  N2  1  0.34537500  0.99516000  0.74533900  1
  N  N3  1  0.26639700  0.22347400  0.40845900  1
  N  N4  1  0.66076000  0.99117700  0.27608600  1
  N  N5  1  0.46786100  0.32569900  0.23165200  1
  N  N6  1  0.40456000  0.63728600  0.68239000  1
  N  N7  1  0.83757900  0.00177000  0.23012700  1
  O  O1  1  0.93657000  0.96785900  0.53548100  1
  O  O2  1  0.93535600  0.89675800  0.46216800  1
  O  O3  1  0.93588600  0.03109500  0.47318000  1
  O  O4  1  0.93464200  0.95828200  0.40150000  1
  O  O5  1  0.05969400  0.09448900  0.53809600  1
  O  O6  1  0.05848500  0.02340100  0.46479700  1
  O  O7  1  0.06037600  0.03294400  0.59875900  1
  O  O8  1  0.05914700  0.96012800  0.52709800  1
  O  O9  1  0.46098200  0.02110100  0.06378600  1
  O  O10  1  0.53336000  0.09344800  0.06519900  1
  O  O11  1  0.52813200  0.96412500  0.06617700  1
  O  O12  1  0.59883800  0.03478400  0.06422000  1
  O  O13  1  0.46531300  0.90122700  0.94103500  1
  O  O14  1  0.53771800  0.97357000  0.94245100  1
  O  O15  1  0.39989100  0.95989700  0.94204200  1
  O  O16  1  0.47058800  0.03055700  0.94004800  1
  O  O17  1  0.46290500  0.43466500  0.40653000  1
  O  O18  1  0.53330400  0.43249800  0.47790100  1
  O  O19  1  0.52576900  0.55647200  0.46580600  1
  O  O20  1  0.59787700  0.55764700  0.53882700  1
  O  O21  1  0.46923100  0.56162300  0.53273600  1
  O  O22  1  0.53963900  0.55946100  0.60412300  1
  O  O23  1  0.40467200  0.43650600  0.47179700  1
  O  O24  1  0.47677700  0.43766300  0.54482000  1
