# generated using pymatgen
data_Fe2H9C38O16F5
_symmetry_space_group_name_H-M   'P 1'
_cell_length_a   15.54407900
_cell_length_b   11.85618200
_cell_length_c   13.60404600
_cell_angle_alpha   88.62688700
_cell_angle_beta   101.89992600
_cell_angle_gamma   106.38634600
_symmetry_Int_Tables_number   1
_chemical_formula_structural   Fe2H9C38O16F5
_chemical_formula_sum   'Fe2 H9 C38 O16 F5'
_cell_volume   2352.04456973
_cell_formula_units_Z   1
loop_
 _symmetry_equiv_pos_site_id
 _symmetry_equiv_pos_as_xyz
  1  'x, y, z'
loop_
 _atom_site_type_symbol
 _atom_site_label
 _atom_site_symmetry_multiplicity
 _atom_site_fract_x
 _atom_site_fract_y
 _atom_site_fract_z
 _atom_site_occupancy
  Fe  Fe1  1  0.48682600  0.99841500  0.78109800  1
  Fe  Fe2  1  0.50749900  0.99107500  0.21819600  1
  H  H1  1  0.94566000  0.05432200  0.20416300  1
  H  H2  1  0.83483300  0.02366700  0.88994300  1
  H  H3  1  0.04866600  0.10514100  0.07699700  1
  H  H4  1  0.20840600  0.98168300  0.76317000  1
  H  H5  1  0.44497500  0.36800400  0.72576500  1
  H  H6  1  0.55230300  0.62466700  0.27322800  1
  H  H7  1  0.54538400  0.42383500  0.26802100  1
  H  H8  1  0.53174800  0.88825000  0.51095400  1
  H  H9  1  0.47337500  0.10670700  0.49331000  1
  C  C1  1  0.80191200  0.02956500  0.16081300  1
  C  C2  1  0.88753200  0.04244800  0.14209800  1
  C  C3  1  0.89866700  0.03387500  0.04530000  1
  C  C4  1  0.82424300  0.02207700  0.96599700  1
  C  C5  1  0.73730400  0.01120500  0.98347600  1
  C  C6  1  0.72619400  0.01032800  0.08285800  1
  C  C7  1  0.99110900  0.04259800  0.02984200  1
  C  C8  1  0.00617000  0.97096600  0.96506300  1
  C  C9  1  0.11274000  0.97327900  0.85557900  1
  C  C10  1  0.19853200  0.98246600  0.83947500  1
  C  C11  1  0.27249500  0.99760500  0.91869900  1
  C  C12  1  0.25994700  0.99717900  0.01754900  1
  C  C13  1  0.17233200  0.98911600  0.03297900  1
  C  C14  1  0.09943400  0.97990700  0.95183300  1
  C  C15  1  0.45583200  0.17290200  0.66011100  1
  C  C16  1  0.36151300  0.01481900  0.89199000  1
  C  C17  1  0.66130400  0.00741600  0.89632100  1
  C  C18  1  0.50389200  0.80024200  0.68045800  1
  C  C19  1  0.50067400  0.19378000  0.32117200  1
  C  C20  1  0.33576000  0.99825100  0.10478900  1
  C  C21  1  0.63686900  0.98632500  0.11045500  1
  C  C22  1  0.54619600  0.82219800  0.34150700  1
  C  C23  1  0.52233500  0.79443800  0.50988600  1
  C  C24  1  0.50638200  0.73070600  0.59334300  1
  C  C25  1  0.49423000  0.60903100  0.58925400  1
  C  C26  1  0.46856300  0.53701100  0.66666667  1
  C  C27  1  0.46386100  0.41982400  0.66313500  1
  C  C28  1  0.52869300  0.74322000  0.42386800  1
  C  C29  1  0.52229100  0.62455000  0.42059000  1
  C  C30  1  0.50491400  0.55706900  0.50299600  1
  C  C31  1  0.49712500  0.43713000  0.49841700  1
  C  C32  1  0.47948300  0.36972900  0.58059500  1
  C  C33  1  0.47424700  0.25153500  0.57784300  1
  C  C34  1  0.53557400  0.57358700  0.33699700  1
  C  C35  1  0.52980000  0.45599300  0.33342600  1
  C  C36  1  0.50735500  0.38490800  0.41211800  1
  C  C37  1  0.49691400  0.26348100  0.40825700  1
  C  C38  1  0.48177600  0.20024800  0.49247600  1
  O  O1  1  0.52547900  0.15659900  0.72637000  1
  O  O2  1  0.42698600  0.11309100  0.91868500  1
  O  O3  1  0.37705200  0.09097100  0.64640100  1
  O  O4  1  0.36968200  0.94079600  0.82686100  1
  O  O5  1  0.57761700  0.99547000  0.90888700  1
  O  O6  1  0.67811200  0.02090400  0.80545000  1
  O  O7  1  0.47734500  0.89584000  0.66189400  1
  O  O8  1  0.54307400  0.78188700  0.77210100  1
  O  O9  1  0.51168700  0.08872100  0.33853500  1
  O  O10  1  0.48076000  0.22546100  0.22813000  1
  O  O11  1  0.41480500  0.98914100  0.09084200  1
  O  O12  1  0.32345200  0.00306100  0.19695900  1
  O  O13  1  0.62100300  0.91084900  0.35804900  1
  O  O14  1  0.62353500  0.05975200  0.17236500  1
  O  O15  1  0.47637700  0.83110100  0.27153400  1
  O  O16  1  0.57628800  0.88337500  0.08721100  1
  F  F1  1  0.79170000  0.03003500  0.25733800  1
  F  F2  1  0.93458900  0.88935000  0.90835900  1
  F  F3  1  0.04215900  0.96297700  0.77578000  1
  F  F4  1  0.15600200  0.98330000  0.12734100  1
  F  F5  1  0.44178100  0.57581600  0.74490500  1
