# generated using pymatgen
data_Zn2H28C54(N2O3)3
_symmetry_space_group_name_H-M   'P 1'
_cell_length_a   13.39891400
_cell_length_b   13.30859600
_cell_length_c   16.21482600
_cell_angle_alpha   94.73223700
_cell_angle_beta   90.04655100
_cell_angle_gamma   90.61867000
_symmetry_Int_Tables_number   1
_chemical_formula_structural   Zn2H28C54(N2O3)3
_chemical_formula_sum   'Zn2 H28 C54 N6 O9'
_cell_volume   2881.41091810
_cell_formula_units_Z   1
loop_
 _symmetry_equiv_pos_site_id
 _symmetry_equiv_pos_as_xyz
  1  'x, y, z'
loop_
 _atom_site_type_symbol
 _atom_site_label
 _atom_site_symmetry_multiplicity
 _atom_site_fract_x
 _atom_site_fract_y
 _atom_site_fract_z
 _atom_site_occupancy
  Zn  Zn1  1  0.51541300  0.89496300  0.48828800  1
  Zn  Zn2  1  0.48636900  0.11738700  0.50989000  1
  H  H1  1  0.69436400  0.11849000  0.01969700  1
  H  H2  1  0.00641400  0.02657100  0.72015400  1
  H  H3  1  0.31420200  0.88658600  0.97844900  1
  H  H4  1  0.00448300  0.98096700  0.27717200  1
  H  H5  1  0.96641600  0.07122600  0.95540100  1
  H  H6  1  0.04016800  0.92500600  0.04188800  1
  H  H7  1  0.40466200  0.92918400  0.09591200  1
  H  H8  1  0.17365200  0.00908400  0.33083600  1
  H  H9  1  0.56496600  0.12305600  0.27912500  1
  H  H10  1  0.62438900  0.14408700  0.14123700  1
  H  H11  1  0.60319700  0.08419100  0.90208300  1
  H  H12  1  0.82992800  0.99712900  0.66549900  1
  H  H13  1  0.16633400  0.02775500  0.66039300  1
  H  H14  1  0.44705300  0.90110900  0.72076000  1
  H  H15  1  0.38907200  0.87206900  0.85806100  1
  H  H16  1  0.46918400  0.95801300  0.23694500  1
  H  H17  1  0.53730400  0.06139300  0.76144900  1
  H  H18  1  0.32581600  0.25801600  0.49208200  1
  H  H19  1  0.67276700  0.74555500  0.51074500  1
  H  H20  1  0.74495100  0.58823400  0.53552900  1
  H  H21  1  0.72871800  0.40840400  0.55124400  1
  H  H22  1  0.32942800  0.43539100  0.48029200  1
  H  H23  1  0.34599800  0.58650500  0.45895400  1
  H  H24  1  0.63312000  0.25946800  0.54342600  1
  H  H25  1  0.36785800  0.76013400  0.45211600  1
  H  H26  1  0.84568000  0.06738700  0.44793900  1
  H  H27  1  0.95023000  0.98286900  0.44632400  1
  H  H28  1  0.82994800  0.94200400  0.48246700  1
  C  C1  1  0.82409200  0.02821700  0.21742700  1
  C  C2  1  0.76375700  0.07074400  0.16243300  1
  C  C3  1  0.81241200  0.06758200  0.08781200  1
  C  C4  1  0.91339100  0.00807400  0.17617100  1
  C  C5  1  0.76992800  0.09146700  0.01716200  1
  C  C6  1  0.81053900  0.06840700  0.93357300  1
  C  C7  1  0.75392000  0.05556000  0.86223700  1
  C  C8  1  0.81691900  0.03271500  0.79764700  1
  C  C9  1  0.91273000  0.03324300  0.83153700  1
  C  C10  1  0.00711700  0.01776300  0.78592500  1
  C  C11  1  0.09136600  0.98816000  0.82116100  1
  C  C12  1  0.18099300  0.97099600  0.78079700  1
  C  C13  1  0.24354800  0.93228200  0.83585400  1
  C  C14  1  0.19405700  0.93202600  0.90984600  1
  C  C15  1  0.23756800  0.91049500  0.98060800  1
  C  C16  1  0.19628200  0.93380000  0.06372300  1
  C  C17  1  0.25261900  0.95112600  0.13491000  1
  C  C18  1  0.18881700  0.97304300  0.19894900  1
  C  C19  1  0.09325200  0.96813000  0.16498200  1
  C  C20  1  0.99948200  0.98263900  0.21098700  1
  C  C21  1  0.35388700  0.94733200  0.14649400  1
  C  C22  1  0.39005800  0.96445000  0.22614400  1
  C  C23  1  0.32696800  0.98842100  0.29269900  1
  C  C24  1  0.22402800  0.99324700  0.27951400  1
  C  C25  1  0.78883500  0.00941100  0.29545700  1
  C  C26  1  0.69394700  0.04378200  0.31609700  1
  C  C27  1  0.63859500  0.09639900  0.26199400  1
  C  C28  1  0.67136500  0.10733300  0.18340700  1
  C  C29  1  0.65304400  0.06465900  0.85113300  1
  C  C30  1  0.61602400  0.05096200  0.77161400  1
  C  C31  1  0.67747600  0.02423300  0.70457200  1
  C  C32  1  0.78041000  0.01497600  0.71709800  1
  C  C33  1  0.21359800  0.99257100  0.70344100  1
  C  C34  1  0.31152300  0.96882700  0.68361200  1
  C  C35  1  0.37158100  0.92142600  0.73795800  1
  C  C36  1  0.33918700  0.90497800  0.81575400  1
  C  C37  1  0.37392200  0.99681600  0.37530100  1
  C  C38  1  0.64352200  0.02469400  0.39232000  1
  C  C39  1  0.62857800  0.01569300  0.62252600  1
  C  C40  1  0.35784500  0.98760600  0.60573200  1
  C  C41  1  0.56570200  0.29984700  0.53222500  1
  C  C42  1  0.39534100  0.29885400  0.50308300  1
  C  C43  1  0.39886200  0.40138400  0.49515300  1
  C  C44  1  0.48898700  0.45474600  0.50397500  1
  C  C45  1  0.57228700  0.40207700  0.52448100  1
  C  C46  1  0.42029200  0.61569400  0.47011900  1
  C  C47  1  0.49924800  0.55774900  0.49257700  1
  C  C48  1  0.59134600  0.60553400  0.50455700  1
  C  C49  1  0.67303900  0.55148100  0.52606300  1
  C  C50  1  0.66369100  0.45009600  0.53521700  1
  C  C51  1  0.43327200  0.71711700  0.46386100  1
  C  C52  1  0.60183000  0.70835700  0.49723500  1
  C  C53  1  0.84219000  0.94714100  0.35145400  1
  C  C54  1  0.86837900  0.98747900  0.43748100  1
  N  N1  1  0.90471300  0.02995600  0.09618400  1
  N  N2  1  0.90744900  0.05653900  0.91430600  1
  N  N3  1  0.10010000  0.96568500  0.90098800  1
  N  N4  1  0.09895000  0.94256300  0.08264200  1
  N  N5  1  0.47841300  0.24929300  0.52084000  1
  N  N6  1  0.52267800  0.76295100  0.47737900  1
  O  O1  1  0.39328800  0.08643300  0.41288900  1
  O  O2  1  0.41558500  0.91501600  0.39824000  1
  O  O3  1  0.62133400  0.93128500  0.40728600  1
  O  O4  1  0.59953600  0.10329400  0.42862000  1
  O  O5  1  0.60868400  0.92585700  0.58520500  1
  O  O6  1  0.58665600  0.09766600  0.59971200  1
  O  O7  1  0.38055600  0.08080000  0.59092700  1
  O  O8  1  0.40211800  0.90933700  0.56942200  1
  O  O9  1  0.86649300  0.86172200  0.32721100  1
