# generated using pymatgen
data_Zn3H42C55O12
_symmetry_space_group_name_H-M   'P 1'
_cell_length_a   37.07233200
_cell_length_b   30.38442800
_cell_length_c   21.82568200
_cell_angle_alpha   90.00000000
_cell_angle_beta   54.96147900
_cell_angle_gamma   90.00000000
_symmetry_Int_Tables_number   1
_chemical_formula_structural   Zn3H42C55O12
_chemical_formula_sum   'Zn12 H168 C220 O48'
_cell_volume   20129.30209200
_cell_formula_units_Z   4
loop_
 _symmetry_equiv_pos_site_id
 _symmetry_equiv_pos_as_xyz
  1  'x, y, z'
loop_
 _atom_site_type_symbol
 _atom_site_label
 _atom_site_symmetry_multiplicity
 _atom_site_fract_x
 _atom_site_fract_y
 _atom_site_fract_z
 _atom_site_occupancy
  Zn  Zn1  1  0.00010600  0.55376600  0.49994600  1
  Zn  Zn2  1  0.50010600  0.05376600  0.49994600  1
  Zn  Zn3  1  0.00011200  0.45413100  0.49998800  1
  Zn  Zn4  1  0.50011200  0.95413100  0.49998800  1
  Zn  Zn5  1  0.94993500  0.50130300  0.04875800  1
  Zn  Zn6  1  0.04964100  0.50130500  0.95152900  1
  Zn  Zn7  1  0.44993500  0.00130300  0.04875800  1
  Zn  Zn8  1  0.54964100  0.00130500  0.95152900  1
  Zn  Zn9  1  0.50147600  0.50071400  0.06826100  1
  Zn  Zn10  1  0.49881200  0.50065600  0.93216700  1
  Zn  Zn11  1  0.00147600  0.00071400  0.06826100  1
  Zn  Zn12  1  0.99881200  0.00065600  0.93216700  1
  H  H1  1  0.83914900  0.61533100  0.76832700  1
  H  H2  1  0.15913400  0.61728100  0.23212200  1
  H  H3  1  0.33914900  0.11533100  0.76832700  1
  H  H4  1  0.65913400  0.11728100  0.23212200  1
  H  H5  1  0.97316800  0.60929500  0.69540200  1
  H  H6  1  0.02534100  0.60922300  0.30424700  1
  H  H7  1  0.47316800  0.10929500  0.69540200  1
  H  H8  1  0.52534100  0.10922300  0.30424700  1
  H  H9  1  0.88641700  0.50265400  0.81800900  1
  H  H10  1  0.11320100  0.50294500  0.18371400  1
  H  H11  1  0.38641700  0.00265400  0.81800900  1
  H  H12  1  0.61320100  0.00294500  0.18371400  1
  H  H13  1  0.94540400  0.54518800  0.86195200  1
  H  H14  1  0.05328600  0.54571400  0.13945700  1
  H  H15  1  0.44540500  0.04518800  0.86195200  1
  H  H16  1  0.55328600  0.04571400  0.13945700  1
  H  H17  1  0.05187500  0.45772900  0.64028400  1
  H  H18  1  0.94907800  0.45536200  0.35855900  1
  H  H19  1  0.55187500  0.95772900  0.64028400  1
  H  H20  1  0.44907800  0.95536200  0.35855900  1
  H  H21  1  0.16497700  0.42986100  0.69268700  1
  H  H22  1  0.83629200  0.42709400  0.30433800  1
  H  H23  1  0.66497700  0.92986100  0.69268700  1
  H  H24  1  0.33629200  0.92709400  0.30433800  1
  H  H25  1  0.05402300  0.34597100  0.82615200  1
  H  H26  1  0.94785300  0.34347500  0.17396300  1
  H  H27  1  0.55402300  0.84597100  0.82615200  1
  H  H28  1  0.44785300  0.84347500  0.17396300  1
  H  H29  1  0.00722200  0.39955000  0.81853800  1
  H  H30  1  0.99385400  0.39771400  0.18246800  1
  H  H31  1  0.50722200  0.89955000  0.81853800  1
  H  H32  1  0.49385400  0.89771400  0.18246900  1
  H  H33  1  0.21958400  0.43578800  0.25704500  1
  H  H34  1  0.78015300  0.43493700  0.74324000  1
  H  H35  1  0.71958400  0.93578800  0.25704600  1
  H  H36  1  0.28015300  0.93493700  0.74324000  1
  H  H37  1  0.13954900  0.43640500  0.33715000  1
  H  H38  1  0.86025000  0.43494800  0.66270900  1
  H  H39  1  0.63954900  0.93640500  0.33715000  1
  H  H40  1  0.36025000  0.93494800  0.66270900  1
  H  H41  1  0.14155000  0.57232900  0.38651800  1
  H  H42  1  0.85918000  0.57110800  0.61376500  1
  H  H43  1  0.64155000  0.07232900  0.38651800  1
  H  H44  1  0.35918000  0.07110800  0.61376500  1
  H  H45  1  0.22175100  0.57105600  0.30727100  1
  H  H46  1  0.77889600  0.57037900  0.69312100  1
  H  H47  1  0.72175100  0.07105600  0.30727100  1
  H  H48  1  0.27889600  0.07037900  0.69312100  1
  H  H49  1  0.28189000  0.53123400  0.30960400  1
  H  H50  1  0.71850100  0.52942900  0.68979700  1
  H  H51  1  0.78189000  0.03123400  0.30960400  1
  H  H52  1  0.21850100  0.02942900  0.68979700  1
  H  H53  1  0.36213100  0.52940700  0.22886700  1
  H  H54  1  0.63818500  0.52779800  0.77063800  1
  H  H55  1  0.86213100  0.02940700  0.22886700  1
  H  H56  1  0.13818500  0.02779800  0.77063800  1
  H  H57  1  0.35771400  0.47328400  0.05363400  1
  H  H58  1  0.64247900  0.47474200  0.94775900  1
  H  H59  1  0.85771400  0.97328400  0.05363400  1
  H  H60  1  0.14247900  0.97474200  0.94775900  1
  H  H61  1  0.27750100  0.47421100  0.13533300  1
  H  H62  1  0.72275400  0.47522000  0.86584700  1
  H  H63  1  0.77750100  0.97421100  0.13533300  1
  H  H64  1  0.22275400  0.97522000  0.86584700  1
  H  H65  1  0.05532900  0.27987100  0.00447900  1
  H  H66  1  0.94357800  0.27927400  0.99669700  1
  H  H67  1  0.55532900  0.77987100  0.00447900  1
  H  H68  1  0.44357800  0.77927400  0.99669700  1
  H  H69  1  0.48878100  0.72034300  0.91473600  1
  H  H70  1  0.51033700  0.72110900  0.08719400  1
  H  H71  1  0.98878100  0.22034300  0.91473600  1
  H  H72  1  0.01033700  0.22110900  0.08719400  1
  H  H73  1  0.48873100  0.64061100  0.91522800  1
  H  H74  1  0.51095800  0.64137600  0.08725500  1
  H  H75  1  0.98873100  0.14061100  0.91522800  1
  H  H76  1  0.01095800  0.14137600  0.08725500  1
  H  H77  1  0.02402600  0.72143400  0.88475900  1
  H  H78  1  0.97657400  0.72154100  0.11473300  1
  H  H79  1  0.52402600  0.22143400  0.88475900  1
  H  H80  1  0.47657400  0.22154100  0.11473300  1
  H  H81  1  0.43801000  0.28042300  0.10520600  1
  H  H82  1  0.56263600  0.28030100  0.89404600  1
  H  H83  1  0.93801000  0.78042300  0.10520600  1
  H  H84  1  0.06263600  0.78030100  0.89404600  1
  H  H85  1  0.17482800  0.36366300  0.73430600  1
  H  H86  1  0.12734900  0.34644400  0.82446400  1
  H  H87  1  0.13961400  0.32028400  0.74011300  1
  H  H88  1  0.82732800  0.36051400  0.26245300  1
  H  H89  1  0.87539400  0.34310700  0.17312200  1
  H  H90  1  0.86234500  0.31750200  0.25835600  1
  H  H91  1  0.67482800  0.86366300  0.73430600  1
  H  H92  1  0.62734900  0.84644400  0.82446400  1
  H  H93  1  0.63961400  0.82028400  0.74011300  1
  H  H94  1  0.32732800  0.86051400  0.26245300  1
  H  H95  1  0.37539400  0.84310700  0.17312200  1
  H  H96  1  0.36234500  0.81750200  0.25835600  1
  H  H97  1  0.88530100  0.67403200  0.70067200  1
  H  H98  1  0.92687000  0.68356800  0.71794600  1
  H  H99  1  0.94170400  0.65788000  0.63158600  1
  H  H100  1  0.11236900  0.67583300  0.29863900  1
  H  H101  1  0.07090900  0.68422700  0.28076800  1
  H  H102  1  0.05606600  0.65936100  0.36769000  1
  H  H103  1  0.38530100  0.17403200  0.70067200  1
  H  H104  1  0.42687000  0.18356800  0.71794600  1
  H  H105  1  0.44170400  0.15788000  0.63158600  1
  H  H106  1  0.61236900  0.17583300  0.29863900  1
  H  H107  1  0.57090900  0.18422700  0.28076800  1
  H  H108  1  0.55606600  0.15936100  0.36769000  1
  H  H109  1  0.04972800  0.39058600  0.05258800  1
  H  H110  1  0.08258700  0.34162000  0.01962200  1
  H  H111  1  0.08996200  0.38153000  0.95296600  1
  H  H112  1  0.94895800  0.38976400  0.94744600  1
  H  H113  1  0.91623600  0.34070700  0.98067500  1
  H  H114  1  0.90853600  0.38095300  0.04711600  1
  H  H115  1  0.54972800  0.89058600  0.05258800  1
  H  H116  1  0.58258700  0.84162000  0.01962200  1
  H  H117  1  0.58996200  0.88153000  0.95296600  1
  H  H118  1  0.44895800  0.88976400  0.94744600  1
  H  H119  1  0.41623600  0.84070700  0.98067500  1
  H  H120  1  0.40853600  0.88095300  0.04711600  1
  H  H121  1  0.00092900  0.61244900  0.87573300  1
  H  H122  1  0.03572700  0.65780400  0.82023300  1
  H  H123  1  0.05795500  0.61437400  0.84505600  1
  H  H124  1  0.99998300  0.61271100  0.12388200  1
  H  H125  1  0.96491800  0.65793100  0.17937700  1
  H  H126  1  0.94299000  0.61428800  0.15435200  1
  H  H127  1  0.50092900  0.11244900  0.87573300  1
  H  H128  1  0.53572700  0.15780400  0.82023300  1
  H  H129  1  0.55795500  0.11437400  0.84505600  1
  H  H130  1  0.49998300  0.11271100  0.12388200  1
  H  H131  1  0.46491800  0.15793100  0.17937700  1
  H  H132  1  0.44299000  0.11428800  0.15435200  1
  H  H133  1  0.41234100  0.38943400  0.10204400  1
  H  H134  1  0.40134500  0.34389100  0.16314000  1
  H  H135  1  0.43725800  0.38720400  0.15332500  1
  H  H136  1  0.58816000  0.38948700  0.89637300  1
  H  H137  1  0.59924500  0.34369900  0.83566000  1
  H  H138  1  0.56327300  0.38682200  0.84507000  1
  H  H139  1  0.91234100  0.88943400  0.10204400  1
  H  H140  1  0.90134500  0.84389100  0.16314000  1
  H  H141  1  0.93725800  0.88720400  0.15332500  1
  H  H142  1  0.08816000  0.88948700  0.89637300  1
  H  H143  1  0.09924500  0.84369900  0.83566000  1
  H  H144  1  0.06327300  0.88682200  0.84507000  1
  H  H145  1  0.79037600  0.55818000  0.83638100  1
  H  H146  1  0.81530500  0.50423800  0.81643200  1
  H  H147  1  0.80115500  0.53327900  0.89960400  1
  H  H148  1  0.20849900  0.56031900  0.16521300  1
  H  H149  1  0.18417800  0.50607400  0.18532000  1
  H  H150  1  0.19820000  0.53466500  0.10188500  1
  H  H151  1  0.29037600  0.05818000  0.83638100  1
  H  H152  1  0.31530500  0.00423800  0.81643200  1
  H  H153  1  0.30115500  0.03327900  0.89960400  1
  H  H154  1  0.70849900  0.06031900  0.16521300  1
  H  H155  1  0.68417800  0.00607400  0.18532000  1
  H  H156  1  0.69820000  0.03466500  0.10188500  1
  H  H157  1  0.15889100  0.49726800  0.65162600  1
  H  H158  1  0.12012500  0.49763500  0.62708200  1
  H  H159  1  0.10639200  0.52395900  0.71257700  1
  H  H160  1  0.84150700  0.49471500  0.34597500  1
  H  H161  1  0.87999700  0.49580100  0.37112600  1
  H  H162  1  0.89383900  0.52176000  0.28532400  1
  H  H163  1  0.65889100  0.99726800  0.65162600  1
  H  H164  1  0.62012500  0.99763500  0.62708200  1
  H  H165  1  0.60639200  0.02395900  0.71257700  1
  H  H166  1  0.34150700  0.99471500  0.34597500  1
  H  H167  1  0.37999700  0.99580100  0.37112600  1
  H  H168  1  0.39383900  0.02176000  0.28532400  1
  C  C1  1  0.08641300  0.50481700  0.41555300  1
  C  C2  1  0.91379400  0.50306300  0.58440700  1
  C  C3  1  0.58641300  0.00481700  0.41555300  1
  C  C4  1  0.41379400  0.00306300  0.58440700  1
  C  C5  1  0.99956200  0.50488000  0.62029100  1
  C  C6  1  0.00068300  0.50306800  0.37960400  1
  C  C7  1  0.49956200  0.00488000  0.62029100  1
  C  C8  1  0.50068300  0.00306800  0.37960400  1
  C  C9  1  0.90710500  0.61664300  0.72781800  1
  C  C10  1  0.09124300  0.61761900  0.27217600  1
  C  C11  1  0.40710500  0.11664300  0.72781800  1
  C  C12  1  0.59124300  0.11761900  0.27217600  1
  C  C13  1  0.94088100  0.59445600  0.72370400  1
  C  C14  1  0.05776900  0.59475800  0.27633500  1
  C  C15  1  0.44088100  0.09445600  0.72370400  1
  C  C16  1  0.55776900  0.09475800  0.27633500  1
  C  C17  1  0.93375000  0.55301300  0.75443900  1
  C  C18  1  0.06535700  0.55306900  0.24628700  1
  C  C19  1  0.43375000  0.05301300  0.75443900  1
  C  C20  1  0.56535700  0.05306900  0.24628700  1
  C  C21  1  0.89223400  0.53473200  0.79251200  1
  C  C22  1  0.10702400  0.53519800  0.20878200  1
  C  C23  1  0.39223400  0.03473200  0.79251200  1
  C  C24  1  0.60702400  0.03519800  0.20878200  1
  C  C25  1  0.85818700  0.55711200  0.79788600  1
  C  C26  1  0.14078400  0.55826900  0.20326900  1
  C  C27  1  0.35818700  0.05711200  0.79788600  1
  C  C28  1  0.64078400  0.05826900  0.20326900  1
  C  C29  1  0.86572500  0.59789700  0.76469400  1
  C  C30  1  0.13278200  0.59930300  0.23586200  1
  C  C31  1  0.36572500  0.09789700  0.76469400  1
  C  C32  1  0.63278200  0.09930300  0.23586200  1
  C  C33  1  0.96943500  0.52654200  0.81279500  1
  C  C34  1  0.02974800  0.52639400  0.18804700  1
  C  C35  1  0.46943500  0.02654200  0.81279500  1
  C  C36  1  0.52974800  0.02639400  0.18804700  1
  C  C37  1  0.00039000  0.50140400  0.81279100  1
  C  C38  1  0.99927000  0.50074100  0.18748600  1
  C  C39  1  0.50039000  0.00140400  0.81279100  1
  C  C40  1  0.49927000  0.00074100  0.18748600  1
  C  C41  1  0.03031800  0.47667900  0.75029500  1
  C  C42  1  0.96998600  0.47521400  0.24934500  1
  C  C43  1  0.53031800  0.97667900  0.75029500  1
  C  C44  1  0.46998600  0.97521400  0.24934500  1
  C  C45  1  0.02923600  0.47790400  0.68829300  1
  C  C46  1  0.97130000  0.47609600  0.31111700  1
  C  C47  1  0.52923600  0.97790400  0.68829300  1
  C  C48  1  0.47130000  0.97609600  0.31111700  1
  C  C49  1  0.99963600  0.50462800  0.68705700  1
  C  C50  1  0.00050700  0.50318100  0.31287900  1
  C  C51  1  0.49963600  0.00462800  0.68705700  1
  C  C52  1  0.50050700  0.00318100  0.31287900  1
  C  C53  1  0.96931200  0.52889600  0.74991900  1
  C  C54  1  0.03013800  0.52833100  0.25068500  1
  C  C55  1  0.46931200  0.02889600  0.74991900  1
  C  C56  1  0.53013800  0.02833100  0.25068500  1
  C  C57  1  0.10395700  0.45358500  0.71602400  1
  C  C58  1  0.89683200  0.45139500  0.28227900  1
  C  C59  1  0.60395700  0.95358500  0.71602400  1
  C  C60  1  0.39683200  0.95139500  0.28227900  1
  C  C61  1  0.13027500  0.42330400  0.72030800  1
  C  C62  1  0.87096100  0.42075800  0.27751200  1
  C  C63  1  0.63027500  0.92330400  0.72030800  1
  C  C64  1  0.37096100  0.92075800  0.27751200  1
  C  C65  1  0.11233200  0.38468000  0.76000300  1
  C  C66  1  0.88931500  0.38205000  0.23836500  1
  C  C67  1  0.61233200  0.88468000  0.76000300  1
  C  C68  1  0.38931500  0.88205000  0.23836500  1
  C  C69  1  0.06812100  0.37623200  0.79525400  1
  C  C70  1  0.93345900  0.37383700  0.20430300  1
  C  C71  1  0.56812100  0.87623200  0.79525400  1
  C  C72  1  0.43345900  0.87383700  0.20430300  1
  C  C73  1  0.04182600  0.40634300  0.79120900  1
  C  C74  1  0.95931100  0.40431800  0.20880600  1
  C  C75  1  0.54182600  0.90634300  0.79120900  1
  C  C76  1  0.45931100  0.90431800  0.20880600  1
  C  C77  1  0.05945600  0.44509700  0.75213700  1
  C  C78  1  0.94130400  0.44320900  0.24710300  1
  C  C79  1  0.55945600  0.94509700  0.75213700  1
  C  C80  1  0.44130400  0.94321000  0.24710300  1
  C  C81  1  0.20255400  0.46586300  0.28540300  1
  C  C82  1  0.79741900  0.46490700  0.71479100  1
  C  C83  1  0.70255400  0.96586300  0.28540300  1
  C  C84  1  0.29741900  0.96490700  0.71479100  1
  C  C85  1  0.15715100  0.46622000  0.33130500  1
  C  C86  1  0.84281900  0.46492200  0.66868900  1
  C  C87  1  0.65715100  0.96622000  0.33130500  1
  C  C88  1  0.34281900  0.96492200  0.66868900  1
  C  C89  1  0.13473400  0.50441800  0.36776500  1
  C  C90  1  0.86548400  0.50303100  0.63231300  1
  C  C91  1  0.63473400  0.00441800  0.36776500  1
  C  C92  1  0.36548400  0.00303100  0.63231300  1
  C  C93  1  0.15829900  0.54207100  0.35861700  1
  C  C94  1  0.84219100  0.54093800  0.64167200  1
  C  C95  1  0.65829900  0.04207100  0.35861700  1
  C  C96  1  0.34219100  0.04093800  0.64167200  1
  C  C97  1  0.20375800  0.54132900  0.31417500  1
  C  C98  1  0.79672500  0.54051000  0.68614000  1
  C  C99  1  0.70375800  0.04132900  0.31417500  1
  C  C100  1  0.29672500  0.04051000  0.68614000  1
  C  C101  1  0.22606400  0.50333600  0.27684200  1
  C  C102  1  0.77418300  0.50260800  0.72343500  1
  C  C103  1  0.72606400  0.00333600  0.27684200  1
  C  C104  1  0.27418300  0.00260800  0.72343500  1
  C  C105  1  0.29844100  0.51857700  0.25331500  1
  C  C106  1  0.70188500  0.51746500  0.74651000  1
  C  C107  1  0.79844100  0.01857700  0.25331500  1
  C  C108  1  0.20188500  0.01746500  0.74651000  1
  C  C109  1  0.34386500  0.51713100  0.20777100  1
  C  C110  1  0.65645400  0.51613800  0.79209500  1
  C  C111  1  0.84386500  0.01713100  0.20777100  1
  C  C112  1  0.15645400  0.01613800  0.79209500  1
  C  C113  1  0.36558300  0.50119300  0.13554600  1
  C  C114  1  0.63471000  0.50114100  0.86486900  1
  C  C115  1  0.86558300  0.00119300  0.13554600  1
  C  C116  1  0.13471000  0.00114100  0.86486900  1
  C  C117  1  0.34140200  0.48606800  0.10978800  1
  C  C118  1  0.65884500  0.48680600  0.89116300  1
  C  C119  1  0.84140200  0.98606800  0.10978800  1
  C  C120  1  0.15884500  0.98680600  0.89116300  1
  C  C121  1  0.29598300  0.48623200  0.15619800  1
  C  C122  1  0.70426300  0.48672600  0.84469700  1
  C  C123  1  0.79598300  0.98623200  0.15619800  1
  C  C124  1  0.20426300  0.98672600  0.84469700  1
  C  C125  1  0.27430900  0.50278200  0.22795400  1
  C  C126  1  0.72595900  0.50237000  0.77239700  1
  C  C127  1  0.77430900  0.00278200  0.22795400  1
  C  C128  1  0.22595900  0.00237000  0.77239700  1
  C  C129  1  0.99899800  0.41492100  0.00055100  1
  C  C130  1  0.49899800  0.91492100  0.00055100  1
  C  C131  1  0.00069900  0.50118900  0.87940300  1
  C  C132  1  0.99895300  0.50076500  0.12083500  1
  C  C133  1  0.50069900  0.00118900  0.87940300  1
  C  C134  1  0.49895300  0.00076500  0.12083500  1
  C  C135  1  0.00060100  0.58741000  0.99969900  1
  C  C136  1  0.50060100  0.08741000  0.99969900  1
  C  C137  1  0.50021800  0.41456600  0.99904200  1
  C  C138  1  0.00021800  0.91456600  0.99904200  1
  C  C139  1  0.41385400  0.50069100  0.08646000  1
  C  C140  1  0.58644800  0.50074600  0.91396000  1
  C  C141  1  0.91385400  0.00069100  0.08646000  1
  C  C142  1  0.08644800  0.00074600  0.91396000  1
  C  C143  1  0.50004500  0.58690000  0.00140700  1
  C  C144  1  0.00004500  0.08690000  0.00140700  1
  C  C145  1  0.03042600  0.29767400  0.00355300  1
  C  C146  1  0.96837900  0.29733600  0.99756300  1
  C  C147  1  0.53042600  0.79767400  0.00355300  1
  C  C148  1  0.46837900  0.79733600  0.99756300  1
  C  C149  1  0.03089100  0.34311000  0.00281900  1
  C  C150  1  0.96772300  0.34277700  0.99794500  1
  C  C151  1  0.53089100  0.84311000  0.00282000  1
  C  C152  1  0.46772300  0.84277700  0.99794500  1
  C  C153  1  0.99921800  0.36631400  0.00039600  1
  C  C154  1  0.49921800  0.86631400  0.00039600  1
  C  C155  1  0.99943100  0.27467100  0.00070800  1
  C  C156  1  0.49943100  0.77467100  0.00070800  1
  C  C157  1  0.49317000  0.70322500  0.95342400  1
  C  C158  1  0.50606300  0.70365300  0.04863500  1
  C  C159  1  0.99317000  0.20322500  0.95342400  1
  C  C160  1  0.00606300  0.20365300  0.04863500  1
  C  C161  1  0.49355600  0.65787000  0.95327500  1
  C  C162  1  0.50601100  0.65829700  0.04909200  1
  C  C163  1  0.99355600  0.15787000  0.95327500  1
  C  C164  1  0.00601100  0.15829700  0.04909200  1
  C  C165  1  0.49987700  0.63513300  0.00125000  1
  C  C166  1  0.99987700  0.13513300  0.00125000  1
  C  C167  1  0.49954000  0.72639500  0.00094200  1
  C  C168  1  0.99954000  0.22639500  0.00094200  1
  C  C169  1  0.01418800  0.70378300  0.93507900  1
  C  C170  1  0.98646500  0.70383900  0.06442900  1
  C  C171  1  0.51418800  0.20378300  0.93507900  1
  C  C172  1  0.48646500  0.20383900  0.06442900  1
  C  C173  1  0.01434100  0.65833100  0.93481600  1
  C  C174  1  0.98643700  0.65838000  0.06472500  1
  C  C175  1  0.51434100  0.15833100  0.93481600  1
  C  C176  1  0.48643700  0.15838000  0.06472500  1
  C  C177  1  0.00043900  0.63552300  0.99977000  1
  C  C178  1  0.50043900  0.13552300  0.99977000  1
  C  C179  1  0.00032000  0.72674700  0.99972800  1
  C  C180  1  0.50032000  0.22674700  0.99972800  1
  C  C181  1  0.46569400  0.29809100  0.05917800  1
  C  C182  1  0.53493300  0.29801800  0.93995000  1
  C  C183  1  0.96569400  0.79809100  0.05917800  1
  C  C184  1  0.03493300  0.79801800  0.93995000  1
  C  C185  1  0.46553600  0.34355100  0.05931700  1
  C  C186  1  0.53504100  0.34347400  0.93945900  1
  C  C187  1  0.96553600  0.84355100  0.05931700  1
  C  C188  1  0.03504100  0.84347400  0.93945900  1
  C  C189  1  0.50027000  0.36639800  0.99928700  1
  C  C190  1  0.00027000  0.86639800  0.99928700  1
  C  C191  1  0.50031800  0.27511900  0.99963600  1
  C  C192  1  0.00031800  0.77511900  0.99963600  1
  C  C193  1  0.14035400  0.35183000  0.76491700  1
  C  C194  1  0.86180100  0.34883200  0.23284200  1
  C  C195  1  0.64035400  0.85183000  0.76491700  1
  C  C196  1  0.36180100  0.84883300  0.23284200  1
  C  C197  1  0.91566400  0.66076400  0.69239400  1
  C  C198  1  0.08219800  0.66201100  0.30688700  1
  C  C199  1  0.41566400  0.16076400  0.69239400  1
  C  C200  1  0.58219800  0.16201100  0.30688700  1
  C  C201  1  0.06516400  0.36573800  0.00724900  1
  C  C202  1  0.93348800  0.36506300  0.99303000  1
  C  C203  1  0.56516400  0.86573800  0.00724900  1
  C  C204  1  0.43348800  0.86506300  0.99303000  1
  C  C205  1  0.02803800  0.63421400  0.86494800  1
  C  C206  1  0.97278400  0.63430700  0.13460300  1
  C  C207  1  0.52803800  0.13421400  0.86494800  1
  C  C208  1  0.47278400  0.13430700  0.13460300  1
  C  C209  1  0.42692200  0.36754900  0.12310700  1
  C  C210  1  0.57362600  0.36739500  0.87547800  1
  C  C211  1  0.92692200  0.86754900  0.12310700  1
  C  C212  1  0.07362600  0.86739500  0.87547800  1
  C  C213  1  0.81345900  0.53708500  0.84006900  1
  C  C214  1  0.18572300  0.53874800  0.16145600  1
  C  C215  1  0.31345900  0.03708500  0.84006900  1
  C  C216  1  0.68572300  0.03874800  0.16145600  1
  C  C217  1  0.12342500  0.49563100  0.67437300  1
  C  C218  1  0.87692800  0.49344000  0.32360700  1
  C  C219  1  0.62342500  0.99563100  0.67437300  1
  C  C220  1  0.37692800  0.99344000  0.32360700  1
  O  O1  1  0.06594400  0.54283900  0.43769300  1
  O  O2  1  0.93457700  0.54097000  0.56478700  1
  O  O3  1  0.56594400  0.04283900  0.43769300  1
  O  O4  1  0.43457700  0.04097000  0.56478700  1
  O  O5  1  0.06559400  0.46698000  0.43407000  1
  O  O6  1  0.93428600  0.46505700  0.56341800  1
  O  O7  1  0.56559400  0.96698000  0.43407000  1
  O  O8  1  0.43428600  0.96505700  0.56341800  1
  O  O9  1  0.00072300  0.54286400  0.59084000  1
  O  O10  1  0.00156500  0.54089600  0.40752100  1
  O  O11  1  0.50072300  0.04286400  0.59084000  1
  O  O12  1  0.50156500  0.04089600  0.40752100  1
  O  O13  1  0.99948700  0.46692900  0.59170000  1
  O  O14  1  0.99867800  0.46504300  0.40984700  1
  O  O15  1  0.49948700  0.96692900  0.59170000  1
  O  O16  1  0.49867800  0.96504300  0.40984700  1
  O  O17  1  0.96105900  0.43558300  0.03929300  1
  O  O18  1  0.03678000  0.43589600  0.96216500  1
  O  O19  1  0.46105900  0.93558300  0.03929300  1
  O  O20  1  0.53678000  0.93589600  0.96216500  1
  O  O21  1  0.96276800  0.50074000  0.94515100  1
  O  O22  1  0.03685100  0.50234800  0.05510100  1
  O  O23  1  0.46276800  0.00074000  0.94515100  1
  O  O24  1  0.53685100  0.00234800  0.05510100  1
  O  O25  1  0.03873100  0.50254000  0.87063600  1
  O  O26  1  0.96092600  0.50024300  0.12955600  1
  O  O27  1  0.53873100  0.00254000  0.87063600  1
  O  O28  1  0.46092600  0.00024300  0.12955600  1
  O  O29  1  0.96261900  0.56678600  0.03839100  1
  O  O30  1  0.03871100  0.56708800  0.96067200  1
  O  O31  1  0.46261900  0.06678600  0.03839200  1
  O  O32  1  0.53871100  0.06708800  0.96067200  1
  O  O33  1  0.50182700  0.43526200  0.05019400  1
  O  O34  1  0.49853700  0.43490700  0.94773300  1
  O  O35  1  0.00182700  0.93526200  0.05019400  1
  O  O36  1  0.99853700  0.93490700  0.94773300  1
  O  O37  1  0.43564400  0.50209300  0.11713000  1
  O  O38  1  0.56466200  0.50010900  0.88324800  1
  O  O39  1  0.93564400  0.00209300  0.11713000  1
  O  O40  1  0.06466200  0.00010900  0.88324800  1
  O  O41  1  0.43328600  0.49920300  0.01384600  1
  O  O42  1  0.56702000  0.50136600  0.98660400  1
  O  O43  1  0.93328600  0.99920300  0.01384600  1
  O  O44  1  0.06702000  0.00136600  0.98660400  1
  O  O45  1  0.50253800  0.56647800  0.05181200  1
  O  O46  1  0.49768700  0.56611800  0.95110500  1
  O  O47  1  0.00253800  0.06647800  0.05181200  1
  O  O48  1  0.99768700  0.06611800  0.95110500  1
