# generated using pymatgen
data_ZnH14C18(NO2)2
_symmetry_space_group_name_H-M   'P 1'
_cell_length_a   14.02631000
_cell_length_b   14.09947000
_cell_length_c   15.22548000
_cell_angle_alpha   89.98854100
_cell_angle_beta   90.00485200
_cell_angle_gamma   85.34886200
_symmetry_Int_Tables_number   1
_chemical_formula_structural   ZnH14C18(NO2)2
_chemical_formula_sum   'Zn2 H28 C36 N4 O8'
_cell_volume   3001.12903658
_cell_formula_units_Z   2
loop_
 _symmetry_equiv_pos_site_id
 _symmetry_equiv_pos_as_xyz
  1  'x, y, z'
loop_
 _atom_site_type_symbol
 _atom_site_label
 _atom_site_symmetry_multiplicity
 _atom_site_fract_x
 _atom_site_fract_y
 _atom_site_fract_z
 _atom_site_occupancy
  Zn  Zn1  1  0.60534200  0.51879300  0.50228400  1
  Zn  Zn2  1  0.38848900  0.51920600  0.49830300  1
  H  H1  1  0.60609300  0.00458900  0.50035300  1
  H  H2  1  0.38770600  0.03342500  0.50026300  1
  H  H3  1  0.64583700  0.47259400  0.05611400  1
  H  H4  1  0.36351900  0.45717600  0.94460300  1
  H  H5  1  0.35180400  0.56301200  0.22125300  1
  H  H6  1  0.62859100  0.57722400  0.77864000  1
  H  H7  1  0.34921500  0.56584300  0.06277500  1
  H  H8  1  0.63065500  0.58049600  0.93733400  1
  H  H9  1  0.06814000  0.44792500  0.37468100  1
  H  H10  1  0.91913100  0.65639200  0.56201700  1
  H  H11  1  0.24168700  0.44669800  0.37642300  1
  H  H12  1  0.74644000  0.65186800  0.56581500  1
  H  H13  1  0.23237500  0.59366700  0.61675600  1
  H  H14  1  0.76725800  0.38540200  0.44043600  1
  H  H15  1  0.05960800  0.59207400  0.62242900  1
  H  H16  1  0.94063300  0.38227400  0.43929100  1
  H  H17  1  0.71991700  0.60079100  0.22115100  1
  H  H18  1  0.77212900  0.51715100  0.14119700  1
  H  H19  1  0.80735900  0.50712200  0.25515500  1
  H  H20  1  0.64792600  0.33161400  0.17373900  1
  H  H21  1  0.70448500  0.32956600  0.27994700  1
  H  H22  1  0.77190800  0.35709800  0.18350900  1
  H  H23  1  0.24823100  0.56729700  0.79920400  1
  H  H24  1  0.22676700  0.46236100  0.86295300  1
  H  H25  1  0.19361900  0.46924600  0.74898800  1
  H  H26  1  0.41824400  0.31587200  0.75281500  1
  H  H27  1  0.29107800  0.31723000  0.73370300  1
  H  H28  1  0.33635100  0.32053500  0.84475200  1
  C  C1  1  0.49986500  0.51860200  0.32802800  1
  C  C2  1  0.49414300  0.51838200  0.67248700  1
  C  C3  1  0.51145400  0.33300800  0.50030000  1
  C  C4  1  0.48232000  0.70500300  0.50030100  1
  C  C5  1  0.47401200  0.80710700  0.50030000  1
  C  C6  1  0.51977400  0.23090500  0.50030700  1
  C  C7  1  0.45793300  0.99517100  0.50029300  1
  C  C8  1  0.53586500  0.04284200  0.50032300  1
  C  C9  1  0.52703100  0.14516200  0.50031500  1
  C  C10  1  0.46676300  0.89285100  0.50029700  1
  C  C11  1  0.58215300  0.49528800  0.09280000  1
  C  C12  1  0.41964200  0.48664000  0.90750500  1
  C  C13  1  0.58472500  0.49410400  0.18377000  1
  C  C14  1  0.41694700  0.48591900  0.81652400  1
  C  C15  1  0.50146500  0.51850600  0.23120200  1
  C  C16  1  0.49268700  0.51833600  0.76919200  1
  C  C17  1  0.41735700  0.54298200  0.18624200  1
  C  C18  1  0.56938000  0.55081000  0.81394800  1
  C  C19  1  0.41563700  0.54422000  0.09580200  1
  C  C20  1  0.57083600  0.55233500  0.90437000  1
  C  C21  1  0.49799400  0.52037600  0.04840100  1
  C  C22  1  0.49597100  0.52028200  0.95180500  1
  C  C23  1  0.10242900  0.47901000  0.42998000  1
  C  C24  1  0.88796300  0.59447400  0.53648100  1
  C  C25  1  0.20078300  0.47925000  0.43019800  1
  C  C26  1  0.78983400  0.59261000  0.53787900  1
  C  C27  1  0.19560000  0.56105200  0.56377800  1
  C  C28  1  0.80140600  0.44453200  0.46810900  1
  C  C29  1  0.09739500  0.56120000  0.56619100  1
  C  C30  1  0.89974800  0.44362600  0.46633600  1
  C  C31  1  0.04939100  0.51990300  0.49877800  1
  C  C32  1  0.94436300  0.51935200  0.50048600  1
  C  C33  1  0.74668900  0.52560000  0.20989600  1
  C  C34  1  0.70053700  0.36558600  0.21514900  1
  C  C35  1  0.24747900  0.48872000  0.79767700  1
  C  C36  1  0.34681400  0.34454200  0.77633300  1
  N  N1  1  0.24582500  0.51986900  0.49670200  1
  N  N2  1  0.74800300  0.51831000  0.50377600  1
  N  N3  1  0.67109700  0.46494300  0.22763600  1
  N  N4  1  0.34050500  0.44683500  0.77229000  1
  O  O1  1  0.58081800  0.51883200  0.37118600  1
  O  O2  1  0.41300900  0.51882200  0.62944000  1
  O  O3  1  0.41663400  0.51934100  0.36774900  1
  O  O4  1  0.57728300  0.51913300  0.63284400  1
  O  O5  1  0.59020600  0.37710900  0.50211800  1
  O  O6  1  0.40363300  0.66087700  0.49877000  1
  O  O7  1  0.42558400  0.37730700  0.49841300  1
  O  O8  1  0.56812100  0.66066900  0.50177400  1
