# generated using pymatgen
data_Cu6H42C77O25
_symmetry_space_group_name_H-M   'P 1'
_cell_length_a   18.55403500
_cell_length_b   18.69113500
_cell_length_c   18.77284900
_cell_angle_alpha   109.42396200
_cell_angle_beta   109.74216900
_cell_angle_gamma   108.90974800
_symmetry_Int_Tables_number   1
_chemical_formula_structural   Cu6H42C77O25
_chemical_formula_sum   'Cu6 H42 C77 O25'
_cell_volume   5032.24927734
_cell_formula_units_Z   1
loop_
 _symmetry_equiv_pos_site_id
 _symmetry_equiv_pos_as_xyz
  1  'x, y, z'
loop_
 _atom_site_type_symbol
 _atom_site_label
 _atom_site_symmetry_multiplicity
 _atom_site_fract_x
 _atom_site_fract_y
 _atom_site_fract_z
 _atom_site_occupancy
  Cu  Cu1  1  0.50743000  0.45273500  0.46098700  1
  Cu  Cu2  1  0.51323600  0.57853200  0.58697100  1
  Cu  Cu3  1  0.95313600  0.45249000  0.03026000  1
  Cu  Cu4  1  0.07048800  0.57353000  0.02286400  1
  Cu  Cu5  1  0.93862300  0.01425000  0.46416700  1
  Cu  Cu6  1  0.07394900  0.01509800  0.57550700  1
  H  H1  1  0.24829800  0.65233200  0.34855500  1
  H  H2  1  0.40694500  0.66627600  0.35587800  1
  H  H3  1  0.31002200  0.54475300  0.17496700  1
  H  H4  1  0.13321200  0.39433500  0.20919800  1
  H  H5  1  0.22922200  0.51788700  0.39003900  1
  H  H6  1  0.65126800  0.77648400  0.53932600  1
  H  H7  1  0.75195500  0.57274500  0.54585400  1
  H  H8  1  0.86947000  0.55402400  0.53103500  1
  H  H9  1  0.97044500  0.65583300  0.50942600  1
  H  H10  1  0.95574800  0.77785600  0.50563200  1
  H  H11  1  0.76130500  0.88655200  0.53558600  1
  H  H12  1  0.76842600  0.63245800  0.77364800  1
  H  H13  1  0.53680500  0.33722400  0.59515100  1
  H  H14  1  0.52363000  0.20093100  0.58370400  1
  H  H15  1  0.64779900  0.19656600  0.68059200  1
  H  H16  1  0.78391600  0.32868200  0.79071900  1
  H  H17  1  0.88385600  0.63050200  0.88196700  1
  H  H18  1  0.38259300  0.37299400  0.64504400  1
  H  H19  1  0.25836300  0.34372000  0.36424800  1
  H  H20  1  0.12231400  0.24166100  0.22943100  1
  H  H21  1  0.00970500  0.11813600  0.21854800  1
  H  H22  1  0.03202700  0.09815800  0.34143700  1
  H  H23  1  0.26826100  0.25970000  0.64097200  1
  H  H24  1  0.01320800  0.65089300  0.28261100  1
  H  H25  1  0.95241900  0.70382900  0.04380000  1
  H  H26  1  0.93976500  0.81934900  0.02076200  1
  H  H27  1  0.95844000  0.94557700  0.13767300  1
  H  H28  1  0.98646500  0.95406500  0.27548000  1
  H  H29  1  0.01389200  0.76596900  0.39220900  1
  H  H30  1  0.00434100  0.37883200  0.76924400  1
  H  H31  1  0.06644200  0.31499700  0.00084400  1
  H  H32  1  0.07704500  0.19550000  0.01671700  1
  H  H33  1  0.05121700  0.06952000  0.89368100  1
  H  H34  1  0.01811000  0.06438700  0.75623700  1
  H  H35  1  0.99768600  0.26396600  0.65344500  1
  H  H36  1  0.37496700  0.44017000  0.16885400  1
  H  H37  1  0.25897800  0.38055100  0.08852900  1
  H  H38  1  0.28390500  0.26283200  0.19906500  1
  H  H39  1  0.29255100  0.13030500  0.14332500  1
  H  H40  1  0.32780200  0.09195200  0.02577200  1
  H  H41  1  0.35451600  0.18799000  0.96349000  1
  H  H42  1  0.34611200  0.32219700  0.01874400  1
  C  C1  1  0.64027200  0.63051600  0.53252400  1
  C  C2  1  0.39952300  0.52791900  0.40877300  1
  C  C3  1  0.38172500  0.40078800  0.51688600  1
  C  C4  1  0.61854500  0.50080200  0.63900800  1
  C  C5  1  0.34409700  0.60471500  0.32175000  1
  C  C6  1  0.25885500  0.59715500  0.31939200  1
  C  C7  1  0.20857900  0.53068100  0.22353300  1
  C  C8  1  0.29255100  0.53831700  0.22432600  1
  C  C9  1  0.27985000  0.46642800  0.24654700  1
  C  C10  1  0.19508200  0.45691400  0.24351000  1
  C  C11  1  0.24680200  0.52347900  0.34050200  1
  C  C12  1  0.33098700  0.53101200  0.34188400  1
  C  C13  1  0.79401900  0.61879700  0.53564500  1
  C  C14  1  0.86165100  0.60812400  0.52849100  1
  C  C15  1  0.91848500  0.66539700  0.51695800  1
  C  C16  1  0.91013600  0.73560800  0.51607000  1
  C  C17  1  0.84420600  0.74931300  0.52653700  1
  C  C18  1  0.78264200  0.68759600  0.53170900  1
  C  C19  1  0.71183500  0.69663000  0.53480800  1
  C  C20  1  0.70594100  0.76886900  0.53719200  1
  C  C21  1  0.76753200  0.83054200  0.53381100  1
  C  C22  1  0.83699700  0.82202500  0.52898900  1
  C  C23  1  0.59354700  0.33874000  0.63875900  1
  C  C24  1  0.58477400  0.26062000  0.63244700  1
  C  C25  1  0.65402100  0.25824600  0.68706000  1
  C  C26  1  0.73099700  0.33435200  0.75073600  1
  C  C27  1  0.73973200  0.41428600  0.76046200  1
  C  C28  1  0.67206300  0.41594300  0.70056400  1
  C  C29  1  0.68306600  0.49494600  0.70479000  1
  C  C30  1  0.75921400  0.57106500  0.77034900  1
  C  C31  1  0.82509500  0.56971200  0.83068600  1
  C  C32  1  0.81593300  0.49229300  0.82726800  1
  C  C33  1  0.21138600  0.29002800  0.36263900  1
  C  C34  1  0.13353700  0.23280200  0.28549900  1
  C  C35  1  0.07053100  0.16405700  0.27961400  1
  C  C36  1  0.08396900  0.15372700  0.35137600  1
  C  C37  1  0.16128600  0.21225500  0.43116300  1
  C  C38  1  0.22704000  0.27922900  0.43522100  1
  C  C39  1  0.30742300  0.33576500  0.51201100  1
  C  C40  1  0.32017500  0.32876700  0.58525700  1
  C  C41  1  0.25555300  0.26365400  0.58221700  1
  C  C42  1  0.17599900  0.20434000  0.50608600  1
  C  C43  1  0.00028700  0.63139100  0.13328700  1
  C  C44  1  0.13671800  0.52733200  0.15386500  1
  C  C45  1  0.02309900  0.39467000  0.91964700  1
  C  C46  1  0.88680000  0.49712200  0.89763900  1
  C  C47  1  0.01189400  0.12773400  0.64878800  1
  C  C48  1  0.89958900  0.89098900  0.52542500  1
  C  C49  1  0.99997200  0.90039800  0.39112400  1
  C  C50  1  0.11281800  0.13494600  0.50976600  1
  C  C51  1  0.96203500  0.75826500  0.09741900  1
  C  C52  1  0.95340600  0.82322900  0.08305200  1
  C  C53  1  0.96328000  0.89347500  0.14819900  1
  C  C54  1  0.97817600  0.89717200  0.22655600  1
  C  C55  1  0.98366700  0.83054400  0.24124500  1
  C  C56  1  0.98022000  0.76258100  0.17736500  1
  C  C57  1  0.99313600  0.69889000  0.19343300  1
  C  C58  1  0.00350500  0.70038400  0.27003000  1
  C  C59  1  0.00514600  0.76630700  0.33243800  1
  C  C60  1  0.99555900  0.83187800  0.31942800  1
  C  C61  1  0.05476700  0.26113900  0.94494100  1
  C  C62  1  0.06188600  0.19377000  0.95507200  1
  C  C63  1  0.04808000  0.12360700  0.88642400  1
  C  C64  1  0.03082300  0.12217800  0.80854000  1
  C  C65  1  0.02814000  0.19192000  0.79854500  1
  C  C66  1  0.03547600  0.25981700  0.86609200  1
  C  C67  1  0.02536600  0.32654300  0.85476500  1
  C  C68  1  0.01252200  0.32731900  0.77849200  1
  C  C69  1  0.00724700  0.26151400  0.71248000  1
  C  C70  1  0.01538100  0.19384200  0.72152800  1
  C  C71  1  0.31030200  0.38445400  0.14396900  1
  C  C72  1  0.31475500  0.30224600  0.11245900  1
  C  C73  1  0.29958100  0.24796200  0.14737400  1
  C  C74  1  0.30435400  0.17261000  0.11605000  1
  C  C75  1  0.32411000  0.15105300  0.05012900  1
  C  C76  1  0.33908000  0.20485300  0.01525200  1
  C  C77  1  0.33436300  0.28019000  0.04635000  1
  O  O1  1  0.60318700  0.54865500  0.47307400  1
  O  O2  1  0.60728100  0.65736900  0.58078900  1
  O  O3  1  0.42226500  0.46898300  0.38208800  1
  O  O4  1  0.43166000  0.58193700  0.49141900  1
  O  O5  1  0.40817100  0.37442500  0.46158900  1
  O  O6  1  0.41424200  0.48320600  0.57174800  1
  O  O7  1  0.58751800  0.44814200  0.55642400  1
  O  O8  1  0.59918300  0.56264200  0.66551600  1
  O  O9  1  0.95071500  0.54995900  0.10904800  1
  O  O10  1  0.05239800  0.65457400  0.10269800  1
  O  O11  1  0.05551600  0.47431900  0.12864500  1
  O  O12  1  0.15739200  0.57368200  0.11752000  1
  O  O13  1  0.96645900  0.37087500  0.94553600  1
  O  O14  1  0.06767200  0.47541400  0.93879400  1
  O  O15  1  0.86630100  0.45208500  0.93536000  1
  O  O16  1  0.96821200  0.55185300  0.92444000  1
  O  O17  1  0.95523900  0.10314200  0.56907900  1
  O  O18  1  0.06851200  0.09972400  0.66562000  1
  O  O19  1  0.86712500  0.91910900  0.47403400  1
  O  O20  1  0.98442900  0.92553700  0.57686700  1
  O  O21  1  0.94493700  0.93041300  0.37411800  1
  O  O22  1  0.05656000  0.92516200  0.47087600  1
  O  O23  1  0.02803900  0.10446000  0.46341400  1
  O  O24  1  0.14497300  0.10898400  0.56381500  1
  O  O25  1  0.28989800  0.39622800  0.20918800  1
