# generated using pymatgen
data_Cu2H19C26N3O8
_symmetry_space_group_name_H-M   'P 1'
_cell_length_a   10.78253700
_cell_length_b   11.03724500
_cell_length_c   9.55744100
_cell_angle_alpha   90.02050600
_cell_angle_beta   90.00504300
_cell_angle_gamma   89.99901200
_symmetry_Int_Tables_number   1
_chemical_formula_structural   Cu2H19C26N3O8
_chemical_formula_sum   'Cu2 H19 C26 N3 O8'
_cell_volume   1137.42622203
_cell_formula_units_Z   1
loop_
 _symmetry_equiv_pos_site_id
 _symmetry_equiv_pos_as_xyz
  1  'x, y, z'
loop_
 _atom_site_type_symbol
 _atom_site_label
 _atom_site_symmetry_multiplicity
 _atom_site_fract_x
 _atom_site_fract_y
 _atom_site_fract_z
 _atom_site_occupancy
  Cu  Cu1  1  0.51656500  0.45553700  0.65954500  1
  Cu  Cu2  1  0.51893600  0.45235200  0.37934300  1
  H  H1  1  0.13345900  0.33272500  0.36046000  1
  H  H2  1  0.23998400  0.65276800  0.67370900  1
  H  H3  1  0.12410500  0.78856300  0.81959800  1
  H  H4  1  0.89707200  0.77960000  0.82546700  1
  H  H5  1  0.78699300  0.63500400  0.68596000  1
  H  H6  1  0.90780000  0.32452500  0.36474900  1
  H  H7  1  0.49532700  0.84633400  0.30926800  1
  H  H8  1  0.56847800  0.85787600  0.61825500  1
  H  H9  1  0.55811000  0.06684900  0.31996400  1
  H  H10  1  0.38541700  0.32215100  0.89027500  1
  H  H11  1  0.54901000  0.53280900  0.91887400  1
  H  H12  1  0.35104300  0.36669200  0.14832500  1
  H  H13  1  0.60324700  0.46319800  0.11973200  1
  H  H14  1  0.48478200  0.05726800  0.73563700  1
  H  H15  1  0.31506800  0.07957700  0.87874400  1
  H  H16  1  0.09284900  0.11930100  0.89991400  1
  H  H17  1  0.96015100  0.12017800  0.69077900  1
  H  H18  1  0.05060900  0.07946700  0.45956100  1
  H  H19  1  0.27091400  0.03831800  0.43543700  1
  C  C1  1  0.50763000  0.22145500  0.52291200  1
  C  C2  1  0.28030200  0.46517100  0.51725700  1
  C  C3  1  0.52772300  0.68642700  0.51643600  1
  C  C4  1  0.75528200  0.44977700  0.52186500  1
  C  C5  1  0.14106100  0.63978500  0.67868500  1
  C  C6  1  0.07559800  0.71972700  0.76058400  1
  C  C7  1  0.94863700  0.71474100  0.76378000  1
  C  C8  1  0.88665100  0.62976000  0.68515600  1
  C  C9  1  0.95152800  0.54545900  0.60516400  1
  C  C10  1  0.08005100  0.55075400  0.60186100  1
  C  C11  1  0.14532100  0.47108100  0.51618100  1
  C  C12  1  0.08276300  0.39340100  0.42841600  1
  C  C13  1  0.95579700  0.38823700  0.43146000  1
  C  C14  1  0.89005400  0.46022200  0.52269200  1
  C  C15  1  0.51596300  0.88835000  0.40905800  1
  C  C16  1  0.53890400  0.81857100  0.52019000  1
  C  C17  1  0.52653100  0.02190600  0.41419900  1
  C  C18  1  0.49443600  0.08907000  0.52579100  1
  C  C19  1  0.44257300  0.38924300  0.94217300  1
  C  C20  1  0.43246000  0.40259600  0.09651800  1
  C  C21  1  0.31022600  0.05923800  0.65549900  1
  C  C22  1  0.25823200  0.08033800  0.78555200  1
  C  C23  1  0.13286300  0.10254700  0.79800700  1
  C  C24  1  0.05845700  0.10300600  0.68088100  1
  C  C25  1  0.10929100  0.08043500  0.55126300  1
  C  C26  1  0.23465000  0.05824900  0.53818500  1
  N  N1  1  0.51398100  0.45777700  0.86895000  1
  N  N2  1  0.52010700  0.44992800  0.16990100  1
  N  N3  1  0.43886500  0.03544700  0.64467800  1
  O  O1  1  0.50351600  0.27966500  0.64262200  1
  O  O2  1  0.51779300  0.27645300  0.40170900  1
  O  O3  1  0.33662400  0.45946900  0.63835000  1
  O  O4  1  0.33878900  0.46194700  0.39713800  1
  O  O5  1  0.52103800  0.63116300  0.63687500  1
  O  O6  1  0.52833900  0.62858300  0.39659300  1
  O  O7  1  0.69641200  0.44308200  0.64130300  1
  O  O8  1  0.69895200  0.45192400  0.40079500  1
