# generated using pymatgen
data_CuH6(C3O)4
_symmetry_space_group_name_H-M   'P 1'
_cell_length_a   17.05678400
_cell_length_b   35.15357600
_cell_length_c   34.99059900
_cell_angle_alpha   90.00048200
_cell_angle_beta   89.99349600
_cell_angle_gamma   89.96335800
_symmetry_Int_Tables_number   1
_chemical_formula_structural   CuH6(C3O)4
_chemical_formula_sum   'Cu12 H72 C144 O48'
_cell_volume   20980.60201176
_cell_formula_units_Z   12
loop_
 _symmetry_equiv_pos_site_id
 _symmetry_equiv_pos_as_xyz
  1  'x, y, z'
loop_
 _atom_site_type_symbol
 _atom_site_label
 _atom_site_symmetry_multiplicity
 _atom_site_fract_x
 _atom_site_fract_y
 _atom_site_fract_z
 _atom_site_occupancy
  Cu  Cu1  1  0.01915700  0.52650100  0.46255500  1
  Cu  Cu2  1  0.97892000  0.52524000  0.53400700  1
  Cu  Cu3  1  0.49368100  0.24111000  0.52775000  1
  Cu  Cu4  1  0.50547100  0.24465200  0.45331900  1
  Cu  Cu5  1  0.98855800  0.78202500  0.28902500  1
  Cu  Cu6  1  0.01983200  0.71037600  0.28432300  1
  Cu  Cu7  1  0.01750500  0.77971000  0.71593500  1
  Cu  Cu8  1  0.98078800  0.71267600  0.71968100  1
  Cu  Cu9  1  0.01346500  0.95677800  0.53967500  1
  Cu  Cu10  1  0.98213800  0.96192300  0.46755300  1
  Cu  Cu11  1  0.50124900  0.76442000  0.00263900  1
  Cu  Cu12  1  0.50098600  0.69005500  0.00265900  1
  H  H1  1  0.68665500  0.33253300  0.43985500  1
  H  H2  1  0.65040700  0.33229700  0.56082300  1
  H  H3  1  0.77216000  0.37985200  0.41181100  1
  H  H4  1  0.73519700  0.38749400  0.56682200  1
  H  H5  1  0.85813600  0.43514400  0.41853100  1
  H  H6  1  0.81644200  0.43491600  0.53894700  1
  H  H7  1  0.31322300  0.33027200  0.54814800  1
  H  H8  1  0.35275300  0.33805500  0.42763300  1
  H  H9  1  0.22597300  0.37585300  0.57854500  1
  H  H10  1  0.26780500  0.39327000  0.42465100  1
  H  H11  1  0.13909100  0.43119300  0.57447700  1
  H  H12  1  0.18501700  0.43833700  0.45465500  1
  H  H13  1  0.91555100  0.73769300  0.41409700  1
  H  H14  1  0.78112300  0.68110100  0.32886100  1
  H  H15  1  0.92761500  0.70880300  0.47725100  1
  H  H16  1  0.75372400  0.62970800  0.37302000  1
  H  H17  1  0.93145200  0.64952700  0.51370700  1
  H  H18  1  0.80025500  0.59440400  0.42651600  1
  H  H19  1  0.19645500  0.59145200  0.57294000  1
  H  H20  1  0.06891700  0.64975000  0.48646900  1
  H  H21  1  0.24116200  0.62477600  0.62798100  1
  H  H22  1  0.07232000  0.70783700  0.52477300  1
  H  H23  1  0.21333500  0.67508800  0.67342800  1
  H  H24  1  0.08195700  0.73453400  0.58899000  1
  H  H25  1  0.14879900  0.06266000  0.44019400  1
  H  H26  1  0.18263000  0.03742900  0.55883300  1
  H  H27  1  0.22122300  0.11578700  0.41255700  1
  H  H28  1  0.27103400  0.09033300  0.56460200  1
  H  H29  1  0.31376000  0.16835500  0.41931400  1
  H  H30  1  0.33890600  0.14272700  0.53791200  1
  H  H31  1  0.67301200  0.15169100  0.55320400  1
  H  H32  1  0.66182400  0.15212600  0.43099900  1
  H  H33  1  0.75466300  0.10412100  0.58499500  1
  H  H34  1  0.74784700  0.09735900  0.42895900  1
  H  H35  1  0.84305000  0.04911100  0.58165800  1
  H  H36  1  0.82338500  0.05051700  0.45993300  1
  H  H37  1  0.20766500  0.80852500  0.35788800  1
  H  H38  1  0.05832400  0.72865600  0.41273400  1
  H  H39  1  0.25070800  0.86362800  0.39081400  1
  H  H40  1  0.06011700  0.76737500  0.47072200  1
  H  H41  1  0.21860600  0.91122000  0.43853500  1
  H  H42  1  0.07647800  0.83093700  0.49756900  1
  H  H43  1  0.66036800  0.78046200  0.10305700  1
  H  H44  1  0.70111600  0.66456200  0.07240800  1
  H  H45  1  0.72647500  0.80671700  0.15687800  1
  H  H46  1  0.79467600  0.65838700  0.12451800  1
  H  H47  1  0.81544500  0.80081700  0.20985400  1
  H  H48  1  0.86272300  0.68513400  0.17910800  1
  H  H49  1  0.32581700  0.78925900  0.09159000  1
  H  H50  1  0.35166300  0.66849400  0.10061300  1
  H  H51  1  0.24260900  0.82249700  0.13730800  1
  H  H52  1  0.26721300  0.66858200  0.15643600  1
  H  H53  1  0.15523800  0.82135400  0.19302400  1
  H  H54  1  0.18871300  0.70107500  0.20112000  1
  H  H55  1  0.78898900  0.88906900  0.56573600  1
  H  H56  1  0.93928400  0.83599800  0.48482600  1
  H  H57  1  0.74309900  0.85450500  0.61982900  1
  H  H58  1  0.93982700  0.77809900  0.52342000  1
  H  H59  1  0.77535700  0.80650700  0.66712500  1
  H  H60  1  0.92687500  0.75199900  0.58761200  1
  H  H61  1  0.82065300  0.69992500  0.80729200  1
  H  H62  1  0.85054500  0.82054900  0.81324900  1
  H  H63  1  0.74146400  0.66778700  0.85158800  1
  H  H64  1  0.76170700  0.82211000  0.86848400  1
  H  H65  1  0.65434900  0.66809700  0.90638200  1
  H  H66  1  0.67728900  0.78910400  0.91399300  1
  H  H67  1  0.13922800  0.68646200  0.82572100  1
  H  H68  1  0.20302900  0.79871600  0.78970500  1
  H  H69  1  0.20292500  0.66022900  0.88201000  1
  H  H70  1  0.29092600  0.80440700  0.84302200  1
  H  H71  1  0.29522300  0.66634000  0.93477900  1
  H  H72  1  0.35070600  0.77920200  0.89898600  1
  C  C1  1  0.10212600  0.47195100  0.51038400  1
  C  C2  1  0.09746300  0.58001000  0.51535900  1
  C  C3  1  0.90081200  0.58077600  0.48306800  1
  C  C4  1  0.89645300  0.47221300  0.48442000  1
  C  C5  1  0.39439000  0.29731600  0.48928800  1
  C  C6  1  0.60678300  0.29598100  0.49645500  1
  C  C7  1  0.60520100  0.18856300  0.49236500  1
  C  C8  1  0.39078900  0.19067000  0.48345700  1
  C  C9  1  0.89851000  0.72812700  0.33712100  1
  C  C10  1  0.90197100  0.74107400  0.23116400  1
  C  C11  1  0.11103000  0.75825400  0.23434700  1
  C  C12  1  0.10031000  0.75636500  0.34360800  1
  C  C13  1  0.10662900  0.74174000  0.77156800  1
  C  C14  1  0.89602000  0.75681800  0.77277200  1
  C  C15  1  0.90040700  0.76341200  0.66306200  1
  C  C16  1  0.09917200  0.72404900  0.66561500  1
  C  C17  1  0.89340100  0.01253400  0.51660100  1
  C  C18  1  0.10253000  0.01355600  0.49789000  1
  C  C19  1  0.09962100  0.90685100  0.48584700  1
  C  C20  1  0.89820900  0.90406700  0.51382700  1
  C  C21  1  0.61371200  0.72564000  0.05350200  1
  C  C22  1  0.39911700  0.72829100  0.05872200  1
  C  C23  1  0.38886500  0.72581300  0.95157800  1
  C  C24  1  0.60391200  0.72817900  0.94694700  1
  C  C25  1  0.66225600  0.32819700  0.49989800  1
  C  C26  1  0.84302100  0.43943600  0.47917700  1
  C  C27  1  0.78174000  0.39193100  0.43982900  1
  C  C28  1  0.83039700  0.42332100  0.44362700  1
  C  C29  1  0.80679800  0.42327900  0.51076700  1
  C  C30  1  0.75926700  0.39155800  0.50698800  1
  C  C31  1  0.74610300  0.37585600  0.47151900  1
  C  C32  1  0.69739900  0.34432100  0.46788700  1
  C  C33  1  0.67706700  0.34397000  0.53539100  1
  C  C34  1  0.72499900  0.37542900  0.53885000  1
  C  C35  1  0.33936100  0.32991800  0.48811900  1
  C  C36  1  0.15615600  0.43917700  0.51433000  1
  C  C37  1  0.21715300  0.38959100  0.55124500  1
  C  C38  1  0.16798300  0.42101500  0.54895700  1
  C  C39  1  0.19384600  0.42509400  0.48217400  1
  C  C40  1  0.24186000  0.39341300  0.48441400  1
  C  C41  1  0.25416500  0.37555400  0.51892500  1
  C  C42  1  0.30319600  0.34389800  0.52089900  1
  C  C43  1  0.32545400  0.34798900  0.45364600  1
  C  C44  1  0.27734200  0.37948600  0.45186900  1
  C  C45  1  0.84926600  0.71339400  0.36832000  1
  C  C46  1  0.86581700  0.61775200  0.47271400  1
  C  C47  1  0.89578400  0.68432700  0.46681600  1
  C  C48  1  0.89707400  0.65080400  0.48781500  1
  C  C49  1  0.82361500  0.62010900  0.43906400  1
  C  C50  1  0.82099800  0.65372000  0.41844500  1
  C  C51  1  0.86148900  0.68527000  0.43094600  1
  C  C52  1  0.87505900  0.71551100  0.40595900  1
  C  C53  1  0.80008600  0.68384800  0.35821300  1
  C  C54  1  0.78580500  0.65426100  0.38305000  1
  C  C55  1  0.13270200  0.61648300  0.52701200  1
  C  C56  1  0.14754700  0.70891400  0.63431700  1
  C  C57  1  0.20991900  0.64979000  0.61843600  1
  C  C58  1  0.19538500  0.67871200  0.64402100  1
  C  C59  1  0.12232500  0.71208100  0.59666500  1
  C  C60  1  0.13643600  0.68259800  0.57086900  1
  C  C61  1  0.17613400  0.65053900  0.58271600  1
  C  C62  1  0.17385800  0.61762300  0.56102100  1
  C  C63  1  0.10245500  0.65009000  0.51265600  1
  C  C64  1  0.10343400  0.68292300  0.53470300  1
  C  C65  1  0.15862900  0.04578200  0.49890200  1
  C  C66  1  0.33270900  0.15965300  0.47929500  1
  C  C67  1  0.24679200  0.12157300  0.44021300  1
  C  C68  1  0.29935800  0.15143400  0.44412000  1
  C  C69  1  0.31292200  0.13725500  0.51029800  1
  C  C70  1  0.26162600  0.10698400  0.50614300  1
  C  C71  1  0.22780000  0.09898700  0.47122700  1
  C  C72  1  0.17569900  0.06856400  0.46752000  1
  C  C73  1  0.19422200  0.05412900  0.53356000  1
  C  C74  1  0.24469200  0.08443500  0.53714300  1
  C  C75  1  0.66082700  0.15612100  0.49224700  1
  C  C76  1  0.83921200  0.04531500  0.52058100  1
  C  C77  1  0.76971000  0.09231700  0.55742800  1
  C  C78  1  0.81977200  0.06109900  0.55557500  1
  C  C79  1  0.80853400  0.06171200  0.48774800  1
  C  C80  1  0.75991700  0.09315300  0.48961200  1
  C  C81  1  0.73958700  0.10856100  0.52439100  1
  C  C82  1  0.68953200  0.13994500  0.52582000  1
  C  C83  1  0.68312700  0.14049900  0.45762300  1
  C  C84  1  0.73188100  0.10924200  0.45636800  1
  C  C85  1  0.13417900  0.76548100  0.38127100  1
  C  C86  1  0.14645600  0.87442700  0.47186000  1
  C  C87  1  0.21533400  0.85554600  0.41512000  1
  C  C88  1  0.19816300  0.88239400  0.44256600  1
  C  C89  1  0.11875000  0.83738400  0.47554200  1
  C  C90  1  0.13364100  0.81065700  0.44691100  1
  C  C91  1  0.17894200  0.82057700  0.41588200  1
  C  C92  1  0.17990300  0.79790100  0.38352500  1
  C  C93  1  0.09633200  0.75319600  0.41401600  1
  C  C94  1  0.09617900  0.77566200  0.44671900  1
  C  C95  1  0.67415800  0.72319100  0.08370400  1
  C  C96  1  0.84617300  0.74230600  0.19872300  1
  C  C97  1  0.75600800  0.77990100  0.16152100  1
  C  C98  1  0.80688300  0.77623000  0.19183900  1
  C  C99  1  0.83281400  0.71183800  0.17439900  1
  C  C100  1  0.78061000  0.71562500  0.14395400  1
  C  C101  1  0.74257200  0.74971900  0.13744600  1
  C  C102  1  0.69032100  0.75369900  0.10731100  1
  C  C103  1  0.71241500  0.68898900  0.09031600  1
  C  C104  1  0.76565400  0.68534500  0.11994200  1
  C  C105  1  0.34504600  0.72882200  0.09185400  1
  C  C106  1  0.16591500  0.76123900  0.20162200  1
  C  C107  1  0.23086600  0.79575900  0.15143900  1
  C  C108  1  0.18149700  0.79517400  0.18308100  1
  C  C109  1  0.20022300  0.72816900  0.18771800  1
  C  C110  1  0.24820900  0.72871800  0.15588900  1
  C  C111  1  0.26417200  0.76246200  0.13759300  1
  C  C112  1  0.31298100  0.76261700  0.10565800  1
  C  C113  1  0.32752300  0.69518300  0.11042800  1
  C  C114  1  0.27975100  0.69519600  0.14223400  1
  C  C115  1  0.86356500  0.86663100  0.52239800  1
  C  C116  1  0.85123100  0.77500500  0.63052900  1
  C  C117  1  0.77987300  0.83081700  0.61164000  1
  C  C118  1  0.79681800  0.80308100  0.63825800  1
  C  C119  1  0.88131800  0.77252900  0.59365200  1
  C  C120  1  0.86498700  0.80086300  0.56689600  1
  C  C121  1  0.81796900  0.83112400  0.57690900  1
  C  C122  1  0.81725600  0.86379800  0.55476000  1
  C  C123  1  0.90155400  0.83429500  0.50955500  1
  C  C124  1  0.90289600  0.80164400  0.53188600  1
  C  C125  1  0.84197400  0.76021700  0.80579000  1
  C  C126  1  0.65925800  0.72857200  0.91433300  1
  C  C127  1  0.72770600  0.69454200  0.86526000  1
  C  C128  1  0.67835400  0.69475900  0.89646000  1
  C  C129  1  0.69135500  0.76232900  0.90045200  1
  C  C130  1  0.74162700  0.76195400  0.86905300  1
  C  C131  1  0.75914200  0.72801300  0.85148700  1
  C  C132  1  0.80829300  0.72720000  0.82013500  1
  C  C133  1  0.82499200  0.79438200  0.82361400  1
  C  C134  1  0.77470800  0.79520000  0.85494100  1
  C  C135  1  0.16380200  0.74198800  0.80349400  1
  C  C136  1  0.32915900  0.72351300  0.92101100  1
  C  C137  1  0.23496500  0.68650900  0.88556600  1
  C  C138  1  0.28741700  0.69010500  0.91556300  1
  C  C139  1  0.31770400  0.75317300  0.89572900  1
  C  C140  1  0.26654000  0.74913600  0.86517100  1
  C  C141  1  0.22460000  0.71593700  0.85992400  1
  C  C142  1  0.17283700  0.71227800  0.82924000  1
  C  C143  1  0.20766300  0.77481600  0.80895800  1
  C  C144  1  0.25807800  0.77836700  0.83944700  1
  O  O1  1  0.09845900  0.48933800  0.47727300  1
  O  O2  1  0.05479500  0.48243800  0.53830800  1
  O  O3  1  0.08322800  0.57128500  0.47927900  1
  O  O4  1  0.06432200  0.56031100  0.54262200  1
  O  O5  1  0.93391500  0.56200100  0.45513300  1
  O  O6  1  0.91485900  0.57068200  0.51881800  1
  O  O7  1  0.94351300  0.48385300  0.45686200  1
  O  O8  1  0.89994200  0.48838900  0.51814900  1
  O  O9  1  0.41397900  0.28150400  0.52199700  1
  O  O10  1  0.42665500  0.28525200  0.45734500  1
  O  O11  1  0.57453700  0.28126400  0.52730800  1
  O  O12  1  0.58630900  0.28342300  0.46253400  1
  O  O13  1  0.57524800  0.20131600  0.52454100  1
  O  O14  1  0.58286800  0.20356500  0.45964600  1
  O  O15  1  0.41396800  0.20161100  0.51764300  1
  O  O16  1  0.42161200  0.20633500  0.45285600  1
  O  O17  1  0.91851100  0.76422400  0.33219800  1
  O  O18  1  0.93011900  0.70193800  0.31573800  1
  O  O19  1  0.90879700  0.77214900  0.25137900  1
  O  O20  1  0.94656000  0.71134800  0.23934900  1
  O  O21  1  0.06616300  0.78670300  0.24605200  1
  O  O22  1  0.10320200  0.72473600  0.25004300  1
  O  O23  1  0.07324300  0.78558400  0.32485200  1
  O  O24  1  0.08126100  0.72159000  0.33237900  1
  O  O25  1  0.09891300  0.77353400  0.75260400  1
  O  O26  1  0.06100000  0.71233900  0.76273800  1
  O  O27  1  0.93933800  0.78522200  0.75933800  1
  O  O28  1  0.90355500  0.72305500  0.75771800  1
  O  O29  1  0.93847600  0.79103200  0.67963000  1
  O  O30  1  0.91055400  0.72779400  0.67502500  1
  O  O31  1  0.08665300  0.76066700  0.67267000  1
  O  O32  1  0.06256000  0.69842900  0.68575100  1
  O  O33  1  0.93737200  0.99990500  0.54502400  1
  O  O34  1  0.90093700  0.99745700  0.48259500  1
  O  O35  1  0.09445800  0.99384900  0.52937900  1
  O  O36  1  0.05821100  0.00542600  0.46798700  1
  O  O37  1  0.08094900  0.91287200  0.52208300  1
  O  O38  1  0.06910100  0.92826500  0.45925400  1
  O  O39  1  0.92714600  0.92190000  0.54330500  1
  O  O40  1  0.91736000  0.91532200  0.47893900  1
  O  O41  1  0.58419300  0.75855000  0.04231500  1
  O  O42  1  0.58704200  0.69389600  0.03886900  1
  O  O43  1  0.42228400  0.76039800  0.04327200  1
  O  O44  1  0.42648000  0.69571800  0.04560000  1
  O  O45  1  0.41871000  0.75864800  0.96273600  1
  O  O46  1  0.41489900  0.69402000  0.96641300  1
  O  O47  1  0.58065600  0.76033200  0.96227200  1
  O  O48  1  0.57600400  0.69565900  0.95990800  1
