# generated using pymatgen
data_Cu3H31C64(O4F)3
_symmetry_space_group_name_H-M   'P 1'
_cell_length_a   47.37081400
_cell_length_b   35.28778400
_cell_length_c   31.69585300
_cell_angle_alpha   90.00000000
_cell_angle_beta   48.06734900
_cell_angle_gamma   90.00000000
_symmetry_Int_Tables_number   1
_chemical_formula_structural   Cu3H31C64(O4F)3
_chemical_formula_sum   'Cu12 H124 C256 O48 F12'
_cell_volume   39415.79099379
_cell_formula_units_Z   4
loop_
 _symmetry_equiv_pos_site_id
 _symmetry_equiv_pos_as_xyz
  1  'x, y, z'
loop_
 _atom_site_type_symbol
 _atom_site_label
 _atom_site_symmetry_multiplicity
 _atom_site_fract_x
 _atom_site_fract_y
 _atom_site_fract_z
 _atom_site_occupancy
  Cu  Cu1  1  0.50000000  0.96815000  0.50000000  1
  Cu  Cu2  1  0.00000000  0.46815000  0.50000000  1
  Cu  Cu3  1  0.50000000  0.04215400  0.50000000  1
  Cu  Cu4  1  0.00000000  0.54215400  0.50000000  1
  Cu  Cu5  1  0.53777700  0.99880900  0.96368900  1
  Cu  Cu6  1  0.46222300  0.99880900  0.03631100  1
  Cu  Cu7  1  0.03777700  0.49880900  0.96368900  1
  Cu  Cu8  1  0.96222300  0.49880900  0.03631100  1
  Cu  Cu9  1  0.00053100  0.99887700  0.04061900  1
  Cu  Cu10  1  0.99946800  0.99887700  0.95938100  1
  Cu  Cu11  1  0.50053100  0.49887700  0.04061900  1
  Cu  Cu12  1  0.49946800  0.49887700  0.95938100  1
  H  H1  1  0.56137400  0.03116400  0.66097900  1
  H  H2  1  0.43862600  0.03116400  0.33902100  1
  H  H3  1  0.06137400  0.53116400  0.66097900  1
  H  H4  1  0.93862600  0.53116400  0.33902100  1
  H  H5  1  0.50873100  0.06414100  0.76997500  1
  H  H6  1  0.49126900  0.06414100  0.23002600  1
  H  H7  1  0.00873100  0.56414100  0.76997500  1
  H  H8  1  0.99126900  0.56414100  0.23002600  1
  H  H9  1  0.44929300  0.03689300  0.77802900  1
  H  H10  1  0.55070700  0.03689300  0.22197100  1
  H  H11  1  0.94929300  0.53689300  0.77802900  1
  H  H12  1  0.05070700  0.53689300  0.22197100  1
  H  H13  1  0.44769900  0.97018300  0.82866300  1
  H  H14  1  0.55230100  0.97018300  0.17133700  1
  H  H15  1  0.94769900  0.47018300  0.82866300  1
  H  H16  1  0.05230100  0.47018300  0.17133700  1
  H  H17  1  0.50030200  0.93717200  0.71976300  1
  H  H18  1  0.49969800  0.93717200  0.28023700  1
  H  H19  1  0.00030200  0.43717200  0.71976300  1
  H  H20  1  0.99969800  0.43717200  0.28023700  1
  H  H21  1  0.81405700  0.04586700  0.14107200  1
  H  H22  1  0.18594300  0.04586700  0.85892900  1
  H  H23  1  0.31405700  0.54586700  0.14107200  1
  H  H24  1  0.68594300  0.54586700  0.85892900  1
  H  H25  1  0.88319300  0.04248400  0.07158700  1
  H  H26  1  0.11680700  0.04248400  0.92841300  1
  H  H27  1  0.38319300  0.54248400  0.07158700  1
  H  H28  1  0.61680700  0.54248400  0.92841300  1
  H  H29  1  0.80951800  0.95860400  0.23776800  1
  H  H30  1  0.19048200  0.95860400  0.76223300  1
  H  H31  1  0.30951800  0.45860400  0.23776800  1
  H  H32  1  0.69048200  0.45860400  0.76223300  1
  H  H33  1  0.68801900  0.06216000  0.29079400  1
  H  H34  1  0.31198100  0.06216000  0.70920600  1
  H  H35  1  0.18801900  0.56216000  0.29079400  1
  H  H36  1  0.81198100  0.56216000  0.70920600  1
  H  H37  1  0.61878300  0.06253600  0.35931800  1
  H  H38  1  0.38121700  0.06253600  0.64068200  1
  H  H39  1  0.11878300  0.56253600  0.35931800  1
  H  H40  1  0.88121700  0.56253600  0.64068200  1
  H  H41  1  0.61858200  0.94795800  0.40428700  1
  H  H42  1  0.38141800  0.94795800  0.59571300  1
  H  H43  1  0.11858200  0.44795800  0.40428700  1
  H  H44  1  0.88141800  0.44795800  0.59571300  1
  H  H45  1  0.68775500  0.94837300  0.33551400  1
  H  H46  1  0.31224500  0.94837300  0.66448600  1
  H  H47  1  0.18775500  0.44837300  0.33551400  1
  H  H48  1  0.81224500  0.44837300  0.66448600  1
  H  H49  1  0.98082900  0.18644600  0.08280200  1
  H  H50  1  0.01917100  0.18644600  0.91719900  1
  H  H51  1  0.48082900  0.68644600  0.08280200  1
  H  H52  1  0.51917100  0.68644600  0.91719900  1
  H  H53  1  0.98069000  0.11733900  0.08338700  1
  H  H54  1  0.01931000  0.11733900  0.91661300  1
  H  H55  1  0.48069000  0.61733900  0.08338700  1
  H  H56  1  0.51931000  0.61733900  0.91661300  1
  H  H57  1  0.43963900  0.81023000  0.06184700  1
  H  H58  1  0.56036100  0.81023000  0.93815300  1
  H  H59  1  0.93963900  0.31023000  0.06184700  1
  H  H60  1  0.06036100  0.31023000  0.93815300  1
  H  H61  1  0.43921600  0.87934100  0.06228200  1
  H  H62  1  0.56078400  0.87934100  0.93771800  1
  H  H63  1  0.93921600  0.37934100  0.06228200  1
  H  H64  1  0.06078400  0.37934100  0.93771800  1
  H  H65  1  0.97555700  0.81148200  0.96302700  1
  H  H66  1  0.02444300  0.81148200  0.03697300  1
  H  H67  1  0.47555700  0.31148200  0.96302700  1
  H  H68  1  0.52444300  0.31148200  0.03697300  1
  H  H69  1  0.97533100  0.88058700  0.96285300  1
  H  H70  1  0.02466900  0.88058800  0.03714700  1
  H  H71  1  0.47533100  0.38058800  0.96285300  1
  H  H72  1  0.52466900  0.38058800  0.03714700  1
  H  H73  1  0.45538500  0.18803000  0.99967300  1
  H  H74  1  0.54461500  0.18803000  0.00032700  1
  H  H75  1  0.95538500  0.68803000  0.99967300  1
  H  H76  1  0.04461500  0.68803000  0.00032700  1
  H  H77  1  0.58056100  0.95280600  0.62201900  1
  H  H78  1  0.63823600  0.91510500  0.57434400  1
  H  H79  1  0.62361000  0.92076400  0.72208400  1
  H  H80  1  0.56639600  0.95814000  0.76994200  1
  H  H81  1  0.41943900  0.95280600  0.37798100  1
  H  H82  1  0.36176400  0.91510600  0.42565600  1
  H  H83  1  0.37639000  0.92076400  0.27791600  1
  H  H84  1  0.43360400  0.95814000  0.23005800  1
  H  H85  1  0.08056100  0.45280600  0.62201900  1
  H  H86  1  0.13823600  0.41510500  0.57434400  1
  H  H87  1  0.12361000  0.42076400  0.72208400  1
  H  H88  1  0.06639600  0.45814000  0.76994200  1
  H  H89  1  0.91943900  0.45280600  0.37798100  1
  H  H90  1  0.86176400  0.41510600  0.42565600  1
  H  H91  1  0.87639000  0.42076400  0.27791600  1
  H  H92  1  0.93360400  0.45814000  0.23005800  1
  H  H93  1  0.39921000  0.13610300  0.07418700  1
  H  H94  1  0.35645700  0.10671200  0.06520300  1
  H  H95  1  0.45158300  0.06190200  0.90421100  1
  H  H96  1  0.49453100  0.09062600  0.91335200  1
  H  H97  1  0.60079000  0.13610300  0.92581400  1
  H  H98  1  0.64354300  0.10671200  0.93479700  1
  H  H99  1  0.54841700  0.06190200  0.09578900  1
  H  H100  1  0.50546900  0.09062600  0.08664800  1
  H  H101  1  0.89921000  0.63610300  0.07418700  1
  H  H102  1  0.85645700  0.60671200  0.06520300  1
  H  H103  1  0.95158300  0.56190200  0.90421100  1
  H  H104  1  0.99453100  0.59062600  0.91335200  1
  H  H105  1  0.10079000  0.63610300  0.92581400  1
  H  H106  1  0.14354300  0.60671200  0.93479700  1
  H  H107  1  0.04841700  0.56190200  0.09578900  1
  H  H108  1  0.00546900  0.59062600  0.08664800  1
  H  H109  1  0.86326500  0.96643600  0.24762400  1
  H  H110  1  0.88989100  0.91408100  0.26264100  1
  H  H111  1  0.92864800  0.86126600  0.11115900  1
  H  H112  1  0.90327400  0.91416900  0.09480600  1
  H  H113  1  0.13673500  0.96643600  0.75237600  1
  H  H114  1  0.11010900  0.91408100  0.73735900  1
  H  H115  1  0.07135200  0.86126600  0.88884100  1
  H  H116  1  0.09672600  0.91416900  0.90519400  1
  H  H117  1  0.36326500  0.46643600  0.24762400  1
  H  H118  1  0.38989100  0.41408100  0.26264100  1
  H  H119  1  0.42864800  0.36126600  0.11115900  1
  H  H120  1  0.40327400  0.41416900  0.09480600  1
  H  H121  1  0.63673500  0.46643600  0.75237600  1
  H  H122  1  0.61010900  0.41408100  0.73735900  1
  H  H123  1  0.57135200  0.36126600  0.88884100  1
  H  H124  1  0.59672600  0.41416900  0.90519400  1
  C  C1  1  0.57193900  0.00518000  0.42820500  1
  C  C2  1  0.42806100  0.00518000  0.57179500  1
  C  C3  1  0.07193900  0.50518000  0.42820500  1
  C  C4  1  0.92806100  0.50518000  0.57179500  1
  C  C5  1  0.50004800  0.00511000  0.57976400  1
  C  C6  1  0.49995200  0.00511000  0.42023600  1
  C  C7  1  0.00004800  0.50511000  0.57976400  1
  C  C8  1  0.99995200  0.50511000  0.42023600  1
  C  C9  1  0.53430200  0.98116000  0.72640300  1
  C  C10  1  0.46569800  0.98116000  0.27359700  1
  C  C11  1  0.03430200  0.48116000  0.72640300  1
  C  C12  1  0.96569800  0.48116000  0.27359700  1
  C  C13  1  0.53552500  0.01736700  0.69951500  1
  C  C14  1  0.46447500  0.01736700  0.30048500  1
  C  C15  1  0.03552500  0.51736700  0.69951500  1
  C  C16  1  0.96447500  0.51736700  0.30048500  1
  C  C17  1  0.50081500  0.00471100  0.62418800  1
  C  C18  1  0.49918500  0.00471100  0.37581300  1
  C  C19  1  0.00081500  0.50471100  0.62418800  1
  C  C20  1  0.99918500  0.50471100  0.37581300  1
  C  C21  1  0.50406300  0.99875300  0.86999600  1
  C  C22  1  0.49593700  0.99875300  0.13000400  1
  C  C23  1  0.00406300  0.49875300  0.86999600  1
  C  C24  1  0.99593700  0.49875300  0.13000400  1
  C  C25  1  0.50214100  0.96601200  0.73165900  1
  C  C26  1  0.49785900  0.96601200  0.26834100  1
  C  C27  1  0.00214100  0.46601200  0.73165900  1
  C  C28  1  0.99785900  0.46601200  0.26834100  1
  C  C29  1  0.50306900  0.00238800  0.70589300  1
  C  C30  1  0.49693100  0.00238800  0.29410700  1
  C  C31  1  0.00306900  0.50238800  0.70589300  1
  C  C32  1  0.99693100  0.50238800  0.29410700  1
  C  C33  1  0.47347400  0.98408200  0.79015600  1
  C  C34  1  0.52652600  0.98408200  0.20984400  1
  C  C35  1  0.97347400  0.48408200  0.79015600  1
  C  C36  1  0.02652600  0.48408200  0.20984400  1
  C  C37  1  0.50590000  0.99899500  0.78416600  1
  C  C38  1  0.49410000  0.99899500  0.21583400  1
  C  C39  1  0.00590000  0.49899500  0.78416600  1
  C  C40  1  0.99410000  0.49899500  0.21583400  1
  C  C41  1  0.47436100  0.02043100  0.76352700  1
  C  C42  1  0.52563900  0.02043100  0.23647300  1
  C  C43  1  0.97436100  0.52043100  0.76352700  1
  C  C44  1  0.02563900  0.52043100  0.23647300  1
  C  C45  1  0.50678900  0.03534100  0.75809100  1
  C  C46  1  0.49321100  0.03534100  0.24190900  1
  C  C47  1  0.00678900  0.53534100  0.75809100  1
  C  C48  1  0.99321100  0.53534100  0.24190900  1
  C  C49  1  0.50169200  0.00390900  0.66125900  1
  C  C50  1  0.49830800  0.00390900  0.33874100  1
  C  C51  1  0.00169200  0.50390900  0.66125900  1
  C  C52  1  0.99830800  0.50390900  0.33874100  1
  C  C53  1  0.50504600  0.99870700  0.83107100  1
  C  C54  1  0.49495400  0.99870700  0.16892900  1
  C  C55  1  0.00504600  0.49870700  0.83107100  1
  C  C56  1  0.99495400  0.49870700  0.16892900  1
  C  C57  1  0.82842000  0.02592700  0.14709900  1
  C  C58  1  0.17158000  0.02592700  0.85290100  1
  C  C59  1  0.32842000  0.52592700  0.14709900  1
  C  C60  1  0.67158000  0.52592700  0.85290100  1
  C  C61  1  0.86746200  0.02362200  0.10767500  1
  C  C62  1  0.13253800  0.02362200  0.89232500  1
  C  C63  1  0.36746200  0.52362200  0.10767500  1
  C  C64  1  0.63253800  0.52362200  0.89232500  1
  C  C65  1  0.88623700  0.99819800  0.11481300  1
  C  C66  1  0.11376300  0.99819800  0.88518700  1
  C  C67  1  0.38623700  0.49819800  0.11481300  1
  C  C68  1  0.61376300  0.49819800  0.88518700  1
  C  C69  1  0.86510000  0.97445700  0.16200600  1
  C  C70  1  0.13490000  0.97445700  0.83799400  1
  C  C71  1  0.36510000  0.47445700  0.16200600  1
  C  C72  1  0.63490000  0.47445700  0.83799400  1
  C  C73  1  0.82604500  0.97740200  0.20158100  1
  C  C74  1  0.17395500  0.97740200  0.79842000  1
  C  C75  1  0.32604500  0.47740200  0.20158100  1
  C  C76  1  0.67395500  0.47740200  0.79842000  1
  C  C77  1  0.80772000  0.00291700  0.19417100  1
  C  C78  1  0.19228000  0.00291700  0.80582900  1
  C  C79  1  0.30772000  0.50291700  0.19417100  1
  C  C80  1  0.69228000  0.50291700  0.80582900  1
  C  C81  1  0.76702300  0.00439900  0.23455000  1
  C  C82  1  0.23297700  0.00439900  0.76545000  1
  C  C83  1  0.26702300  0.50439900  0.23455000  1
  C  C84  1  0.73297700  0.50439900  0.76545000  1
  C  C85  1  0.73283300  0.00506400  0.26850400  1
  C  C86  1  0.26716700  0.00506400  0.73149700  1
  C  C87  1  0.23283300  0.50506400  0.26850400  1
  C  C88  1  0.76716700  0.50506400  0.73149700  1
  C  C89  1  0.67260800  0.03715000  0.31588000  1
  C  C90  1  0.32739200  0.03715000  0.68412000  1
  C  C91  1  0.17260800  0.53715000  0.31588000  1
  C  C92  1  0.82739200  0.53715000  0.68412000  1
  C  C93  1  0.63346200  0.03720800  0.35467200  1
  C  C94  1  0.36653800  0.03720800  0.64532800  1
  C  C95  1  0.13346200  0.53720800  0.35467200  1
  C  C96  1  0.86653800  0.53720800  0.64532800  1
  C  C97  1  0.61357600  0.00524100  0.38684800  1
  C  C98  1  0.38642400  0.00524100  0.61315200  1
  C  C99  1  0.11357600  0.50524100  0.38684800  1
  C  C100  1  0.88642400  0.50524100  0.61315200  1
  C  C101  1  0.63333200  0.97330800  0.37974500  1
  C  C102  1  0.36666800  0.97330800  0.62025500  1
  C  C103  1  0.13333200  0.47330800  0.37974500  1
  C  C104  1  0.86666800  0.47330800  0.62025500  1
  C  C105  1  0.67245300  0.97339800  0.34093600  1
  C  C106  1  0.32754700  0.97339800  0.65906400  1
  C  C107  1  0.17245300  0.47339800  0.34093600  1
  C  C108  1  0.82754700  0.47339800  0.65906400  1
  C  C109  1  0.69210500  0.00526800  0.30900400  1
  C  C110  1  0.30789500  0.00526800  0.69099600  1
  C  C111  1  0.19210500  0.50526800  0.30900400  1
  C  C112  1  0.80789500  0.50526800  0.69099600  1
  C  C113  1  0.50000000  0.92596200  0.00000000  1
  C  C114  1  0.00000000  0.42596200  0.00000000  1
  C  C115  1  0.50273000  0.99908200  0.91645700  1
  C  C116  1  0.49727000  0.99908200  0.08354300  1
  C  C117  1  0.00273000  0.49908200  0.91645700  1
  C  C118  1  0.99727000  0.49908200  0.08354300  1
  C  C119  1  0.50000000  0.07172000  0.00000000  1
  C  C120  1  0.00000000  0.57172000  0.00000000  1
  C  C121  1  0.00000000  0.07071500  0.00000000  1
  C  C122  1  0.50000000  0.57071500  0.00000000  1
  C  C123  1  0.92798200  0.99800700  0.07280100  1
  C  C124  1  0.07201800  0.99800700  0.92719900  1
  C  C125  1  0.42798200  0.49800700  0.07280100  1
  C  C126  1  0.57201800  0.49800700  0.92719900  1
  C  C127  1  0.00000000  0.92708000  0.00000000  1
  C  C128  1  0.50000000  0.42708000  0.00000000  1
  C  C129  1  0.98926000  0.17110200  0.04639500  1
  C  C130  1  0.01074000  0.17110200  0.95360500  1
  C  C131  1  0.48926000  0.67110200  0.04639500  1
  C  C132  1  0.51074000  0.67110200  0.95360500  1
  C  C133  1  0.98923900  0.13203500  0.04649900  1
  C  C134  1  0.01076100  0.13203500  0.95350100  1
  C  C135  1  0.48923900  0.63203500  0.04649900  1
  C  C136  1  0.51076100  0.63203500  0.95350100  1
  C  C137  1  0.00000000  0.11226300  0.00000000  1
  C  C138  1  0.50000000  0.61226300  0.00000000  1
  C  C139  1  0.00000000  0.19062800  0.00000000  1
  C  C140  1  0.50000000  0.69062800  0.00000000  1
  C  C141  1  0.00000000  0.23127200  0.00000000  1
  C  C142  1  0.50000000  0.73127200  0.00000000  1
  C  C143  1  0.50000000  0.76540500  0.00000000  1
  C  C144  1  0.00000000  0.26540500  0.00000000  1
  C  C145  1  0.46617700  0.82557400  0.03465300  1
  C  C146  1  0.53382300  0.82557400  0.96534700  1
  C  C147  1  0.96617700  0.32557400  0.03465300  1
  C  C148  1  0.03382300  0.32557400  0.96534700  1
  C  C149  1  0.46610000  0.86464100  0.03472600  1
  C  C150  1  0.53390000  0.86464100  0.96527400  1
  C  C151  1  0.96610000  0.36464100  0.03472600  1
  C  C152  1  0.03390000  0.36464100  0.96527400  1
  C  C153  1  0.50000000  0.88441300  0.00000000  1
  C  C154  1  0.00000000  0.38441300  0.00000000  1
  C  C155  1  0.50000000  0.80604800  0.00000000  1
  C  C156  1  0.00000000  0.30604800  0.00000000  1
  C  C157  1  0.98630100  0.82682900  0.97927800  1
  C  C158  1  0.01369800  0.82682900  0.02072200  1
  C  C159  1  0.48630100  0.32682900  0.97927800  1
  C  C160  1  0.51369800  0.32682900  0.02072200  1
  C  C161  1  0.98626500  0.86587600  0.97923600  1
  C  C162  1  0.01373500  0.86587600  0.02076400  1
  C  C163  1  0.48626500  0.36587600  0.97923600  1
  C  C164  1  0.51373500  0.36587600  0.02076400  1
  C  C165  1  0.00000000  0.88560700  0.00000000  1
  C  C166  1  0.50000000  0.38560700  0.00000000  1
  C  C167  1  0.00000000  0.80732600  0.00000000  1
  C  C168  1  0.50000000  0.30732600  0.00000000  1
  C  C169  1  0.00000000  0.76670300  0.00000000  1
  C  C170  1  0.50000000  0.26670300  0.00000000  1
  C  C171  1  0.50000000  0.23257900  0.00000000  1
  C  C172  1  0.00000000  0.73257900  0.00000000  1
  C  C173  1  0.47470000  0.17248800  0.00044100  1
  C  C174  1  0.52530000  0.17248800  0.99955900  1
  C  C175  1  0.97470000  0.67248800  0.00044100  1
  C  C176  1  0.02530000  0.67248800  0.99955900  1
  C  C177  1  0.47486800  0.13341500  0.99956200  1
  C  C178  1  0.52513200  0.13341500  0.00043900  1
  C  C179  1  0.97486800  0.63341500  0.99956200  1
  C  C180  1  0.02513200  0.63341500  0.00043900  1
  C  C181  1  0.50000000  0.11340900  0.00000000  1
  C  C182  1  0.00000000  0.61340900  0.00000000  1
  C  C183  1  0.50000000  0.19195700  0.00000000  1
  C  C184  1  0.00000000  0.69195700  0.00000000  1
  C  C185  1  0.56931300  0.95825700  0.69926800  1
  C  C186  1  0.58987000  0.94588100  0.64428900  1
  C  C187  1  0.62232000  0.92466600  0.61737700  1
  C  C188  1  0.63446200  0.91564100  0.64529100  1
  C  C189  1  0.61410900  0.92785400  0.70012500  1
  C  C190  1  0.58163600  0.94909000  0.72712600  1
  C  C191  1  0.43068700  0.95825700  0.30073200  1
  C  C192  1  0.41013000  0.94588100  0.35571100  1
  C  C193  1  0.37768000  0.92466600  0.38262400  1
  C  C194  1  0.36553800  0.91564100  0.35470900  1
  C  C195  1  0.38589100  0.92785400  0.29987500  1
  C  C196  1  0.41836400  0.94909000  0.27287400  1
  C  C197  1  0.06931300  0.45825700  0.69926800  1
  C  C198  1  0.08987000  0.44588100  0.64428900  1
  C  C199  1  0.12232000  0.42466600  0.61737700  1
  C  C200  1  0.13446200  0.41564100  0.64529100  1
  C  C201  1  0.11410900  0.42785400  0.70012500  1
  C  C202  1  0.08163600  0.44909000  0.72712600  1
  C  C203  1  0.93068700  0.45825700  0.30073200  1
  C  C204  1  0.91013000  0.44588100  0.35571100  1
  C  C205  1  0.87768000  0.42466600  0.38262400  1
  C  C206  1  0.86553800  0.41564100  0.35470900  1
  C  C207  1  0.88589100  0.42785400  0.29987500  1
  C  C208  1  0.91836400  0.44909000  0.27287400  1
  C  C209  1  0.44952600  0.11445800  0.99502200  1
  C  C210  1  0.41081100  0.11948300  0.03702200  1
  C  C211  1  0.38679000  0.10300600  0.03201100  1
  C  C212  1  0.40145100  0.08209600  0.98446700  1
  C  C213  1  0.44013700  0.07772100  0.94189200  1
  C  C214  1  0.46418300  0.09377700  0.94716500  1
  C  C215  1  0.55047400  0.11445800  0.00497800  1
  C  C216  1  0.58918900  0.11948300  0.96297800  1
  C  C217  1  0.61321000  0.10300600  0.96798900  1
  C  C218  1  0.59854900  0.08209600  0.01553300  1
  C  C219  1  0.55986300  0.07772100  0.05810800  1
  C  C220  1  0.53581700  0.09377700  0.05283500  1
  C  C221  1  0.94952600  0.61445800  0.99502200  1
  C  C222  1  0.91081100  0.61948300  0.03702200  1
  C  C223  1  0.88679000  0.60300600  0.03201100  1
  C  C224  1  0.90145100  0.58209600  0.98446700  1
  C  C225  1  0.94013700  0.57772100  0.94189200  1
  C  C226  1  0.96418300  0.59377700  0.94716500  1
  C  C227  1  0.05047400  0.61445800  0.00497800  1
  C  C228  1  0.08918900  0.61948300  0.96297800  1
  C  C229  1  0.11321000  0.60300600  0.96798900  1
  C  C230  1  0.09854900  0.58209600  0.01553300  1
  C  C231  1  0.05986300  0.57772100  0.05810800  1
  C  C232  1  0.03581700  0.59377700  0.05283500  1
  C  C233  1  0.88237400  0.94408300  0.16958800  1
  C  C234  1  0.87805400  0.94359900  0.21716500  1
  C  C235  1  0.89296900  0.91421500  0.22564100  1
  C  C236  1  0.91143500  0.88480200  0.18727700  1
  C  C237  1  0.91494100  0.88475900  0.14048700  1
  C  C238  1  0.90067900  0.91446700  0.13137900  1
  C  C239  1  0.11762600  0.94408300  0.83041200  1
  C  C240  1  0.12194600  0.94359900  0.78283600  1
  C  C241  1  0.10703100  0.91421500  0.77436000  1
  C  C242  1  0.08856500  0.88480200  0.81272400  1
  C  C243  1  0.08505900  0.88475900  0.85951400  1
  C  C244  1  0.09932100  0.91446700  0.86862100  1
  C  C245  1  0.38237400  0.44408300  0.16958800  1
  C  C246  1  0.37805400  0.44359900  0.21716500  1
  C  C247  1  0.39296900  0.41421500  0.22564100  1
  C  C248  1  0.41143500  0.38480200  0.18727700  1
  C  C249  1  0.41494100  0.38475900  0.14048700  1
  C  C250  1  0.40067900  0.41446700  0.13137900  1
  C  C251  1  0.61762600  0.44408300  0.83041200  1
  C  C252  1  0.62194600  0.44359900  0.78283600  1
  C  C253  1  0.60703100  0.41421500  0.77436000  1
  C  C254  1  0.58856500  0.38480200  0.81272400  1
  C  C255  1  0.58505900  0.38475900  0.85951400  1
  C  C256  1  0.59932100  0.41446700  0.86862100  1
  O  O1  1  0.55410800  0.97393700  0.45770000  1
  O  O2  1  0.44589200  0.97393700  0.54230000  1
  O  O3  1  0.05410800  0.47393700  0.45770000  1
  O  O4  1  0.94589200  0.47393700  0.54230000  1
  O  O5  1  0.55405600  0.03636800  0.43427800  1
  O  O6  1  0.44594400  0.03636800  0.56572200  1
  O  O7  1  0.05405600  0.53636800  0.43427800  1
  O  O8  1  0.94594400  0.53636800  0.56572200  1
  O  O9  1  0.48943900  0.97388400  0.57070100  1
  O  O10  1  0.51056000  0.97388400  0.42929900  1
  O  O11  1  0.98943900  0.47388400  0.57070100  1
  O  O12  1  0.01056000  0.47388400  0.42929900  1
  O  O13  1  0.51054200  0.03640000  0.54963700  1
  O  O14  1  0.48945800  0.03640000  0.45036300  1
  O  O15  1  0.01054200  0.53640000  0.54963700  1
  O  O16  1  0.98945800  0.53640000  0.45036300  1
  O  O17  1  0.53273500  0.94372100  0.96681800  1
  O  O18  1  0.46726500  0.94372100  0.03318200  1
  O  O19  1  0.03273500  0.44372100  0.96681800  1
  O  O20  1  0.96726500  0.44372100  0.03318200  1
  O  O21  1  0.53483000  0.99734600  0.90514000  1
  O  O22  1  0.46517000  0.99734600  0.09486000  1
  O  O23  1  0.03483000  0.49734600  0.90514000  1
  O  O24  1  0.96517000  0.49734600  0.09486000  1
  O  O25  1  0.46944200  0.99746100  0.96803600  1
  O  O26  1  0.53055800  0.99746100  0.03196400  1
  O  O27  1  0.96944200  0.49746100  0.96803600  1
  O  O28  1  0.03055800  0.49746100  0.03196400  1
  O  O29  1  0.53265900  0.05388900  0.96683600  1
  O  O30  1  0.46734100  0.05388900  0.03316500  1
  O  O31  1  0.03265900  0.55388900  0.96683600  1
  O  O32  1  0.96734100  0.55388900  0.03316500  1
  O  O33  1  0.98982700  0.05289900  0.04505200  1
  O  O34  1  0.01017300  0.05289900  0.95494800  1
  O  O35  1  0.48982700  0.55289900  0.04505200  1
  O  O36  1  0.51017300  0.55289900  0.95494800  1
  O  O37  1  0.94636700  0.98821600  0.08914100  1
  O  O38  1  0.05363300  0.98821600  0.91085900  1
  O  O39  1  0.44636700  0.48821600  0.08914100  1
  O  O40  1  0.55363300  0.48821600  0.91085900  1
  O  O41  1  0.94540900  0.00936600  0.02069400  1
  O  O42  1  0.05459100  0.00936600  0.97930600  1
  O  O43  1  0.44540900  0.50936600  0.02069400  1
  O  O44  1  0.55459100  0.50936600  0.97930600  1
  O  O45  1  0.01107700  0.94486400  0.02347600  1
  O  O46  1  0.98892300  0.94486400  0.97652500  1
  O  O47  1  0.51107700  0.44486400  0.02347600  1
  O  O48  1  0.48892300  0.44486400  0.97652500  1
  F  F1  1  0.66636100  0.89477400  0.61887900  1
  F  F2  1  0.33363900  0.89477400  0.38112100  1
  F  F3  1  0.16636100  0.39477400  0.61887900  1
  F  F4  1  0.83363900  0.39477400  0.38112100  1
  F  F5  1  0.37786200  0.06619900  0.97928500  1
  F  F6  1  0.62213800  0.06619900  0.02071600  1
  F  F7  1  0.87786200  0.56619900  0.97928500  1
  F  F8  1  0.12213800  0.56619900  0.02071600  1
  F  F9  1  0.92573100  0.85570400  0.19591200  1
  F  F10  1  0.07426900  0.85570400  0.80408800  1
  F  F11  1  0.42573100  0.35570400  0.19591200  1
  F  F12  1  0.57426900  0.35570400  0.80408800  1
