# generated using pymatgen
data_CuH21C29NClO4
_symmetry_space_group_name_H-M   'P 1'
_cell_length_a   19.36482600
_cell_length_b   17.86772200
_cell_length_c   10.65707500
_cell_angle_alpha   90.00000000
_cell_angle_beta   90.01380600
_cell_angle_gamma   90.00000000
_symmetry_Int_Tables_number   1
_chemical_formula_structural   CuH21C29NClO4
_chemical_formula_sum   'Cu2 H42 C58 N2 Cl2 O8'
_cell_volume   3687.40461901
_cell_formula_units_Z   2
loop_
 _symmetry_equiv_pos_site_id
 _symmetry_equiv_pos_as_xyz
  1  'x, y, z'
loop_
 _atom_site_type_symbol
 _atom_site_label
 _atom_site_symmetry_multiplicity
 _atom_site_fract_x
 _atom_site_fract_y
 _atom_site_fract_z
 _atom_site_occupancy
  Cu  Cu1  1  0.50200700  0.57476500  0.49806300  1
  Cu  Cu2  1  0.50078800  0.42511400  0.50038500  1
  H  H1  1  0.54832600  0.60783500  0.10857900  1
  H  H2  1  0.43125700  0.40279700  0.10120600  1
  H  H3  1  0.45464000  0.60858900  0.10929400  1
  H  H4  1  0.38936800  0.49308700  0.09703000  1
  H  H5  1  0.45331500  0.61142400  0.90216100  1
  H  H6  1  0.39151000  0.48721200  0.88620200  1
  H  H7  1  0.54730900  0.61318800  0.90170200  1
  H  H8  1  0.44024400  0.40149600  0.89226700  1
  H  H9  1  0.61140200  0.48791900  0.10578400  1
  H  H10  1  0.56561200  0.40016800  0.10132100  1
  H  H11  1  0.61256300  0.49045700  0.89498300  1
  H  H12  1  0.56617800  0.40322200  0.89123700  1
  H  H13  1  0.71826500  0.38469900  0.55318200  1
  H  H14  1  0.71873900  0.61419600  0.44063900  1
  H  H15  1  0.84319100  0.38476200  0.55690600  1
  H  H16  1  0.84392500  0.61350700  0.43636300  1
  H  H17  1  0.93794400  0.61142300  0.56884200  1
  H  H18  1  0.93907000  0.38696000  0.43316300  1
  H  H19  1  0.15835700  0.40813100  0.62311200  1
  H  H20  1  0.16033500  0.59508100  0.37308600  1
  H  H21  1  0.28388200  0.40401200  0.61766400  1
  H  H22  1  0.28605400  0.59591600  0.37982900  1
  H  H23  1  0.42691600  0.69346100  0.35696400  1
  H  H24  1  0.42039200  0.30425200  0.36351100  1
  H  H25  1  0.42485700  0.83055200  0.35706400  1
  H  H26  1  0.42471600  0.16884800  0.35605000  1
  H  H27  1  0.57293600  0.82880300  0.65559400  1
  H  H28  1  0.58020600  0.17266100  0.64260100  1
  H  H29  1  0.57801000  0.69322400  0.63927300  1
  H  H30  1  0.57236800  0.30882000  0.64651800  1
  H  H31  1  0.60890300  0.92949000  0.52199800  1
  H  H32  1  0.61234200  0.06520900  0.51872300  1
  H  H33  1  0.39247600  0.07063100  0.47940700  1
  H  H34  1  0.38859100  0.93572900  0.49107800  1
  H  H35  1  0.12495400  0.57851600  0.73038600  1
  H  H36  1  0.18252700  0.69362200  0.79932600  1
  H  H37  1  0.08042900  0.81560000  0.51009800  1
  H  H38  1  0.02352500  0.70050600  0.43955600  1
  H  H39  1  0.12442200  0.42104000  0.26713200  1
  H  H40  1  0.18138300  0.30570800  0.19763700  1
  H  H41  1  0.08124000  0.18408700  0.48875600  1
  H  H42  1  0.02457400  0.29911400  0.56022100  1
  C  C1  1  0.36872400  0.50019800  0.50043500  1
  C  C2  1  0.50021600  0.49905800  0.25840300  1
  C  C3  1  0.63408000  0.49966000  0.49915100  1
  C  C4  1  0.50144500  0.50100800  0.74060400  1
  C  C5  1  0.50121700  0.57932000  0.07360800  1
  C  C6  1  0.43565500  0.46126900  0.06732800  1
  C  C7  1  0.50083300  0.58136600  0.93194200  1
  C  C8  1  0.43821400  0.46016500  0.92548300  1
  C  C9  1  0.56462300  0.45933000  0.06988600  1
  C  C10  1  0.50036900  0.49896300  0.11825600  1
  C  C11  1  0.50164000  0.50149200  0.88048200  1
  C  C12  1  0.56544400  0.46121300  0.92781500  1
  C  C13  1  0.74562400  0.43530100  0.52868000  1
  C  C14  1  0.74577300  0.56370400  0.46725100  1
  C  C15  1  0.81671500  0.43530600  0.52954900  1
  C  C16  1  0.81701300  0.56356900  0.46621900  1
  C  C17  1  0.85319000  0.49945200  0.49891300  1
  C  C18  1  0.70973900  0.49952400  0.49879300  1
  C  C19  1  0.96549800  0.56282500  0.53512100  1
  C  C20  1  0.96608200  0.43647300  0.46484600  1
  C  C21  1  0.03681800  0.56375900  0.53528700  1
  C  C22  1  0.03742600  0.43657900  0.46287000  1
  C  C23  1  0.07371300  0.50076700  0.49754700  1
  C  C24  1  0.92949300  0.49953700  0.49963700  1
  C  C25  1  0.18570100  0.44850800  0.56687500  1
  C  C26  1  0.18674500  0.55392500  0.43007000  1
  C  C27  1  0.25687100  0.44628200  0.56429700  1
  C  C28  1  0.25800600  0.55415400  0.43291500  1
  C  C29  1  0.29321200  0.50006600  0.49901600  1
  C  C30  1  0.14988300  0.50126600  0.49785500  1
  C  C31  1  0.45844900  0.72431300  0.42265600  1
  C  C32  1  0.45704100  0.27515800  0.42319700  1
  C  C33  1  0.45668900  0.80169200  0.42414700  1
  C  C34  1  0.45891300  0.19824600  0.41984300  1
  C  C35  1  0.49845100  0.84066200  0.50664000  1
  C  C36  1  0.50425800  0.15986600  0.49648500  1
  C  C37  1  0.54069500  0.80072700  0.58689100  1
  C  C38  1  0.54626800  0.20015200  0.57703300  1
  C  C39  1  0.54210000  0.72373600  0.58085500  1
  C  C40  1  0.54204200  0.27701800  0.57984300  1
  C  C41  1  0.56101500  0.96031200  0.51760900  1
  C  C42  1  0.56289600  0.03733400  0.51514300  1
  C  C43  1  0.50264400  0.07781500  0.50089800  1
  C  C44  1  0.49897400  0.92274100  0.50779500  1
  C  C45  1  0.44043100  0.04021100  0.49034400  1
  C  C46  1  0.43838200  0.96318900  0.49572100  1
  C  C47  1  0.07118700  0.63190100  0.57920000  1
  C  C48  1  0.11529900  0.63032600  0.68115500  1
  C  C49  1  0.14730600  0.69509100  0.72061600  1
  C  C50  1  0.13467000  0.76166100  0.65934200  1
  C  C51  1  0.08995200  0.76353500  0.55880000  1
  C  C52  1  0.05788500  0.69888000  0.51943500  1
  C  C53  1  0.07220200  0.36813200  0.42031300  1
  C  C54  1  0.11558400  0.36938000  0.31741400  1
  C  C55  1  0.14721000  0.30446500  0.27760300  1
  C  C56  1  0.13543600  0.23805700  0.33980100  1
  C  C57  1  0.09090600  0.23623600  0.44054900  1
  C  C58  1  0.05902200  0.30100700  0.48035900  1
  N  N1  1  0.50241400  0.68688400  0.49782800  1
  N  N2  1  0.49982000  0.31331500  0.50069100  1
  Cl  Cl1  1  0.17550400  0.84392600  0.70898200  1
  Cl  Cl2  1  0.17684500  0.15602500  0.29047100  1
  O  O1  1  0.40151900  0.56436000  0.49451400  1
  O  O2  1  0.40057800  0.43583700  0.50551400  1
  O  O3  1  0.50422100  0.56330600  0.31651600  1
  O  O4  1  0.49792300  0.43504800  0.31775900  1
  O  O5  1  0.60227300  0.56406300  0.49402500  1
  O  O6  1  0.60126900  0.43539100  0.50366600  1
  O  O7  1  0.50434300  0.56505400  0.68110100  1
  O  O8  1  0.49885500  0.43625300  0.68246400  1
