# generated using pymatgen
data_V4H30C49O20
_symmetry_space_group_name_H-M   'P 1'
_cell_length_a   6.36875500
_cell_length_b   13.41830400
_cell_length_c   15.58986300
_cell_angle_alpha   90.36176000
_cell_angle_beta   89.97998500
_cell_angle_gamma   90.00618200
_symmetry_Int_Tables_number   1
_chemical_formula_structural   V4H30C49O20
_chemical_formula_sum   'V4 H30 C49 O20'
_cell_volume   1332.25016365
_cell_formula_units_Z   1
loop_
 _symmetry_equiv_pos_site_id
 _symmetry_equiv_pos_as_xyz
  1  'x, y, z'
loop_
 _atom_site_type_symbol
 _atom_site_label
 _atom_site_symmetry_multiplicity
 _atom_site_fract_x
 _atom_site_fract_y
 _atom_site_fract_z
 _atom_site_occupancy
  V  V1  1  0.91824100  0.48288100  0.50170400  1
  V  V2  1  0.41858300  0.50698500  0.50306700  1
  V  V3  1  0.35897500  0.00116200  0.99832600  1
  V  V4  1  0.85899900  0.97752600  0.99861100  1
  H  H1  1  0.25526800  0.66870600  0.88735800  1
  H  H2  1  0.90645200  0.60782200  0.78891900  1
  H  H3  1  0.79695800  0.80953200  0.76716200  1
  H  H4  1  0.04217300  0.81302400  0.61539300  1
  H  H5  1  0.50000100  0.67235200  0.73584600  1
  H  H6  1  0.81350800  0.76545700  0.16487600  1
  H  H7  1  0.48696200  0.90317600  0.16208800  1
  H  H8  1  0.80508600  0.88395200  0.24920600  1
  H  H9  1  0.81291500  0.76109500  0.36541900  1
  H  H10  1  0.50550600  0.65915400  0.39501700  1
  H  H11  1  0.81917500  0.64139100  0.27982600  1
  H  H12  1  0.96623800  0.25981200  0.65944000  1
  H  H13  1  0.29480400  0.39939700  0.66105600  1
  H  H14  1  0.97535700  0.37639600  0.74686700  1
  H  H15  1  0.96570300  0.24814800  0.85868000  1
  H  H16  1  0.27121100  0.14385800  0.88464800  1
  H  H17  1  0.96019400  0.13146300  0.77099400  1
  H  H18  1  0.92165300  0.27326600  0.33722100  1
  H  H19  1  0.21066500  0.39734600  0.32872700  1
  H  H20  1  0.92601300  0.37452900  0.23098900  1
  H  H21  1  0.95616100  0.25812500  0.10953100  1
  H  H22  1  0.28194000  0.16612500  0.08655300  1
  H  H23  1  0.93379800  0.14862300  0.22135900  1
  H  H24  1  0.54621000  0.90329000  0.75896000  1
  H  H25  1  0.41437300  0.86117600  0.57253700  1
  H  H26  1  0.62454000  0.80006900  0.63008600  1
  H  H27  1  0.64240000  0.93178400  0.60638600  1
  H  H28  1  0.18455700  0.98200800  0.64790200  1
  H  H29  1  0.41361400  0.05194000  0.68159400  1
  H  H30  1  0.22635500  0.00889700  0.76059000  1
  C  C1  1  0.66104600  0.38588100  0.61756000  1
  C  C2  1  0.61062400  0.39169400  0.38212600  1
  C  C3  1  0.12768200  0.59890900  0.38577200  1
  C  C4  1  0.15741600  0.59394200  0.62450100  1
  C  C5  1  0.01632700  0.66896300  0.77260100  1
  C  C6  1  0.20697000  0.70077500  0.82501600  1
  C  C7  1  0.14740700  0.80848800  0.81083000  1
  C  C8  1  0.95658800  0.77783900  0.75933700  1
  C  C9  1  0.08898600  0.78050100  0.67774100  1
  C  C10  1  0.27762100  0.81103500  0.73074200  1
  C  C11  1  0.33982700  0.70348500  0.74380200  1
  C  C12  1  0.14878100  0.67289400  0.69236500  1
  C  C13  1  0.48837200  0.85117300  0.21438000  1
  C  C14  1  0.66714800  0.83996400  0.26305200  1
  C  C15  1  0.67153900  0.77109400  0.32808500  1
  C  C16  1  0.49650400  0.71417000  0.34513800  1
  C  C17  1  0.31430400  0.72730900  0.29825500  1
  C  C18  1  0.31146400  0.79589600  0.23203100  1
  C  C19  1  0.13022700  0.81112300  0.18495100  1
  C  C20  1  0.95416300  0.75527800  0.20260500  1
  C  C21  1  0.95814800  0.68498600  0.26672100  1
  C  C22  1  0.13587600  0.67179000  0.31597200  1
  C  C23  1  0.29200900  0.34451700  0.71120100  1
  C  C24  1  0.11270600  0.33138100  0.75920100  1
  C  C25  1  0.10724600  0.25945800  0.82172100  1
  C  C26  1  0.28159400  0.20138800  0.83696100  1
  C  C27  1  0.46444300  0.21635300  0.79086900  1
  C  C28  1  0.46806000  0.28785400  0.72699400  1
  C  C29  1  0.64946200  0.30507300  0.68070100  1
  C  C30  1  0.82511400  0.24797900  0.69655200  1
  C  C31  1  0.82077200  0.17501500  0.75864500  1
  C  C32  1  0.64281700  0.16021800  0.80756000  1
  C  C33  1  0.23826200  0.34898300  0.27499100  1
  C  C34  1  0.07089500  0.33434900  0.22037600  1
  C  C35  1  0.08729100  0.26909500  0.15257200  1
  C  C36  1  0.27031500  0.21679200  0.14037400  1
  C  C37  1  0.43931100  0.23102700  0.19463400  1
  C  C38  1  0.42809500  0.30008800  0.26110300  1
  C  C39  1  0.60468200  0.31627600  0.31281200  1
  C  C40  1  0.78476000  0.26128000  0.29749800  1
  C  C41  1  0.79304100  0.19211600  0.23154100  1
  C  C42  1  0.61940500  0.17617500  0.18067200  1
  C  C43  1  0.61531100  0.09571600  0.11668600  1
  C  C44  1  0.65036200  0.08815800  0.87828400  1
  C  C45  1  0.15219600  0.88602500  0.87999100  1
  C  C46  1  0.11834900  0.88800200  0.11845200  1
  C  C47  1  0.42671600  0.89460100  0.70775800  1
  C  C48  1  0.53424600  0.87027800  0.62357000  1
  C  C49  1  0.30465400  0.99079600  0.69888500  1
  O  O1  1  0.45790000  0.45772400  0.38509700  1
  O  O2  1  0.83225900  0.43929200  0.61721900  1
  O  O3  1  0.03774800  0.60304800  0.55660600  1
  O  O4  1  0.74389200  0.37773600  0.44726000  1
  O  O5  1  0.95656000  0.54257200  0.38780800  1
  O  O6  1  0.53744900  0.38298700  0.55013500  1
  O  O7  1  0.64412600  0.57090000  0.50391600  1
  O  O8  1  0.24319100  0.61543200  0.45587500  1
  O  O9  1  0.32966400  0.54165700  0.62086300  1
  O  O10  1  0.14406200  0.41930200  0.49784600  1
  O  O11  1  0.82034800  0.03112100  0.88240900  1
  O  O12  1  0.44563700  0.04164900  0.11496300  1
  O  O13  1  0.23958100  0.88018500  0.05063800  1
  O  O14  1  0.53492100  0.10723600  0.94765100  1
  O  O15  1  0.32035300  0.94436100  0.88267300  1
  O  O16  1  0.73967700  0.10034400  0.04959200  1
  O  O17  1  0.63347600  0.91352700  0.99735100  1
  O  O18  1  0.03463500  0.86986500  0.94911200  1
  O  O19  1  0.94587700  0.94040700  0.11569200  1
  O  O20  1  0.13363900  0.06520600  0.99639200  1
