# generated using pymatgen
data_CuH12C16NO4
_symmetry_space_group_name_H-M   'P 1'
_cell_length_a   15.16882800
_cell_length_b   13.67231400
_cell_length_c   9.20860800
_cell_angle_alpha   90.00000000
_cell_angle_beta   89.99650100
_cell_angle_gamma   90.00000000
_symmetry_Int_Tables_number   1
_chemical_formula_structural   CuH12C16NO4
_chemical_formula_sum   'Cu2 H24 C32 N2 O8'
_cell_volume   1909.80064594
_cell_formula_units_Z   2
loop_
 _symmetry_equiv_pos_site_id
 _symmetry_equiv_pos_as_xyz
  1  'x, y, z'
loop_
 _atom_site_type_symbol
 _atom_site_label
 _atom_site_symmetry_multiplicity
 _atom_site_fract_x
 _atom_site_fract_y
 _atom_site_fract_z
 _atom_site_occupancy
  Cu  Cu1  1  0.49928500  0.59756300  0.50236800  1
  Cu  Cu2  1  0.49904600  0.40212300  0.50182800  1
  H  H1  1  0.56374300  0.24518200  0.70349000  1
  H  H2  1  0.38729300  0.75339100  0.36892000  1
  H  H3  1  0.43813500  0.24627800  0.29593700  1
  H  H4  1  0.61458400  0.75307300  0.63015400  1
  H  H5  1  0.05550300  0.63617900  0.60893300  1
  H  H6  1  0.94236500  0.35960300  0.59858600  1
  H  H7  1  0.94174700  0.63909300  0.40181400  1
  H  H8  1  0.05636000  0.36355100  0.39236500  1
  H  H9  1  0.56295900  0.06856400  0.70753200  1
  H  H10  1  0.38445100  0.93058700  0.36877800  1
  H  H11  1  0.44323500  0.06974000  0.28631500  1
  H  H12  1  0.62117200  0.92995600  0.62261600  1
  H  H13  1  0.27439000  0.63069100  0.72432100  1
  H  H14  1  0.26108400  0.70872600  0.56457600  1
  H  H15  1  0.17768500  0.70412500  0.70147100  1
  H  H16  1  0.72296900  0.36130400  0.71287100  1
  H  H17  1  0.73667600  0.28891200  0.54752300  1
  H  H18  1  0.81970200  0.28856700  0.68528700  1
  H  H19  1  0.72171600  0.63552300  0.28837300  1
  H  H20  1  0.73665000  0.70945900  0.45183600  1
  H  H21  1  0.81876100  0.70824300  0.31269800  1
  H  H22  1  0.27565600  0.36989700  0.27884600  1
  H  H23  1  0.26181800  0.29177800  0.43841400  1
  H  H24  1  0.17899400  0.29627600  0.30057500  1
  C  C1  1  0.32894100  0.50040200  0.50190000  1
  C  C2  1  0.66928800  0.49916000  0.50173700  1
  C  C3  1  0.53669400  0.10541600  0.61333100  1
  C  C4  1  0.43752500  0.89384200  0.42463000  1
  C  C5  1  0.46800600  0.10606400  0.38205900  1
  C  C6  1  0.56708300  0.89351300  0.56899600  1
  C  C7  1  0.49912500  0.49990000  0.22333600  1
  C  C8  1  0.49911900  0.49995100  0.78081100  1
  C  C9  1  0.50250400  0.05370000  0.49722200  1
  C  C10  1  0.50249000  0.94570300  0.49666700  1
  C  C11  1  0.49909800  0.49996500  0.06750500  1
  C  C12  1  0.49910000  0.49987700  0.93664800  1
  C  C13  1  0.09241200  0.57693500  0.56055400  1
  C  C14  1  0.90555100  0.42043900  0.55455200  1
  C  C15  1  0.90520500  0.57815600  0.44616400  1
  C  C16  1  0.09289300  0.42299500  0.44097700  1
  C  C17  1  0.18352000  0.57725700  0.56428100  1
  C  C18  1  0.81444100  0.42004600  0.55795900  1
  C  C19  1  0.81410500  0.57810700  0.44299800  1
  C  C20  1  0.18400300  0.42312400  0.43794700  1
  C  C21  1  0.23101700  0.50030800  0.50133000  1
  C  C22  1  0.76711400  0.49910300  0.50093500  1
  C  C23  1  0.04720800  0.49981900  0.50066000  1
  C  C24  1  0.95083200  0.49948000  0.50051400  1
  C  C25  1  0.53563200  0.20627900  0.61259000  1
  C  C26  1  0.43802400  0.79297200  0.42660200  1
  C  C27  1  0.46638400  0.20688500  0.38625400  1
  C  C28  1  0.56438500  0.79271000  0.57137900  1
  C  C29  1  0.22736100  0.65974800  0.64278500  1
  C  C30  1  0.77026000  0.33501900  0.62967700  1
  C  C31  1  0.76958700  0.66247700  0.37017700  1
  C  C32  1  0.22833900  0.34074100  0.35986500  1
  N  N1  1  0.49862100  0.25572900  0.50170500  1
  N  N2  1  0.49955900  0.74390700  0.50266900  1
  O  O1  1  0.37111600  0.58409200  0.50599900  1
  O  O2  1  0.62717300  0.41549400  0.49549200  1
  O  O3  1  0.62732500  0.58293000  0.50849200  1
  O  O4  1  0.37098900  0.41666300  0.49818900  1
  O  O5  1  0.49680800  0.58388600  0.29129300  1
  O  O6  1  0.50284900  0.41603300  0.71282800  1
  O  O7  1  0.49539900  0.58400700  0.71336600  1
  O  O8  1  0.50152600  0.41578300  0.29077900  1
