# generated using pymatgen
data_CuH29C34N5O8
_symmetry_space_group_name_H-M   'P 1'
_cell_length_a   17.34934200
_cell_length_b   17.89366200
_cell_length_c   19.32481600
_cell_angle_alpha   89.98427600
_cell_angle_beta   90.01305900
_cell_angle_gamma   86.04140300
_symmetry_Int_Tables_number   1
_chemical_formula_structural   CuH29C34N5O8
_chemical_formula_sum   'Cu2 H58 C68 N10 O16'
_cell_volume   5984.94545249
_cell_formula_units_Z   2
loop_
 _symmetry_equiv_pos_site_id
 _symmetry_equiv_pos_as_xyz
  1  'x, y, z'
loop_
 _atom_site_type_symbol
 _atom_site_label
 _atom_site_symmetry_multiplicity
 _atom_site_fract_x
 _atom_site_fract_y
 _atom_site_fract_z
 _atom_site_occupancy
  Cu  Cu1  1  0.49882800  0.42610300  0.50107000  1
  Cu  Cu2  1  0.49753200  0.57564800  0.50262700  1
  H  H1  1  0.74036000  0.60343700  0.48487500  1
  H  H2  1  0.25764000  0.39608600  0.51527800  1
  H  H3  1  0.25222500  0.63220200  0.47948800  1
  H  H4  1  0.74249200  0.36829700  0.52240900  1
  H  H5  1  0.99348700  0.56382600  0.44845500  1
  H  H6  1  0.00362500  0.43424500  0.55214800  1
  H  H7  1  0.11932900  0.40008400  0.50625600  1
  H  H8  1  0.87865600  0.59794900  0.49359500  1
  H  H9  1  0.46969800  0.62065900  0.28300900  1
  H  H10  1  0.51475700  0.38008600  0.72142100  1
  H  H11  1  0.46988500  0.61894500  0.15718900  1
  H  H12  1  0.51512700  0.38280900  0.84743100  1
  H  H13  1  0.53454000  0.38607500  0.28515500  1
  H  H14  1  0.47662600  0.61871800  0.71803700  1
  H  H15  1  0.61073800  0.44354100  0.06237000  1
  H  H16  1  0.38456700  0.56046000  0.94090000  1
  H  H17  1  0.60682200  0.44264700  0.93621000  1
  H  H18  1  0.38799800  0.56092900  0.06690800  1
  H  H19  1  0.58512400  0.30432400  0.57669500  1
  H  H20  1  0.41213700  0.69659900  0.42647900  1
  H  H21  1  0.41043200  0.17281800  0.42889200  1
  H  H22  1  0.57640500  0.83020400  0.58241400  1
  H  H23  1  0.51173100  0.06935200  0.39383300  1
  H  H24  1  0.48054800  0.93314600  0.61172100  1
  H  H25  1  0.50871100  0.93366600  0.39215300  1
  H  H26  1  0.48570200  0.06894900  0.61335900  1
  H  H27  1  0.61271100  0.18323200  0.63639000  1
  H  H28  1  0.73023500  0.12076600  0.65378900  1
  H  H29  1  0.78673000  0.15161600  0.58186900  1
  H  H30  1  0.76178600  0.05528100  0.58685200  1
  H  H31  1  0.33895400  0.85255100  0.43207800  1
  H  H32  1  0.28243600  0.86744900  0.32616200  1
  H  H33  1  0.31510100  0.78626000  0.27569400  1
  H  H34  1  0.34913000  0.87700500  0.25551500  1
  H  H35  1  0.34298900  0.32620000  0.43192000  1
  H  H36  1  0.28994900  0.34746400  0.32580200  1
  H  H37  1  0.32196500  0.26753800  0.27329900  1
  H  H38  1  0.35924600  0.35793300  0.25765900  1
  H  H39  1  0.57079100  0.67561000  0.64196900  1
  H  H40  1  0.68800700  0.65236600  0.69333300  1
  H  H41  1  0.74102400  0.73341600  0.67399800  1
  H  H42  1  0.76914900  0.64394900  0.63474200  1
  H  H43  1  0.94378500  0.33237600  0.50188700  1
  H  H44  1  0.00296900  0.26619800  0.60847500  1
  H  H45  1  0.93660500  0.20140000  0.57455700  1
  H  H46  1  0.93016400  0.23042700  0.66421900  1
  H  H47  1  0.12773100  0.68988800  0.43818900  1
  H  H48  1  0.00622900  0.78212000  0.48724900  1
  H  H49  1  0.10205000  0.80042100  0.51735300  1
  H  H50  1  0.02599500  0.78639600  0.57910200  1
  H  H51  1  0.57165300  0.32908300  0.17524800  1
  H  H52  1  0.52875000  0.22616000  0.12226800  1
  H  H53  1  0.45061200  0.24407700  0.06149600  1
  H  H54  1  0.42966600  0.22553300  0.15130500  1
  H  H55  1  0.52589200  0.66604500  0.85307400  1
  H  H56  1  0.46206000  0.77993000  0.87112500  1
  H  H57  1  0.36019800  0.77721700  0.88913900  1
  H  H58  1  0.39260700  0.79121900  0.80145800  1
  C  C1  1  0.49592900  0.49888900  0.63486300  1
  C  C2  1  0.50062600  0.50295800  0.36884400  1
  C  C3  1  0.64670000  0.49161700  0.50350100  1
  C  C4  1  0.34966200  0.50997500  0.49991800  1
  C  C5  1  0.73137100  0.48670600  0.50480600  1
  C  C6  1  0.26501300  0.51393000  0.49798000  1
  C  C7  1  0.77089400  0.55009200  0.49511400  1
  C  C8  1  0.22645500  0.44953900  0.50633800  1
  C  C9  1  0.85028400  0.54637600  0.49835300  1
  C  C10  1  0.14710100  0.45210400  0.50256000  1
  C  C11  1  0.89183900  0.47868800  0.51001700  1
  C  C12  1  0.10481900  0.51938400  0.49123600  1
  C  C13  1  0.85218000  0.41462400  0.51955200  1
  C  C14  1  0.14343900  0.58426600  0.48360800  1
  C  C15  1  0.77235000  0.41891600  0.51616000  1
  C  C16  1  0.22314100  0.58123400  0.48643900  1
  C  C17  1  0.97665700  0.47533000  0.51708200  1
  C  C18  1  0.02020800  0.52217600  0.48309500  1
  C  C19  1  0.48376900  0.56836300  0.25641700  1
  C  C20  1  0.50559900  0.43325700  0.74769700  1
  C  C21  1  0.48299600  0.56724500  0.18504900  1
  C  C22  1  0.50618400  0.43475100  0.81906400  1
  C  C23  1  0.49997700  0.50119400  0.14937400  1
  C  C24  1  0.49426100  0.50176800  0.85419000  1
  C  C25  1  0.51689400  0.43547000  0.18619900  1
  C  C26  1  0.48239300  0.56781500  0.81732100  1
  C  C27  1  0.51937400  0.43730900  0.25746500  1
  C  C28  1  0.48385500  0.56639100  0.74591300  1
  C  C29  1  0.50168400  0.50317900  0.29299100  1
  C  C30  1  0.49473100  0.49921900  0.71073200  1
  C  C31  1  0.56047800  0.46874600  0.03605400  1
  C  C32  1  0.43491200  0.53560600  0.96727300  1
  C  C33  1  0.55843200  0.46840100  0.96474600  1
  C  C34  1  0.43681600  0.53577400  0.03854600  1
  C  C35  1  0.49593100  0.50233000  0.93000400  1
  C  C36  1  0.49932200  0.50188200  0.07338200  1
  C  C37  1  0.54705300  0.27511000  0.54354900  1
  C  C38  1  0.44986600  0.72632600  0.45954200  1
  C  C39  1  0.55002900  0.19781400  0.54524600  1
  C  C40  1  0.44802500  0.80368500  0.45636100  1
  C  C41  1  0.50070700  0.16013800  0.50351800  1
  C  C42  1  0.49315300  0.84183600  0.50145900  1
  C  C43  1  0.45090200  0.20110400  0.46039700  1
  C  C44  1  0.54058300  0.80128100  0.54694300  1
  C  C45  1  0.45133700  0.27814300  0.45803300  1
  C  C46  1  0.54421700  0.72391600  0.54625900  1
  C  C47  1  0.50423300  0.03972600  0.44184900  1
  C  C48  1  0.48793500  0.96262600  0.56360900  1
  C  C49  1  0.50169400  0.96296600  0.44083800  1
  C  C50  1  0.49124800  0.03939800  0.56465900  1
  C  C51  1  0.49266500  0.92393900  0.50166000  1
  C  C52  1  0.49965400  0.07828000  0.50373300  1
  C  C53  1  0.66969500  0.13364900  0.55687300  1
  C  C54  1  0.74140300  0.11424600  0.59755500  1
  C  C55  1  0.39935300  0.82429700  0.34530100  1
  C  C56  1  0.33220500  0.83978000  0.29796400  1
  C  C57  1  0.40513000  0.30039600  0.34660200  1
  C  C58  1  0.33988100  0.31949000  0.29804500  1
  C  C59  1  0.66777300  0.70060800  0.59240100  1
  C  C60  1  0.71943300  0.68135900  0.65246000  1
  C  C61  1  0.88799100  0.31266600  0.59117700  1
  C  C62  1  0.94296400  0.24860200  0.61082400  1
  C  C63  1  0.07203500  0.68732700  0.52848600  1
  C  C64  1  0.05022500  0.76928000  0.52796500  1
  C  C65  1  0.46712400  0.33431100  0.13068200  1
  C  C66  1  0.46945400  0.25244200  0.11561200  1
  C  C67  1  0.41060600  0.67941900  0.83933800  1
  C  C68  1  0.40639900  0.76201400  0.85101200  1
  N  N1  1  0.49950500  0.31419100  0.49940500  1
  N  N2  1  0.49686200  0.68756700  0.50432500  1
  N  N3  1  0.60389000  0.15874300  0.58915100  1
  N  N4  1  0.39406600  0.84325100  0.41285300  1
  N  N5  1  0.39886200  0.31898900  0.41416700  1
  N  N6  1  0.59318200  0.68341800  0.59346300  1
  N  N7  1  0.89252000  0.34378000  0.52780300  1
  N  N8  1  0.10222800  0.65374200  0.47113000  1
  N  N9  1  0.53137200  0.36601900  0.15227600  1
  N  N10  1  0.47659700  0.63724500  0.85218700  1
  O  O1  1  0.49995700  0.43473900  0.60184400  1
  O  O2  1  0.49660700  0.56704700  0.40186900  1
  O  O3  1  0.49304100  0.56344100  0.60288900  1
  O  O4  1  0.50312700  0.43826600  0.40075800  1
  O  O5  1  0.61100000  0.42953200  0.50498900  1
  O  O6  1  0.38532100  0.57219000  0.49849100  1
  O  O7  1  0.60988200  0.55801900  0.50154700  1
  O  O8  1  0.38653600  0.44376200  0.50232000  1
  O  O9  1  0.67127600  0.12764300  0.49403600  1
  O  O10  1  0.46001700  0.79633000  0.32206600  1
  O  O11  1  0.46499100  0.26958000  0.32445600  1
  O  O12  1  0.69412200  0.72991400  0.54142400  1
  O  O13  1  0.83992300  0.33719600  0.63284800  1
  O  O14  1  0.06314300  0.65114100  0.58100600  1
  O  O15  1  0.40643400  0.37220000  0.12401300  1
  O  O16  1  0.35328200  0.64983800  0.81961900  1
