# generated using pymatgen
data_Zn3H26C51ClO12
_symmetry_space_group_name_H-M   'P 1'
_cell_length_a   18.81091400
_cell_length_b   18.97715500
_cell_length_c   19.01581700
_cell_angle_alpha   109.49724300
_cell_angle_beta   109.75421000
_cell_angle_gamma   108.88937300
_symmetry_Int_Tables_number   1
_chemical_formula_structural   Zn3H26C51ClO12
_chemical_formula_sum   'Zn6 H52 C102 Cl2 O24'
_cell_volume   5242.86050865
_cell_formula_units_Z   2
loop_
 _symmetry_equiv_pos_site_id
 _symmetry_equiv_pos_as_xyz
  1  'x, y, z'
loop_
 _atom_site_type_symbol
 _atom_site_label
 _atom_site_symmetry_multiplicity
 _atom_site_fract_x
 _atom_site_fract_y
 _atom_site_fract_z
 _atom_site_occupancy
  Zn  Zn1  1  0.50503100  0.43667100  0.43584900  1
  Zn  Zn2  1  0.49640800  0.57121500  0.56826500  1
  Zn  Zn3  1  0.93597500  0.43653500  0.00820100  1
  Zn  Zn4  1  0.07408600  0.56870400  0.00340200  1
  Zn  Zn5  1  0.07129200  0.00429300  0.57259200  1
  Zn  Zn6  1  0.93214600  0.00192900  0.43155600  1
  H  H1  1  0.18914300  0.57690700  0.31092400  1
  H  H2  1  0.36635000  0.64678200  0.35954400  1
  H  H3  1  0.31759300  0.57008300  0.18383900  1
  H  H4  1  0.31795800  0.42340200  0.18884900  1
  H  H5  1  0.14096500  0.35360100  0.14053800  1
  H  H6  1  0.19033500  0.43040800  0.31677100  1
  H  H7  1  0.86817100  0.57944200  0.55512300  1
  H  H8  1  0.53951100  0.69936400  0.45714700  1
  H  H9  1  0.52053900  0.81254200  0.44272200  1
  H  H10  1  0.78347400  0.94806800  0.51223800  1
  H  H11  1  0.93645300  0.77275400  0.48974600  1
  H  H12  1  0.96225400  0.66788200  0.52009500  1
  H  H13  1  0.74485600  0.59201900  0.55332400  1
  H  H14  1  0.53449900  0.21608500  0.57105800  1
  H  H15  1  0.73489100  0.66540500  0.71264500  1
  H  H16  1  0.85373000  0.79756800  0.83793500  1
  H  H17  1  0.95085700  0.79745900  0.96218600  1
  H  H18  1  0.93219000  0.66503800  0.95866800  1
  H  H19  1  0.79048500  0.34365500  0.77642500  1
  H  H20  1  0.65908800  0.21300100  0.66495300  1
  H  H21  1  0.54435100  0.34954700  0.58466000  1
  H  H22  1  0.44956100  0.43488600  0.66374700  1
  H  H23  1  0.44706300  0.45853900  0.79450500  1
  H  H24  1  0.31968200  0.36407700  0.79141500  1
  H  H25  1  0.19791100  0.24263000  0.65797700  1
  H  H26  1  0.08786800  0.04237700  0.34812900  1
  H  H27  1  0.08281100  0.02397700  0.21638000  1
  H  H28  1  0.27263500  0.28474000  0.33891200  1
  H  H29  1  0.71513600  0.57003900  0.03924000  1
  H  H30  1  0.17048000  0.71076300  0.24313300  1
  H  H31  1  0.30351400  0.83604900  0.36113600  1
  H  H32  1  0.30233600  0.96039300  0.45518000  1
  H  H33  1  0.16796200  0.95656200  0.43466100  1
  H  H34  1  0.84415400  0.77042800  0.29525200  1
  H  H35  1  0.71192000  0.65966700  0.16428200  1
  H  H36  1  0.85040000  0.58732800  0.04808600  1
  H  H37  1  0.99273100  0.15114700  0.94645600  1
  H  H38  1  0.97102200  0.42786500  0.76989200  1
  H  H39  1  0.98864000  0.45000300  0.65856500  1
  H  H40  1  0.02077800  0.35678400  0.56436900  1
  H  H41  1  0.02875400  0.23807700  0.57775200  1
  H  H42  1  0.95557400  0.04052000  0.69570900  1
  H  H43  1  0.95888400  0.02785800  0.81796100  1
  H  H44  1  0.01632400  0.28404300  0.94958500  1
  H  H45  1  0.56033500  0.95730500  0.52624300  1
  H  H46  1  0.53570000  0.06896400  0.50478700  1
  H  H47  1  0.69116700  0.08754800  0.38598300  1
  H  H48  1  0.71419400  0.97406600  0.40389100  1
  H  H49  1  0.03695500  0.06181800  0.11018700  1
  H  H50  1  0.03389700  0.03724100  0.97454800  1
  H  H51  1  0.30825000  0.19549000  0.10936700  1
  H  H52  1  0.31349400  0.21812900  0.24524500  1
  C  C1  1  0.62063400  0.62360600  0.50295200  1
  C  C2  1  0.38040100  0.50174800  0.37974200  1
  C  C3  1  0.38098800  0.38416000  0.50141700  1
  C  C4  1  0.62122700  0.50613600  0.62460200  1
  C  C5  1  0.31441200  0.58019100  0.30907900  1
  C  C6  1  0.21923200  0.54201500  0.28418500  1
  C  C7  1  0.19497400  0.50015500  0.19073300  1
  C  C8  1  0.28910700  0.53833100  0.21457700  1
  C  C9  1  0.28815300  0.45832400  0.21610100  1
  C  C10  1  0.19289500  0.42018200  0.19109000  1
  C  C11  1  0.21825200  0.46214600  0.28571400  1
  C  C12  1  0.31237400  0.50028000  0.30955600  1
  C  C13  1  0.59552400  0.75266900  0.47017200  1
  C  C14  1  0.58384700  0.81778200  0.46162800  1
  C  C15  1  0.65172400  0.88789300  0.47629500  1
  C  C16  1  0.73022200  0.88996300  0.49563200  1
  C  C17  1  0.74055700  0.82073400  0.49643600  1
  C  C18  1  0.67484700  0.75484100  0.49082100  1
  C  C19  1  0.81517900  0.81660600  0.50250300  1
  C  C20  1  0.82524500  0.74883900  0.50893500  1
  C  C21  1  0.76560000  0.69098800  0.51716200  1
  C  C22  1  0.68850800  0.69162500  0.50475800  1
  C  C23  1  0.89364100  0.73680300  0.50593100  1
  C  C24  1  0.90817400  0.67561900  0.52139700  1
  C  C25  1  0.85523500  0.62574500  0.54029400  1
  C  C26  1  0.78405200  0.63271900  0.53765800  1
  C  C27  1  0.77543300  0.66125400  0.76515000  1
  C  C28  1  0.84394600  0.73748000  0.83608700  1
  C  C29  1  0.89855900  0.73739700  0.90531800  1
  C  C30  1  0.88791800  0.66092800  0.90181700  1
  C  C31  1  0.82169500  0.58292300  0.82857600  1
  C  C32  1  0.76109800  0.58336100  0.76228800  1
  C  C33  1  0.81521500  0.50515600  0.82140100  1
  C  C34  1  0.74378800  0.42809700  0.75054900  1
  C  C35  1  0.67746600  0.42916900  0.69064500  1
  C  C36  1  0.68754800  0.50647200  0.69399600  1
  C  C37  1  0.73780200  0.34924600  0.73780900  1
  C  C38  1  0.66338200  0.27367200  0.67313200  1
  C  C39  1  0.59401800  0.27535000  0.62026600  1
  C  C40  1  0.60105500  0.35224500  0.62802700  1
  C  C41  1  0.39119300  0.39205800  0.65805300  1
  C  C42  1  0.39146500  0.40534900  0.73377200  1
  C  C43  1  0.32058700  0.35220900  0.73212000  1
  C  C44  1  0.25182300  0.28218000  0.65530200  1
  C  C45  1  0.25269700  0.26512400  0.57854900  1
  C  C46  1  0.31951400  0.32474800  0.57902300  1
  C  C47  1  0.18784100  0.18952100  0.50197500  1
  C  C48  1  0.18784600  0.17647300  0.42539600  1
  C  C49  1  0.24682500  0.24184200  0.42396900  1
  C  C50  1  0.31461300  0.31584100  0.50127800  1
  C  C51  1  0.12983500  0.09801200  0.34971300  1
  C  C52  1  0.12645000  0.08668900  0.27319200  1
  C  C53  1  0.17856200  0.15411000  0.26970400  1
  C  C54  1  0.23687700  0.23186500  0.34466500  1
  C  C55  1  0.00900200  0.62423000  0.12709600  1
  C  C56  1  0.12668400  0.50084100  0.12286100  1
  C  C57  1  0.00052500  0.38100700  0.88401300  1
  C  C58  1  0.88309100  0.50427500  0.88837600  1
  C  C59  1  0.00502900  0.88519500  0.38433500  1
  C  C60  1  0.88298300  0.88317200  0.50220600  1
  C  C61  1  0.99835900  0.12099200  0.61985100  1
  C  C62  1  0.12032900  0.12303200  0.50201200  1
  C  C63  1  0.16580100  0.76335800  0.28213300  1
  C  C64  1  0.24256100  0.83424200  0.35032900  1
  C  C65  1  0.24188600  0.90349500  0.40323800  1
  C  C66  1  0.16430500  0.89981300  0.39155900  1
  C  C67  1  0.08582100  0.82644600  0.32586500  1
  C  C68  1  0.08679400  0.76061600  0.26640200  1
  C  C69  1  0.00695100  0.81842300  0.31878400  1
  C  C70  1  0.92936000  0.74758000  0.24801800  1
  C  C71  1  0.93077700  0.68935500  0.18189100  1
  C  C72  1  0.00923900  0.69308000  0.19263500  1
  C  C73  1  0.84967900  0.73342500  0.24237200  1
  C  C74  1  0.77329200  0.66911700  0.16827100  1
  C  C75  1  0.77506200  0.61860800  0.09867600  1
  C  C76  1  0.85301400  0.62815300  0.10526400  1
  C  C77  1  0.98592500  0.38540500  0.73107500  1
  C  C78  1  0.99417800  0.39785400  0.66647200  1
  C  C79  1  0.01149100  0.34539900  0.61344100  1
  C  C80  1  0.01452700  0.27677900  0.62102500  1
  C  C81  1  0.00102200  0.26024400  0.68282400  1
  C  C82  1  0.99434900  0.31943500  0.74314200  1
  C  C83  1  0.99481200  0.18605800  0.68535600  1
  C  C84  1  0.98653800  0.17407300  0.75119600  1
  C  C85  1  0.99412700  0.23974800  0.81893700  1
  C  C86  1  0.99578800  0.31199100  0.81414700  1
  C  C87  1  0.97049300  0.09669600  0.75024700  1
  C  C88  1  0.97078200  0.08806000  0.81923200  1
  C  C89  1  0.98909500  0.15670600  0.89076100  1
  C  C90  1  0.00085500  0.23211000  0.89098000  1
  C  C91  1  0.63944700  0.95767000  0.46703000  1
  C  C92  1  0.58888200  0.98470100  0.49459300  1
  C  C93  1  0.57538100  0.04828400  0.48324700  1
  C  C94  1  0.61218700  0.08531900  0.44436700  1
  C  C95  1  0.66277500  0.05895800  0.41705300  1
  C  C96  1  0.67635600  0.99538500  0.42817900  1
  C  C97  1  0.17542600  0.14213900  0.18794400  1
  C  C98  1  0.09725600  0.09098500  0.11108800  1
  C  C99  1  0.09512300  0.07752900  0.03433400  1
  C  C100  1  0.17082600  0.11516200  0.03368600  1
  C  C101  1  0.24874000  0.16645500  0.10987700  1
  C  C102  1  0.25121300  0.17982900  0.18668600  1
  Cl  Cl1  1  0.59404700  0.16509900  0.42867800  1
  Cl  Cl2  1  0.16840900  0.09712800  0.93620500  1
  O  O1  1  0.59591300  0.54341300  0.45221100  1
  O  O2  1  0.58788200  0.64549300  0.55229500  1
  O  O3  1  0.41321700  0.45197800  0.35890100  1
  O  O4  1  0.40467200  0.55319900  0.45954700  1
  O  O5  1  0.41602200  0.36271400  0.45442300  1
  O  O6  1  0.40327100  0.46428700  0.54936600  1
  O  O7  1  0.59882000  0.45698900  0.54467900  1
  O  O8  1  0.58602900  0.55362800  0.64496900  1
  O  O9  1  0.95503600  0.54452900  0.10023700  1
  O  O10  1  0.06036600  0.64474100  0.09610800  1
  O  O11  1  0.04518600  0.45179400  0.09723900  1
  O  O12  1  0.15106200  0.55152300  0.09280500  1
  O  O13  1  0.94695800  0.36075300  0.91280700  1
  O  O14  1  0.05761600  0.46058400  0.91401900  1
  O  O15  1  0.85940100  0.45657600  0.92153700  1
  O  O16  1  0.96466300  0.55071800  0.91193400  1
  O  O17  1  0.05350300  0.91132800  0.46599200  1
  O  O18  1  0.95419900  0.91560000  0.35831500  1
  O  O19  1  0.96451300  0.91605600  0.55940900  1
  O  O20  1  0.85947100  0.90789300  0.44552400  1
  O  O21  1  0.05324200  0.09454700  0.64604600  1
  O  O22  1  0.94604100  0.09118500  0.53807000  1
  O  O23  1  0.14441500  0.09468500  0.55513700  1
  O  O24  1  0.03865500  0.09405700  0.44825200  1
