# generated using pymatgen
data_ZnH12C16(NO2)2
_symmetry_space_group_name_H-M   'P 1'
_cell_length_a   8.41379500
_cell_length_b   11.07154500
_cell_length_c   13.47192400
_cell_angle_alpha   90.00000000
_cell_angle_beta   90.00000000
_cell_angle_gamma   90.00000000
_symmetry_Int_Tables_number   1
_chemical_formula_structural   ZnH12C16(NO2)2
_chemical_formula_sum   'Zn2 H24 C32 N4 O8'
_cell_volume   1254.95970094
_cell_formula_units_Z   2
loop_
 _symmetry_equiv_pos_site_id
 _symmetry_equiv_pos_as_xyz
  1  'x, y, z'
loop_
 _atom_site_type_symbol
 _atom_site_label
 _atom_site_symmetry_multiplicity
 _atom_site_fract_x
 _atom_site_fract_y
 _atom_site_fract_z
 _atom_site_occupancy
  Zn  Zn1  1  0.50271500  0.49234400  0.88832500  1
  Zn  Zn2  1  0.50271500  0.50765600  0.11167500  1
  H  H1  1  0.74615500  0.90863300  0.00888600  1
  H  H2  1  0.74615500  0.09136700  0.99111400  1
  H  H3  1  0.25999600  0.90840000  0.00798500  1
  H  H4  1  0.25999600  0.09160000  0.99201500  1
  H  H5  1  0.00258100  0.58789700  0.96736400  1
  H  H6  1  0.00258100  0.41210300  0.03263600  1
  H  H7  1  0.25515700  0.52444200  0.24820500  1
  H  H8  1  0.25515700  0.47555800  0.75179500  1
  H  H9  1  0.89401900  0.49360600  0.58541600  1
  H  H10  1  0.89401900  0.50639400  0.41458400  1
  H  H11  1  0.24184800  0.51778300  0.42531400  1
  H  H12  1  0.24184800  0.48221700  0.57468600  1
  H  H13  1  0.81569400  0.66809800  0.67663000  1
  H  H14  1  0.99907000  0.59532400  0.71566600  1
  H  H15  1  0.88111600  0.67698600  0.80248900  1
  H  H16  1  0.80018400  0.32069700  0.75291900  1
  H  H17  1  0.92972900  0.39230400  0.84275900  1
  H  H18  1  0.97775000  0.39765200  0.71380400  1
  H  H19  1  0.81569400  0.33190200  0.32337000  1
  H  H20  1  0.99907000  0.40467600  0.28433400  1
  H  H21  1  0.88111600  0.32301400  0.19751100  1
  H  H22  1  0.80018400  0.67930300  0.24708100  1
  H  H23  1  0.92972900  0.60769600  0.15724100  1
  H  H24  1  0.97775000  0.60234800  0.28619600  1
  C  C1  1  0.86174200  0.74341200  0.98976100  1
  C  C2  1  0.86174200  0.25658800  0.01023900  1
  C  C3  1  0.86058500  0.86727600  0.00005100  1
  C  C4  1  0.86058500  0.13272400  0.99994900  1
  C  C5  1  0.00306500  0.93250400  0.99891000  1
  C  C6  1  0.00306500  0.06749600  0.00109000  1
  C  C7  1  0.14542500  0.86709000  0.99966400  1
  C  C8  1  0.14542500  0.13291000  0.00033600  1
  C  C9  1  0.14383200  0.74315200  0.98958200  1
  C  C10  1  0.14383200  0.25684800  0.01041800  1
  C  C11  1  0.00272200  0.68377300  0.97878100  1
  C  C12  1  0.00272200  0.31622700  0.02121900  1
  C  C13  1  0.28787000  0.66960600  0.99369200  1
  C  C14  1  0.28787000  0.33039400  0.00630800  1
  C  C15  1  0.71725300  0.67031000  0.99380800  1
  C  C16  1  0.71725300  0.32969000  0.00619200  1
  C  C17  1  0.64167600  0.50428600  0.29296100  1
  C  C18  1  0.64167600  0.49571400  0.70703900  1
  C  C19  1  0.36434900  0.51842300  0.29014800  1
  C  C20  1  0.36434900  0.48157700  0.70985200  1
  C  C21  1  0.35788700  0.51270100  0.39240000  1
  C  C22  1  0.35788700  0.48729900  0.60760000  1
  C  C23  1  0.49661900  0.50371300  0.44780600  1
  C  C24  1  0.49661900  0.49628700  0.55219400  1
  C  C25  1  0.63967500  0.50354400  0.39656400  1
  C  C26  1  0.63967500  0.49645600  0.60343600  1
  C  C27  1  0.77990600  0.49782000  0.55058800  1
  C  C28  1  0.77990600  0.50218000  0.44941200  1
  C  C29  1  0.87515500  0.61717200  0.73695900  1
  C  C30  1  0.87813800  0.39954400  0.76734100  1
  C  C31  1  0.87515500  0.38282800  0.26304100  1
  C  C32  1  0.87813800  0.60045600  0.23265900  1
  N  N1  1  0.50402300  0.51346600  0.24191000  1
  N  N2  1  0.50402300  0.48653400  0.75809000  1
  N  N3  1  0.78583500  0.50917300  0.76042500  1
  N  N4  1  0.78583500  0.49082700  0.23957500  1
  O  O1  1  0.33950100  0.63561200  0.08161400  1
  O  O2  1  0.33776800  0.62133800  0.91024400  1
  O  O3  1  0.33950100  0.36438800  0.91838600  1
  O  O4  1  0.33776800  0.37866200  0.08975600  1
  O  O5  1  0.66682700  0.62208300  0.91081300  1
  O  O6  1  0.66575900  0.63589400  0.08126900  1
  O  O7  1  0.66682700  0.37791700  0.08918700  1
  O  O8  1  0.66575900  0.36410600  0.91873100  1
