# generated using pymatgen
data_Fe2H31C58N7O16
_symmetry_space_group_name_H-M   'P 1'
_cell_length_a   9.39935800
_cell_length_b   17.00619500
_cell_length_c   19.51629500
_cell_angle_alpha   103.31422600
_cell_angle_beta   85.67987700
_cell_angle_gamma   76.74204500
_symmetry_Int_Tables_number   1
_chemical_formula_structural   Fe2H31C58N7O16
_chemical_formula_sum   'Fe2 H31 C58 N7 O16'
_cell_volume   2927.69973045
_cell_formula_units_Z   1
loop_
 _symmetry_equiv_pos_site_id
 _symmetry_equiv_pos_as_xyz
  1  'x, y, z'
loop_
 _atom_site_type_symbol
 _atom_site_label
 _atom_site_symmetry_multiplicity
 _atom_site_fract_x
 _atom_site_fract_y
 _atom_site_fract_z
 _atom_site_occupancy
  Fe  Fe1  1  0.55238900  0.00151900  0.35183600  1
  Fe  Fe2  1  0.54309800  0.00727900  0.62167000  1
  H  H1  1  0.99798900  0.01272100  0.64760200  1
  H  H2  1  0.25831500  0.00446200  0.81694000  1
  H  H3  1  0.81206000  0.98811900  0.84419500  1
  H  H4  1  0.93626600  0.89785100  0.91083900  1
  H  H5  1  0.94622000  0.90006000  0.03536600  1
  H  H6  1  0.15174900  0.09593800  0.93387700  1
  H  H7  1  0.29396500  0.99558700  0.12205400  1
  H  H8  1  0.10141900  0.98658100  0.32306200  1
  H  H9  1  0.83967900  0.99646300  0.15415800  1
  H  H10  1  0.18150700  0.43672300  0.63645600  1
  H  H11  1  0.30217500  0.32029700  0.67863600  1
  H  H12  1  0.86290700  0.56715500  0.33991900  1
  H  H13  1  0.85014100  0.72809000  0.54482500  1
  H  H14  1  0.23318000  0.23398100  0.38235400  1
  H  H15  1  0.36761300  0.20347700  0.27021800  1
  H  H16  1  0.59867400  0.19732500  0.20003300  1
  H  H17  1  0.77533200  0.27061300  0.25444400  1
  H  H18  1  0.71909000  0.35106700  0.37937900  1
  H  H19  1  0.49104000  0.35874100  0.45016200  1
  H  H20  1  0.80657100  0.64258800  0.24838100  1
  H  H21  1  0.68336400  0.56532200  0.17386500  1
  H  H22  1  0.46856300  0.50807400  0.15854000  1
  H  H23  1  0.25366500  0.55695500  0.25143900  1
  H  H24  1  0.25384000  0.66443200  0.35982700  1
  H  H25  1  0.46476200  0.72304000  0.37629900  1
  H  H26  1  0.27591500  0.11081300  0.05129200  1
  H  H27  1  0.26583800  0.24952500  0.06539300  1
  H  H28  1  0.11533500  0.39112200  0.07787300  1
  H  H29  1  0.84481100  0.42126900  0.09736400  1
  H  H30  1  0.72461500  0.30918900  0.10570000  1
  H  H31  1  0.87186100  0.16779400  0.09432000  1
  C  C1  1  0.14256800  0.00849900  0.72698800  1
  C  C2  1  0.15498900  0.00389700  0.79627500  1
  C  C3  1  0.03616300  0.99672000  0.83884700  1
  C  C4  1  0.90610000  0.99266100  0.81132800  1
  C  C5  1  0.89208400  0.00023900  0.74326000  1
  C  C6  1  0.00941600  0.00898000  0.70149400  1
  C  C7  1  0.98498800  0.94262900  0.94307200  1
  C  C8  1  0.99002100  0.94409400  0.01378500  1
  C  C9  1  0.05432200  0.99941600  0.05601700  1
  C  C10  1  0.11162600  0.05450100  0.02676100  1
  C  C11  1  0.10874200  0.05179800  0.95568400  1
  C  C12  1  0.04558100  0.99597000  0.91344500  1
  C  C13  1  0.19798100  0.99603200  0.15639200  1
  C  C14  1  0.21097800  0.99191400  0.22534200  1
  C  C15  1  0.09099900  0.98811000  0.26862300  1
  C  C16  1  0.95659100  0.99045800  0.24365000  1
  C  C17  1  0.94428100  0.99430700  0.17412600  1
  C  C18  1  0.06501900  0.99739000  0.13036800  1
  C  C19  1  0.82811100  0.99125300  0.29195100  1
  C  C20  1  0.65318900  0.84757600  0.37114700  1
  C  C21  1  0.34917100  0.99684700  0.25374100  1
  C  C22  1  0.39854000  0.14126900  0.45336000  1
  C  C23  1  0.35072100  0.22388000  0.50357500  1
  C  C24  1  0.28376600  0.29178900  0.47888300  1
  C  C25  1  0.21842000  0.36889500  0.52648900  1
  C  C26  1  0.22978200  0.37788600  0.59791000  1
  C  C27  1  0.29806900  0.31098900  0.62223000  1
  C  C28  1  0.35636800  0.23322000  0.57601500  1
  C  C29  1  0.96150000  0.56898900  0.46601100  1
  C  C30  1  0.13135100  0.44028500  0.50377800  1
  C  C31  1  0.83121600  0.62814500  0.37693500  1
  C  C32  1  0.75301800  0.69461500  0.35464400  1
  C  C33  1  0.71415100  0.77495800  0.39975300  1
  C  C34  1  0.74439800  0.78481300  0.46970200  1
  C  C35  1  0.82387400  0.71774000  0.49104700  1
  C  C36  1  0.87046500  0.63947100  0.44450800  1
  C  C37  1  0.75456900  0.99674000  0.71416600  1
  C  C38  1  0.70144400  0.86562900  0.52196600  1
  C  C39  1  0.26930300  0.01132800  0.67969200  1
  C  C40  1  0.41726700  0.16258000  0.60603200  1
  C  C41  1  0.41372100  0.27887700  0.36575000  1
  C  C42  1  0.44508300  0.23511800  0.29503800  1
  C  C43  1  0.57480600  0.23191400  0.25524600  1
  C  C44  1  0.67370900  0.27301900  0.28567500  1
  C  C45  1  0.64219800  0.31798200  0.35576600  1
  C  C46  1  0.51256600  0.32141100  0.39585600  1
  C  C47  1  0.59219000  0.64674300  0.27675000  1
  C  C48  1  0.59018900  0.58715900  0.21543400  1
  C  C49  1  0.46909800  0.55484400  0.20650600  1
  C  C50  1  0.34868600  0.58221400  0.25852300  1
  C  C51  1  0.34900300  0.64234800  0.31932600  1
  C  C52  1  0.46989800  0.67486300  0.32857300  1
  C  C53  1  0.08000300  0.19802500  0.07733900  1
  C  C54  1  0.14697000  0.26169200  0.07391900  1
  C  C55  1  0.06250500  0.34165200  0.08097200  1
  C  C56  1  0.91089000  0.35858800  0.09192700  1
  C  C57  1  0.84358500  0.29567500  0.09640100  1
  C  C58  1  0.92756300  0.21556200  0.08931300  1
  N  N1  1  0.08657400  0.51623300  0.54992700  1
  N  N2  1  0.00324800  0.57979100  0.53126600  1
  N  N3  1  0.00574700  0.49317500  0.41993200  1
  N  N4  1  0.08891600  0.42974900  0.43865900  1
  N  N5  1  0.27930500  0.28132200  0.40520900  1
  N  N6  1  0.71750000  0.67930400  0.28461000  1
  N  N7  1  0.16769800  0.11611900  0.06957300  1
  O  O1  1  0.69623500  0.00036100  0.27191900  1
  O  O2  1  0.66673400  0.83904100  0.30224300  1
  O  O3  1  0.84383400  0.98531700  0.35695400  1
  O  O4  1  0.59734200  0.92296400  0.41264200  1
  O  O5  1  0.37855700  0.96964900  0.31017100  1
  O  O6  1  0.43693200  0.03463000  0.22621500  1
  O  O7  1  0.52813500  0.11684200  0.41396100  1
  O  O8  1  0.31247100  0.09003800  0.44950700  1
  O  O9  1  0.71819000  0.03551600  0.66468400  1
  O  O10  1  0.67336800  0.95059400  0.73405700  1
  O  O11  1  0.56541400  0.89492000  0.55466900  1
  O  O12  1  0.80052900  0.90757400  0.53796400  1
  O  O13  1  0.38883500  0.17070400  0.67453000  1
  O  O14  1  0.40051400  0.00362500  0.70016400  1
  O  O15  1  0.49775600  0.09101400  0.56560900  1
  O  O16  1  0.25312900  0.01864600  0.61506500  1
