# generated using pymatgen
data_Zn3H2C28(N5O6)2
_symmetry_space_group_name_H-M   'P 1'
_cell_length_a   29.00868500
_cell_length_b   18.60542000
_cell_length_c   18.65969600
_cell_angle_alpha   90.00000000
_cell_angle_beta   48.43650900
_cell_angle_gamma   90.00000000
_symmetry_Int_Tables_number   1
_chemical_formula_structural   Zn3H2C28(N5O6)2
_chemical_formula_sum   'Zn12 H8 C112 N40 O48'
_cell_volume   7535.32475435
_cell_formula_units_Z   4
loop_
 _symmetry_equiv_pos_site_id
 _symmetry_equiv_pos_as_xyz
  1  'x, y, z'
loop_
 _atom_site_type_symbol
 _atom_site_label
 _atom_site_symmetry_multiplicity
 _atom_site_fract_x
 _atom_site_fract_y
 _atom_site_fract_z
 _atom_site_occupancy
  Zn  Zn1  1  0.99841700  0.91875700  0.00178100  1
  Zn  Zn2  1  0.00158300  0.08124200  0.99821800  1
  Zn  Zn3  1  0.49848400  0.41875400  0.00166200  1
  Zn  Zn4  1  0.50151600  0.58124700  0.99833800  1
  Zn  Zn5  1  0.50167300  0.00062800  0.41732500  1
  Zn  Zn6  1  0.49832700  0.99937300  0.58267500  1
  Zn  Zn7  1  0.00167600  0.50067600  0.41732700  1
  Zn  Zn8  1  0.99832400  0.49932400  0.58267400  1
  Zn  Zn9  1  0.06978500  0.00015400  0.42676600  1
  Zn  Zn10  1  0.93021500  0.99984600  0.57323500  1
  Zn  Zn11  1  0.56978000  0.50039800  0.42677300  1
  Zn  Zn12  1  0.43022000  0.49960100  0.57322800  1
  H  H1  1  0.20462100  0.07924900  0.71716600  1
  H  H2  1  0.79537700  0.92075100  0.28283700  1
  H  H3  1  0.80618100  0.89326600  0.15795000  1
  H  H4  1  0.19381700  0.10673200  0.84205300  1
  H  H5  1  0.70458600  0.57949300  0.71721500  1
  H  H6  1  0.29541200  0.42050700  0.28278700  1
  H  H7  1  0.30626800  0.39307300  0.15784000  1
  H  H8  1  0.69373100  0.60692500  0.84216300  1
  C  C1  1  0.00247300  0.00123200  0.85701900  1
  C  C2  1  0.99752300  0.99876800  0.14298400  1
  C  C3  1  0.50246400  0.50134900  0.85703500  1
  C  C4  1  0.49753300  0.49865100  0.14296800  1
  C  C5  1  0.12089200  0.99568400  0.87892400  1
  C  C6  1  0.87910900  0.00431600  0.12107800  1
  C  C7  1  0.62089400  0.49582100  0.87890600  1
  C  C8  1  0.37910600  0.50417900  0.12109600  1
  C  C9  1  0.21458600  0.02112300  0.71241900  1
  C  C10  1  0.78541400  0.97887700  0.28758200  1
  C  C11  1  0.78845300  0.94623200  0.15861000  1
  C  C12  1  0.21154700  0.05376800  0.84139000  1
  C  C13  1  0.71457600  0.52137000  0.71242500  1
  C  C14  1  0.28542400  0.47863000  0.28757700  1
  C  C15  1  0.28848100  0.44602000  0.15858300  1
  C  C16  1  0.71151900  0.55397900  0.84141700  1
  C  C17  1  0.28414600  0.01258300  0.63737900  1
  C  C18  1  0.71585400  0.98741700  0.36262100  1
  C  C19  1  0.71847200  0.93957300  0.23093800  1
  C  C20  1  0.28152700  0.06042700  0.76906400  1
  C  C21  1  0.78414400  0.51288200  0.63736500  1
  C  C22  1  0.21585700  0.48711900  0.36263500  1
  C  C23  1  0.21850200  0.43929200  0.23092200  1
  C  C24  1  0.78149700  0.56070700  0.76908000  1
  C  C25  1  0.21676900  0.91990400  0.80273100  1
  C  C26  1  0.78323100  0.08009600  0.19726800  1
  C  C27  1  0.71682300  0.42013100  0.80265400  1
  C  C28  1  0.28317800  0.57986800  0.19734500  1
  C  C29  1  0.19025200  0.99547200  0.81013100  1
  C  C30  1  0.80974800  0.00452800  0.18987000  1
  C  C31  1  0.69025600  0.49567500  0.81011800  1
  C  C32  1  0.30974400  0.50432400  0.18988400  1
  C  C33  1  0.30908900  0.00019900  0.69054500  1
  C  C34  1  0.69091200  0.99980000  0.30945500  1
  C  C35  1  0.80909200  0.50050800  0.69052000  1
  C  C36  1  0.19090900  0.49949100  0.30948100  1
  C  C37  1  0.28648500  0.92514200  0.74120400  1
  C  C38  1  0.71351600  0.07485700  0.25879400  1
  C  C39  1  0.78652700  0.42542800  0.74112400  1
  C  C40  1  0.21347300  0.57457000  0.25887500  1
  C  C41  1  0.00243800  0.00086600  0.77981400  1
  C  C42  1  0.99756200  0.99913600  0.22018500  1
  C  C43  1  0.50244500  0.50100100  0.77981600  1
  C  C44  1  0.49755500  0.49900000  0.22018400  1
  C  C45  1  0.00186800  0.00072400  0.71562900  1
  C  C46  1  0.99813400  0.99927800  0.28436900  1
  C  C47  1  0.50187700  0.50088600  0.71562900  1
  C  C48  1  0.49812500  0.49911500  0.28436900  1
  C  C49  1  0.49945800  0.85944800  0.50088300  1
  C  C50  1  0.50053800  0.14055300  0.49912100  1
  C  C51  1  0.99911600  0.35943900  0.50113800  1
  C  C52  1  0.00088100  0.64056100  0.49886500  1
  C  C53  1  0.37886000  0.00129200  0.61992200  1
  C  C54  1  0.62114100  0.99870900  0.38007700  1
  C  C55  1  0.87886100  0.50164000  0.61990900  1
  C  C56  1  0.12113900  0.49836100  0.38009100  1
  C  C57  1  0.99856400  0.14049000  0.50071500  1
  C  C58  1  0.00143600  0.85951000  0.49928400  1
  C  C59  1  0.50057800  0.64050600  0.49867900  1
  C  C60  1  0.49942200  0.35949400  0.50131900  1
  C  C61  1  0.00069400  0.00057500  0.63961600  1
  C  C62  1  0.99930500  0.99942500  0.36038500  1
  C  C63  1  0.50069000  0.50075000  0.63962600  1
  C  C64  1  0.49931000  0.49925100  0.36037500  1
  C  C65  1  0.49967200  0.78235700  0.49988900  1
  C  C66  1  0.50032700  0.21764300  0.50011300  1
  C  C67  1  0.99886500  0.28234000  0.50059300  1
  C  C68  1  0.00113400  0.71766000  0.49940900  1
  C  C69  1  0.99870600  0.21758800  0.50049600  1
  C  C70  1  0.00129500  0.78241200  0.49950500  1
  C  C71  1  0.50001900  0.71760700  0.49927000  1
  C  C72  1  0.49998200  0.28239300  0.50073100  1
  C  C73  1  0.18385800  0.98661800  0.68310300  1
  C  C74  1  0.81614200  0.01338400  0.31689900  1
  C  C75  1  0.81275100  0.95646600  0.06087800  1
  C  C76  1  0.18725000  0.04353300  0.93911900  1
  C  C77  1  0.68385700  0.48687800  0.68308700  1
  C  C78  1  0.31614300  0.51312400  0.31691500  1
  C  C79  1  0.31275900  0.45627000  0.06086800  1
  C  C80  1  0.68724300  0.54372900  0.93912900  1
  C  C81  1  0.30879700  0.07737600  0.57717400  1
  C  C82  1  0.69120300  0.92262700  0.42282800  1
  C  C83  1  0.70296100  0.86680200  0.27100700  1
  C  C84  1  0.29703800  0.13319700  0.72899700  1
  C  C85  1  0.80877000  0.57770100  0.57721100  1
  C  C86  1  0.19123100  0.42230200  0.42279000  1
  C  C87  1  0.20303900  0.36649800  0.27092300  1
  C  C88  1  0.79696000  0.63350200  0.72908000  1
  C  C89  1  0.29885900  0.95473200  0.57138900  1
  C  C90  1  0.70114200  0.04527100  0.42861100  1
  C  C91  1  0.69636400  0.94015100  0.17928900  1
  C  C92  1  0.30363400  0.05984800  0.82071300  1
  C  C93  1  0.79889300  0.45505100  0.57132300  1
  C  C94  1  0.20110800  0.54495100  0.42867700  1
  C  C95  1  0.19638500  0.43986400  0.17928700  1
  C  C96  1  0.80361400  0.56013400  0.82071400  1
  C  C97  1  0.20375200  0.86572700  0.76089300  1
  C  C98  1  0.79624800  0.13427300  0.23910600  1
  C  C99  1  0.81105800  0.10824700  0.10246400  1
  C  C100  1  0.18894200  0.89175200  0.89753400  1
  C  C101  1  0.70383500  0.36596600  0.76077600  1
  C  C102  1  0.29616500  0.63403400  0.23922300  1
  C  C103  1  0.31098000  0.60806900  0.10257500  1
  C  C104  1  0.68902100  0.39193000  0.89742300  1
  C  C105  1  0.31773400  0.86573700  0.67207800  1
  C  C106  1  0.68226500  0.13426200  0.32792000  1
  C  C107  1  0.69928600  0.08905300  0.19785600  1
  C  C108  1  0.30071400  0.91094600  0.80214300  1
  C  C109  1  0.81778200  0.36604500  0.67197700  1
  C  C110  1  0.18221800  0.63395300  0.32802200  1
  C  C111  1  0.19922800  0.58877000  0.19796300  1
  C  C112  1  0.80077100  0.41122800  0.80203700  1
  N  N1  1  0.15933000  0.95991900  0.66017000  1
  N  N2  1  0.84067100  0.04008500  0.33983000  1
  N  N3  1  0.83240000  0.96396900  0.98341200  1
  N  N4  1  0.16759900  0.03602900  0.01658500  1
  N  N5  1  0.65934400  0.46018800  0.66012500  1
  N  N6  1  0.34065700  0.53981600  0.33987500  1
  N  N7  1  0.33239800  0.46375800  0.98340600  1
  N  N8  1  0.66760200  0.53624100  0.01659100  1
  N  N9  1  0.32823800  0.12786400  0.52878500  1
  N  N10  1  0.67176200  0.87213800  0.47121600  1
  N  N11  1  0.69079100  0.80887800  0.30123100  1
  N  N12  1  0.30921000  0.19112200  0.69877100  1
  N  N13  1  0.82819800  0.62821300  0.52886500  1
  N  N14  1  0.17180200  0.37179000  0.47113500  1
  N  N15  1  0.19091100  0.30855400  0.30108100  1
  N  N16  1  0.80909000  0.69144600  0.69892100  1
  N  N17  1  0.31078300  0.91006100  0.51815800  1
  N  N18  1  0.68921600  0.08994300  0.48184200  1
  N  N19  1  0.67857200  0.93921900  0.13912800  1
  N  N20  1  0.32142800  0.06077800  0.86087200  1
  N  N21  1  0.81085100  0.41040000  0.51804700  1
  N  N22  1  0.18914800  0.58960300  0.48195300  1
  N  N23  1  0.17858600  0.43892000  0.13913700  1
  N  N24  1  0.82141400  0.56107700  0.86086300  1
  N  N25  1  0.19293400  0.82264800  0.72906300  1
  N  N26  1  0.80706600  0.17735300  0.27093600  1
  N  N27  1  0.83368300  0.13099400  0.02769300  1
  N  N28  1  0.16631700  0.86900500  0.97230700  1
  N  N29  1  0.69301600  0.32290600  0.72892900  1
  N  N30  1  0.30698300  0.67709500  0.27107000  1
  N  N31  1  0.33358500  0.63086500  0.02783300  1
  N  N32  1  0.66641400  0.36913500  0.97216600  1
  N  N33  1  0.34290000  0.81856600  0.61814800  1
  N  N34  1  0.65710000  0.18143400  0.38184800  1
  N  N35  1  0.68736100  0.10157900  0.15094300  1
  N  N36  1  0.31263900  0.89842000  0.84905600  1
  N  N37  1  0.84295300  0.31888900  0.61802700  1
  N  N38  1  0.15704800  0.68111200  0.38196900  1
  N  N39  1  0.18728600  0.60129700  0.15107600  1
  N  N40  1  0.81271500  0.39870100  0.84892300  1
  O  O1  1  0.00219100  0.93942000  0.89125200  1
  O  O2  1  0.99780900  0.06058000  0.10874700  1
  O  O3  1  0.99827400  0.93659500  0.10910800  1
  O  O4  1  0.00172500  0.06340500  0.89089200  1
  O  O5  1  0.50223500  0.43952100  0.89117700  1
  O  O6  1  0.49776500  0.56047900  0.10882200  1
  O  O7  1  0.49833500  0.43649100  0.10901100  1
  O  O8  1  0.50166400  0.56350900  0.89098900  1
  O  O9  1  0.09069600  0.93450900  0.91070700  1
  O  O10  1  0.90930400  0.06549200  0.08929300  1
  O  O11  1  0.90717600  0.94183900  0.09541700  1
  O  O12  1  0.09282400  0.05816000  0.90458200  1
  O  O13  1  0.59074900  0.43461200  0.91059800  1
  O  O14  1  0.40925100  0.56538800  0.08940300  1
  O  O15  1  0.40722300  0.44173000  0.09533700  1
  O  O16  1  0.59277600  0.55826900  0.90466100  1
  O  O17  1  0.49925600  0.89358800  0.43962600  1
  O  O18  1  0.50074400  0.10641200  0.56037300  1
  O  O19  1  0.49986700  0.89210800  0.56265400  1
  O  O20  1  0.50013200  0.10789300  0.43734600  1
  O  O21  1  0.99901600  0.39362900  0.43979900  1
  O  O22  1  0.00098500  0.60637200  0.56019900  1
  O  O23  1  0.99961800  0.39206600  0.56282700  1
  O  O24  1  0.00038100  0.60793400  0.43717400  1
  O  O25  1  0.40925800  0.00272000  0.52771400  1
  O  O26  1  0.59074300  0.99727900  0.47228400  1
  O  O27  1  0.90926400  0.50303800  0.52770100  1
  O  O28  1  0.09073700  0.49696000  0.47229800  1
  O  O29  1  0.40724900  0.99830900  0.65277400  1
  O  O30  1  0.59275100  0.00169200  0.34722600  1
  O  O31  1  0.90724600  0.49855200  0.65276200  1
  O  O32  1  0.09275400  0.50144900  0.34723800  1
  O  O33  1  0.05171300  0.10698000  0.44336400  1
  O  O34  1  0.94828600  0.89302000  0.55663700  1
  O  O35  1  0.94533700  0.10727500  0.55868400  1
  O  O36  1  0.05466300  0.89272500  0.44131500  1
  O  O37  1  0.55400300  0.60768500  0.44093100  1
  O  O38  1  0.44599600  0.39231400  0.55907000  1
  O  O39  1  0.44763700  0.60659000  0.55624800  1
  O  O40  1  0.55236300  0.39340900  0.44375200  1
  O  O41  1  0.05334300  0.99889600  0.55065900  1
  O  O42  1  0.94665600  0.00110300  0.44934300  1
  O  O43  1  0.55332400  0.50256100  0.55066300  1
  O  O44  1  0.44667500  0.49743800  0.44933800  1
  O  O45  1  0.94698700  0.00208500  0.66269400  1
  O  O46  1  0.05301200  0.99791500  0.33730700  1
  O  O47  1  0.44699700  0.49855200  0.66270000  1
  O  O48  1  0.55300300  0.50144800  0.33730000  1
