# generated using pymatgen
data_Cu6H42C67O25
_symmetry_space_group_name_H-M   'P 1'
_cell_length_a   30.89689100
_cell_length_b   21.70302300
_cell_length_c   21.62639000
_cell_angle_alpha   90.00000000
_cell_angle_beta   135.58849100
_cell_angle_gamma   90.00000000
_symmetry_Int_Tables_number   1
_chemical_formula_structural   Cu6H42C67O25
_chemical_formula_sum   'Cu12 H84 C134 O50'
_cell_volume   10148.39181899
_cell_formula_units_Z   2
loop_
 _symmetry_equiv_pos_site_id
 _symmetry_equiv_pos_as_xyz
  1  'x, y, z'
loop_
 _atom_site_type_symbol
 _atom_site_label
 _atom_site_symmetry_multiplicity
 _atom_site_fract_x
 _atom_site_fract_y
 _atom_site_fract_z
 _atom_site_occupancy
  Cu  Cu1  1  0.99520700  0.48956900  0.05449300  1
  Cu  Cu2  1  0.49520700  0.98956900  0.05449300  1
  Cu  Cu3  1  0.99179800  0.48753100  0.92791100  1
  Cu  Cu4  1  0.49179800  0.98753100  0.92791100  1
  Cu  Cu5  1  0.93117900  0.98731700  0.92955800  1
  Cu  Cu6  1  0.43117900  0.48731700  0.92955800  1
  Cu  Cu7  1  0.05435200  0.98984300  0.05892300  1
  Cu  Cu8  1  0.55435200  0.48984300  0.05892300  1
  Cu  Cu9  1  0.49102700  0.54674300  0.49131500  1
  Cu  Cu10  1  0.49562700  0.42714600  0.49849400  1
  Cu  Cu11  1  0.99102700  0.04674300  0.49131500  1
  Cu  Cu12  1  0.99562700  0.92714600  0.49849400  1
  H  H1  1  0.93698700  0.68278500  0.85254700  1
  H  H2  1  0.91854000  0.29390400  0.84769800  1
  H  H3  1  0.43698700  0.18278500  0.85254700  1
  H  H4  1  0.41854000  0.79390400  0.84769800  1
  H  H5  1  0.93455300  0.79600600  0.85274000  1
  H  H6  1  0.91740200  0.18067900  0.84989600  1
  H  H7  1  0.43455300  0.29600600  0.85274000  1
  H  H8  1  0.41740200  0.68067900  0.84989600  1
  H  H9  1  0.04603200  0.79479600  0.17992900  1
  H  H10  1  0.06000700  0.18386800  0.19103100  1
  H  H11  1  0.54603300  0.29479600  0.17992900  1
  H  H12  1  0.56000700  0.68386800  0.19103100  1
  H  H13  1  0.11629500  0.79427300  0.19988900  1
  H  H14  1  0.12048100  0.18505300  0.18986300  1
  H  H15  1  0.61629500  0.29427300  0.19988900  1
  H  H16  1  0.62048100  0.68505300  0.18986300  1
  H  H17  1  0.04567800  0.68272500  0.18011300  1
  H  H18  1  0.05816000  0.29598900  0.18929800  1
  H  H19  1  0.54567800  0.18272500  0.18011300  1
  H  H20  1  0.55816000  0.79598900  0.18929800  1
  H  H21  1  0.11548100  0.68227000  0.19901600  1
  H  H22  1  0.11815500  0.29710300  0.18717900  1
  H  H23  1  0.61548100  0.18227000  0.19901600  1
  H  H24  1  0.61815500  0.79710300  0.18717900  1
  H  H25  1  0.18675700  0.42707400  0.10252200  1
  H  H26  1  0.68675700  0.92707400  0.10252200  1
  H  H27  1  0.30042000  0.42456000  0.21905700  1
  H  H28  1  0.80042000  0.92456000  0.21905700  1
  H  H29  1  0.30147800  0.59698100  0.39008800  1
  H  H30  1  0.30279400  0.52559700  0.44119300  1
  H  H31  1  0.80147800  0.09698100  0.39008800  1
  H  H32  1  0.80279400  0.02559700  0.44119300  1
  H  H33  1  0.18921400  0.59622300  0.27714100  1
  H  H34  1  0.19031900  0.52515900  0.32848100  1
  H  H35  1  0.68921400  0.09622300  0.27714100  1
  H  H36  1  0.69031900  0.02515900  0.32848100  1
  H  H37  1  0.67959200  0.55011100  0.60014400  1
  H  H38  1  0.17959200  0.05011100  0.60014400  1
  H  H39  1  0.69180000  0.37729500  0.77988800  1
  H  H40  1  0.69092800  0.44813900  0.82956900  1
  H  H41  1  0.19180000  0.87729500  0.77988800  1
  H  H42  1  0.19092800  0.94813900  0.82956900  1
  H  H43  1  0.80411000  0.38081300  0.89109900  1
  H  H44  1  0.80340200  0.45125500  0.94151600  1
  H  H45  1  0.30411000  0.88081300  0.89109900  1
  H  H46  1  0.30340200  0.95125500  0.94151600  1
  H  H47  1  0.07430600  0.05346600  0.88296500  1
  H  H48  1  0.57430600  0.55346600  0.88296500  1
  H  H49  1  0.57290200  0.55430600  0.76787200  1
  H  H50  1  0.07290200  0.05430600  0.76787200  1
  H  H51  1  0.41890500  0.36710000  0.61350400  1
  H  H52  1  0.36318900  0.43396200  0.55460000  1
  H  H53  1  0.91890500  0.86710000  0.61350400  1
  H  H54  1  0.86318900  0.93396200  0.55460000  1
  H  H55  1  0.91799600  0.86959700  0.72496600  1
  H  H56  1  0.86184600  0.93612200  0.66562800  1
  H  H57  1  0.41799600  0.36959700  0.72496600  1
  H  H58  1  0.36184600  0.43612200  0.66562800  1
  H  H59  1  0.07149600  0.92914400  0.26813600  1
  H  H60  1  0.57149600  0.42914400  0.26813600  1
  H  H61  1  0.57154900  0.42735400  0.38153600  1
  H  H62  1  0.07154900  0.92735400  0.38153600  1
  H  H63  1  0.39985200  0.59788300  0.20674300  1
  H  H64  1  0.35038000  0.52630700  0.15847800  1
  H  H65  1  0.89985200  0.09788300  0.20674300  1
  H  H66  1  0.85038000  0.02630700  0.15847800  1
  H  H67  1  0.89786300  0.09610300  0.09234400  1
  H  H68  1  0.84778700  0.02492700  0.04327100  1
  H  H69  1  0.39786300  0.59610300  0.09234400  1
  H  H70  1  0.34778700  0.52492700  0.04327100  1
  H  H71  1  0.74679200  0.62799900  0.62879500  1
  H  H72  1  0.74165400  0.55939600  0.57560900  1
  H  H73  1  0.89957100  0.57144200  0.75462400  1
  H  H74  1  0.96994500  0.61839500  0.75265600  1
  H  H75  1  0.93097500  0.69013900  0.63403600  1
  H  H76  1  0.82003900  0.71465400  0.51630700  1
  H  H77  1  0.74832700  0.66792800  0.51754100  1
  H  H78  1  0.24679200  0.12799900  0.62879500  1
  H  H79  1  0.24165400  0.05939600  0.57560900  1
  H  H80  1  0.39957100  0.07144200  0.75462400  1
  H  H81  1  0.46994500  0.11839500  0.75265600  1
  H  H82  1  0.43097500  0.19013900  0.63403600  1
  H  H83  1  0.32003900  0.21465400  0.51630700  1
  H  H84  1  0.24832700  0.16792800  0.51754100  1
  C  C1  1  0.11210100  0.48470500  0.10964600  1
  C  C2  1  0.61210100  0.98470500  0.10964600  1
  C  C3  1  0.99690200  0.60683700  0.99312000  1
  C  C4  1  0.99000300  0.37039700  0.98921200  1
  C  C5  1  0.49690200  0.10683700  0.99312000  1
  C  C6  1  0.49000300  0.87039700  0.98921200  1
  C  C7  1  0.87474000  0.49293900  0.87250300  1
  C  C8  1  0.37474000  0.99293900  0.87250300  1
  C  C9  1  0.02906700  0.70799100  0.06783100  1
  C  C10  1  0.02606600  0.26984700  0.06555400  1
  C  C11  1  0.52906700  0.20799100  0.06783100  1
  C  C12  1  0.52606600  0.76984700  0.06555400  1
  C  C13  1  0.99714400  0.67412300  0.99229800  1
  C  C14  1  0.98845000  0.30320500  0.98872100  1
  C  C15  1  0.49714400  0.17412300  0.99229800  1
  C  C16  1  0.48845000  0.80320500  0.98872100  1
  C  C17  1  0.96371600  0.70694100  0.91433400  1
  C  C18  1  0.94945300  0.26999300  0.91034700  1
  C  C19  1  0.46371600  0.20694100  0.91433400  1
  C  C20  1  0.44945300  0.76999300  0.91034700  1
  C  C21  1  0.96197800  0.77119900  0.91430500  1
  C  C22  1  0.94857000  0.20572600  0.91162700  1
  C  C23  1  0.46197800  0.27119900  0.91430500  1
  C  C24  1  0.44857000  0.70572600  0.91162700  1
  C  C25  1  0.99613800  0.80335600  0.99283700  1
  C  C26  1  0.98900100  0.17398300  0.99128300  1
  C  C27  1  0.49613800  0.30335600  0.99283700  1
  C  C28  1  0.48900100  0.67398300  0.99128300  1
  C  C29  1  0.02988700  0.76907500  0.06828400  1
  C  C30  1  0.02757300  0.20877700  0.06676100  1
  C  C31  1  0.52988700  0.26907500  0.06828400  1
  C  C32  1  0.52757300  0.70877700  0.06676100  1
  C  C33  1  0.07044800  0.77446400  0.16462800  1
  C  C34  1  0.07695500  0.20429200  0.16448800  1
  C  C35  1  0.57044800  0.27446400  0.16462800  1
  C  C36  1  0.57695500  0.70429200  0.16448800  1
  C  C37  1  0.06995400  0.70252900  0.16433000  1
  C  C38  1  0.07554500  0.27622300  0.16306800  1
  C  C39  1  0.56995400  0.20252900  0.16433000  1
  C  C40  1  0.57554500  0.77622300  0.16306800  1
  C  C41  1  0.21434400  0.51142400  0.25687500  1
  C  C42  1  0.71434400  0.01142400  0.25687500  1
  C  C43  1  0.17957400  0.48251300  0.17707700  1
  C  C44  1  0.67957400  0.98251300  0.17707700  1
  C  C45  1  0.21165800  0.45120800  0.16387200  1
  C  C46  1  0.71165800  0.95120800  0.16387200  1
  C  C47  1  0.27623000  0.44936400  0.23033400  1
  C  C48  1  0.77623000  0.94936400  0.23033400  1
  C  C49  1  0.30931100  0.48108700  0.30899400  1
  C  C50  1  0.80931100  0.98108700  0.30899400  1
  C  C51  1  0.27560000  0.51207300  0.31819900  1
  C  C52  1  0.77560000  0.01207300  0.31819900  1
  C  C53  1  0.28181100  0.55097200  0.38053600  1
  C  C54  1  0.78181100  0.05097200  0.38053600  1
  C  C55  1  0.20965900  0.55052200  0.30812800  1
  C  C56  1  0.70965900  0.05052200  0.30812800  1
  C  C57  1  0.77473800  0.46553900  0.81752500  1
  C  C58  1  0.27473800  0.96553900  0.81752500  1
  C  C59  1  0.80711000  0.49526400  0.80498100  1
  C  C60  1  0.30711000  0.99526400  0.80498100  1
  C  C61  1  0.77266900  0.52632700  0.72497000  1
  C  C62  1  0.27266900  0.02632700  0.72497000  1
  C  C63  1  0.70772200  0.52635500  0.66246100  1
  C  C64  1  0.20772200  0.02635500  0.66246100  1
  C  C65  1  0.67741100  0.49354900  0.67752200  1
  C  C66  1  0.17741100  0.99354900  0.67752200  1
  C  C67  1  0.71354500  0.46328600  0.75648800  1
  C  C68  1  0.21354500  0.96328600  0.75648800  1
  C  C69  1  0.71079200  0.42366200  0.80944600  1
  C  C70  1  0.21079200  0.92366200  0.80944600  1
  C  C71  1  0.78291700  0.42587800  0.88109700  1
  C  C72  1  0.28291700  0.92587800  0.88109700  1
  C  C73  1  0.99613000  0.99072000  0.87913500  1
  C  C74  1  0.49613000  0.49072000  0.87913500  1
  C  C75  1  0.99484800  0.87043100  0.99450400  1
  C  C76  1  0.99051000  0.10678300  0.99413100  1
  C  C77  1  0.49484800  0.37043100  0.99450400  1
  C  C78  1  0.49051000  0.60678300  0.99413100  1
  C  C79  1  0.98949000  0.98593900  0.10958800  1
  C  C80  1  0.48949000  0.48593900  0.10958800  1
  C  C81  1  0.49081100  0.48439600  0.37567800  1
  C  C82  1  0.99081100  0.98439600  0.37567800  1
  C  C83  1  0.37673800  0.48275000  0.37791500  1
  C  C84  1  0.87673800  0.98275000  0.37791500  1
  C  C85  1  0.49586900  0.48935300  0.61415000  1
  C  C86  1  0.99586900  0.98935300  0.61415000  1
  C  C87  1  0.60996000  0.49127600  0.61134700  1
  C  C88  1  0.10996000  0.99127600  0.61134700  1
  C  C89  1  0.95626500  0.95759800  0.73695400  1
  C  C90  1  0.45626500  0.45759800  0.73695400  1
  C  C91  1  0.99771000  0.99120600  0.81327200  1
  C  C92  1  0.49771000  0.49120600  0.81327200  1
  C  C93  1  0.04069600  0.02570900  0.82431200  1
  C  C94  1  0.54069600  0.52570900  0.82431200  1
  C  C95  1  0.53961800  0.52649300  0.75862900  1
  C  C96  1  0.03961800  0.02649300  0.75862900  1
  C  C97  1  0.49742300  0.49054400  0.68321300  1
  C  C98  1  0.99742300  0.99054400  0.68321300  1
  C  C99  1  0.45715800  0.45602300  0.67661800  1
  C  C100  1  0.95715800  0.95602300  0.67661800  1
  C  C101  1  0.40463000  0.41238000  0.61793700  1
  C  C102  1  0.90463000  0.91238000  0.61793700  1
  C  C103  1  0.90385100  0.91392100  0.68928600  1
  C  C104  1  0.40385100  0.41392100  0.68928600  1
  C  C105  1  0.94398800  0.01158200  0.16524100  1
  C  C106  1  0.44398800  0.51158200  0.16524100  1
  C  C107  1  0.98867600  0.98307400  0.17620800  1
  C  C108  1  0.48867600  0.48307400  0.17620800  1
  C  C109  1  0.03516000  0.95277100  0.25587500  1
  C  C110  1  0.53516000  0.45277100  0.25587500  1
  C  C111  1  0.53502100  0.45146500  0.32019800  1
  C  C112  1  0.03502100  0.95146500  0.32019800  1
  C  C113  1  0.49006900  0.48299800  0.30741800  1
  C  C114  1  0.99006900  0.98299800  0.30741800  1
  C  C115  1  0.44557100  0.51289400  0.22820800  1
  C  C116  1  0.94557100  0.01289400  0.22820800  1
  C  C117  1  0.38942700  0.55165500  0.17691200  1
  C  C118  1  0.88942700  0.05165500  0.17691200  1
  C  C119  1  0.88789600  0.05055700  0.10316800  1
  C  C120  1  0.38789600  0.55055700  0.10316800  1
  C  C121  1  0.77328900  0.58983400  0.63431600  1
  C  C122  1  0.81866700  0.61706400  0.63625800  1
  C  C123  1  0.88107400  0.60299100  0.70201700  1
  C  C124  1  0.92121100  0.62934400  0.70106200  1
  C  C125  1  0.89940200  0.66953600  0.63458500  1
  C  C126  1  0.83726700  0.68325900  0.56865900  1
  C  C127  1  0.79705200  0.65699200  0.56945900  1
  C  C128  1  0.27328900  0.08983400  0.63431600  1
  C  C129  1  0.31866700  0.11706400  0.63625800  1
  C  C130  1  0.38107400  0.10299100  0.70201700  1
  C  C131  1  0.42121100  0.12934400  0.70106200  1
  C  C132  1  0.39940200  0.16953600  0.63458500  1
  C  C133  1  0.33726700  0.18325900  0.56865900  1
  C  C134  1  0.29705200  0.15699200  0.56945900  1
  O  O1  1  0.08491100  0.49072500  0.13571000  1
  O  O2  1  0.58491100  0.99072500  0.13571000  1
  O  O3  1  0.08165900  0.48086800  0.02621200  1
  O  O4  1  0.58165900  0.98086800  0.02621200  1
  O  O5  1  0.99887100  0.57899900  0.04889200  1
  O  O6  1  0.99632200  0.39988000  0.04821600  1
  O  O7  1  0.49887100  0.07899900  0.04889200  1
  O  O8  1  0.49632200  0.89988000  0.04821600  1
  O  O9  1  0.99359400  0.57722300  0.93696700  1
  O  O10  1  0.98522700  0.39829800  0.93078000  1
  O  O11  1  0.49359400  0.07722300  0.93696700  1
  O  O12  1  0.48522700  0.89829800  0.93078000  1
  O  O13  1  0.90513500  0.49321000  0.95612900  1
  O  O14  1  0.40513500  0.99321000  0.95612900  1
  O  O15  1  0.90211300  0.48943800  0.84655100  1
  O  O16  1  0.40211300  0.98943800  0.84655100  1
  O  O17  1  0.94222300  0.98457300  0.85125600  1
  O  O18  1  0.44222300  0.48457300  0.85125600  1
  O  O19  1  0.04843000  0.99598600  0.96295400  1
  O  O20  1  0.54843000  0.49598600  0.96295400  1
  O  O21  1  0.94090600  0.89789400  0.93767100  1
  O  O22  1  0.93819600  0.07698600  0.93419300  1
  O  O23  1  0.44090600  0.39789400  0.93767100  1
  O  O24  1  0.43819600  0.57698600  0.93419300  1
  O  O25  1  0.04754300  0.90030700  0.04584600  1
  O  O26  1  0.04452100  0.07929500  0.05022500  1
  O  O27  1  0.54754300  0.40030700  0.04584600  1
  O  O28  1  0.54452100  0.57929500  0.05022500  1
  O  O29  1  0.93693500  0.98536900  0.02558600  1
  O  O30  1  0.43693500  0.48536900  0.02558600  1
  O  O31  1  0.04345700  0.98826600  0.13738300  1
  O  O32  1  0.54345700  0.48826600  0.13738300  1
  O  O33  1  0.47063000  0.53462900  0.38332300  1
  O  O34  1  0.51244100  0.43554700  0.42730800  1
  O  O35  1  0.97063000  0.03462900  0.38332300  1
  O  O36  1  0.01244100  0.93554700  0.42730800  1
  O  O37  1  0.40404300  0.53434700  0.42352200  1
  O  O38  1  0.40715000  0.43301000  0.39081600  1
  O  O39  1  0.90404300  0.03434700  0.42352200  1
  O  O40  1  0.90715000  0.93301000  0.39081600  1
  O  O41  1  0.51214600  0.53977800  0.60042800  1
  O  O42  1  0.47807900  0.43783200  0.56854400  1
  O  O43  1  0.01214600  0.03977800  0.60042800  1
  O  O44  1  0.97807900  0.93783200  0.56854400  1
  O  O45  1  0.57871900  0.54005400  0.56016800  1
  O  O46  1  0.58340300  0.44036100  0.60498500  1
  O  O47  1  0.07871900  0.04005400  0.56016800  1
  O  O48  1  0.08340300  0.94036100  0.60498500  1
  O  O49  1  0.80265300  0.55655500  0.70974400  1
  O  O50  1  0.30265300  0.05655500  0.70974400  1
