# generated using pymatgen
data_FeH9(C7O3)3
_symmetry_space_group_name_H-M   'P 1'
_cell_length_a   15.88472100
_cell_length_b   16.96992900
_cell_length_c   11.81533700
_cell_angle_alpha   71.79999600
_cell_angle_beta   96.70143700
_cell_angle_gamma   98.11878200
_symmetry_Int_Tables_number   1
_chemical_formula_structural   FeH9(C7O3)3
_chemical_formula_sum   'Fe2 H18 C42 O18'
_cell_volume   2986.37545201
_cell_formula_units_Z   2
loop_
 _symmetry_equiv_pos_site_id
 _symmetry_equiv_pos_as_xyz
  1  'x, y, z'
loop_
 _atom_site_type_symbol
 _atom_site_label
 _atom_site_symmetry_multiplicity
 _atom_site_fract_x
 _atom_site_fract_y
 _atom_site_fract_z
 _atom_site_occupancy
  Fe  Fe1  1  0.50741000  0.00492100  0.74716700  1
  Fe  Fe2  1  0.49490900  0.00135300  0.25060000  1
  H  H1  1  0.23589700  0.99915600  0.73600600  1
  H  H2  1  0.17437600  0.01468500  0.12487200  1
  H  H3  1  0.82674000  0.98767700  0.87269900  1
  H  H4  1  0.76979900  0.00745100  0.26180000  1
  H  H5  1  0.91641800  0.01389100  0.21267400  1
  H  H6  1  0.50844300  0.73384300  0.41045400  1
  H  H7  1  0.51790500  0.57314100  0.76965300  1
  H  H8  1  0.52530000  0.69175200  0.84217200  1
  H  H9  1  0.48270800  0.43288300  0.22810800  1
  H  H10  1  0.47525800  0.31426300  0.15555700  1
  H  H11  1  0.49313300  0.27227500  0.58732200  1
  H  H12  1  0.41980300  0.49480100  0.66810700  1
  H  H13  1  0.41034600  0.37496700  0.59584500  1
  H  H14  1  0.58125200  0.51123100  0.32959800  1
  H  H15  1  0.59078700  0.63104800  0.40191700  1
  H  H16  1  0.05886700  0.99355800  0.47276700  1
  H  H17  1  0.98204800  0.03004200  0.54041600  1
  H  H18  1  0.99520000  0.91961500  0.58459000  1
  C  C1  1  0.22171100  0.00204400  0.82171000  1
  C  C2  1  0.13807900  0.99703200  0.84701300  1
  C  C3  1  0.12214400  0.00334300  0.95690000  1
  C  C4  1  0.18919400  0.01189300  0.03937400  1
  C  C5  1  0.27309100  0.01562400  0.01469800  1
  C  C6  1  0.28894400  0.01270000  0.90268000  1
  C  C7  1  0.03705400  0.00219400  0.98812300  1
  C  C8  1  0.96526200  0.00113300  0.01272700  1
  C  C9  1  0.81231100  0.99109700  0.95802500  1
  C  C10  1  0.72870500  0.98864900  0.98330200  1
  C  C11  1  0.71341500  0.99296900  0.09512800  1
  C  C12  1  0.78134300  0.00384300  0.17528500  1
  C  C13  1  0.86388300  0.00683400  0.14838000  1
  C  C14  1  0.87928400  0.99942300  0.04037100  1
  C  C15  1  0.47724500  0.13078500  0.54239800  1
  C  C16  1  0.37468900  0.02212900  0.86324800  1
  C  C17  1  0.66040800  0.98728300  0.88742700  1
  C  C18  1  0.52224500  0.85216200  0.71886200  1
  C  C19  1  0.47883600  0.15389600  0.27891100  1
  C  C20  1  0.34117100  0.01704300  0.11101800  1
  C  C21  1  0.62775800  0.98368600  0.13504300  1
  C  C22  1  0.52444900  0.87530200  0.45541700  1
  C  C23  1  0.52019700  0.79344300  0.54597900  1
  C  C24  1  0.51300400  0.72444500  0.50561000  1
  C  C25  1  0.51178200  0.64475900  0.58453500  1
  C  C26  1  0.51694200  0.63450400  0.70553700  1
  C  C27  1  0.52235800  0.70267500  0.74678200  1
  C  C28  1  0.52359700  0.78287600  0.66840500  1
  C  C29  1  0.45654200  0.49881400  0.59470000  1
  C  C30  1  0.45119600  0.43049500  0.55354800  1
  C  C31  1  0.49517600  0.43410500  0.45737900  1
  C  C32  1  0.54454000  0.50722800  0.40302900  1
  C  C33  1  0.54991400  0.57553800  0.44420600  1
  C  C34  1  0.50592100  0.57193900  0.54036700  1
  C  C35  1  0.48386700  0.37153100  0.29220700  1
  C  C36  1  0.47841200  0.30335700  0.25095800  1
  C  C37  1  0.47749100  0.22318200  0.32936200  1
  C  C38  1  0.48120900  0.21263400  0.45180900  1
  C  C39  1  0.48837300  0.28163500  0.49216500  1
  C  C40  1  0.48931400  0.36129300  0.41321700  1
  C  C41  1  0.06967900  0.98627000  0.75487200  1
  C  C42  1  0.02848800  0.98388100  0.55665200  1
  O  O1  1  0.53590500  0.11607900  0.63206700  1
  O  O2  1  0.42772800  0.08869300  0.86435200  1
  O  O3  1  0.40996800  0.07607500  0.54241400  1
  O  O4  1  0.39375900  0.96986800  0.81099500  1
  O  O5  1  0.58246300  0.00035000  0.89743900  1
  O  O6  1  0.67931300  0.98031600  0.78605300  1
  O  O7  1  0.52120000  0.92971600  0.65060900  1
  O  O8  1  0.51672600  0.83550100  0.83409800  1
  O  O9  1  0.48130500  0.07654900  0.34736100  1
  O  O10  1  0.48319900  0.17043700  0.16345800  1
  O  O11  1  0.41979600  0.00625000  0.10017200  1
  O  O12  1  0.32164300  0.02222700  0.21314900  1
  O  O13  1  0.59191400  0.92978300  0.45549200  1
  O  O14  1  0.60864900  0.03614200  0.18695200  1
  O  O15  1  0.46593800  0.89016900  0.36556900  1
  O  O16  1  0.57445800  0.91735100  0.13360200  1
  O  O17  1  0.99529900  0.96804800  0.77805400  1
  O  O18  1  0.09009400  0.99451000  0.64380600  1
