# generated using pymatgen
data_Zn6H31C56(IO8)3
_symmetry_space_group_name_H-M   'P 1'
_cell_length_a   18.98982600
_cell_length_b   18.96179500
_cell_length_c   19.02682100
_cell_angle_alpha   70.87939600
_cell_angle_beta   70.30222100
_cell_angle_gamma   109.49964800
_symmetry_Int_Tables_number   1
_chemical_formula_structural   Zn6H31C56(IO8)3
_chemical_formula_sum   'Zn6 H31 C56 I3 O24'
_cell_volume   5280.16806891
_cell_formula_units_Z   1
loop_
 _symmetry_equiv_pos_site_id
 _symmetry_equiv_pos_as_xyz
  1  'x, y, z'
loop_
 _atom_site_type_symbol
 _atom_site_label
 _atom_site_symmetry_multiplicity
 _atom_site_fract_x
 _atom_site_fract_y
 _atom_site_fract_z
 _atom_site_occupancy
  Zn  Zn1  1  0.93649000  0.51226700  0.05993100  1
  Zn  Zn2  1  0.07168700  0.50908800  0.92190700  1
  Zn  Zn3  1  0.06358400  0.07544400  0.49400800  1
  Zn  Zn4  1  0.92524300  0.94086800  0.49080900  1
  Zn  Zn5  1  0.49444000  0.07698800  0.92537900  1
  Zn  Zn6  1  0.50581800  0.94905300  0.06019500  1
  H  H1  1  0.04162600  0.90166300  0.72442400  1
  H  H2  1  0.94827000  0.75370500  0.69902800  1
  H  H3  1  0.02524800  0.69878400  0.74447600  1
  H  H4  1  0.88213400  0.38594000  0.84803200  1
  H  H5  1  0.76533700  0.27742600  0.84871100  1
  H  H6  1  0.56197600  0.16278100  0.17439600  1
  H  H7  1  0.61640100  0.09578000  0.18302000  1
  H  H8  1  0.67468200  0.27213700  0.17416500  1
  H  H9  1  0.72984600  0.20581800  0.18152000  1
  H  H10  1  0.00433900  0.24617500  0.11279500  1
  H  H11  1  0.00297100  0.13405000  0.22530200  1
  H  H12  1  0.93669200  0.26644600  0.42341800  1
  H  H13  1  0.05832200  0.33273500  0.36197700  1
  H  H14  1  0.93095300  0.37402500  0.31602000  1
  H  H15  1  0.05260600  0.43982000  0.25385900  1
  H  H16  1  0.29707400  0.68152800  0.91709300  1
  H  H17  1  0.18341000  0.87550300  0.05914400  1
  H  H18  1  0.05588000  0.68040400  0.15816000  1
  H  H19  1  0.07281700  0.76510600  0.05787000  1
  H  H20  1  0.12627500  0.01703800  0.22587700  1
  H  H21  1  0.24202900  0.02184000  0.11246700  1
  H  H22  1  0.34737600  0.91774000  0.32831000  1
  H  H23  1  0.41580600  0.03831500  0.27521000  1
  H  H24  1  0.23588100  0.91952400  0.43733200  1
  H  H25  1  0.30476100  0.04011400  0.38442300  1
  H  H26  1  0.73632400  0.02181900  0.61183500  1
  H  H27  1  0.62851500  0.02728700  0.72295800  1
  H  H28  1  0.81989500  0.06524400  0.86626900  1
  H  H29  1  0.75631500  0.94387700  0.92232900  1
  H  H30  1  0.93012900  0.06633700  0.75314200  1
  H  H31  1  0.86617400  0.94502500  0.80878000  1
  C  C1  1  0.88398400  0.39620900  0.98678200  1
  C  C2  1  0.01098300  0.63492700  0.87071200  1
  C  C3  1  0.12416700  0.62547900  0.99492700  1
  C  C4  1  0.99835100  0.38751200  0.11079800  1
  C  C5  1  0.01457500  0.83686300  0.73412700  1
  C  C6  1  0.98303600  0.81938300  0.68506400  1
  C  C7  1  0.00787300  0.76967300  0.80668600  1
  C  C8  1  0.01242900  0.70185000  0.80302700  1
  C  C9  1  0.73976500  0.26910300  0.05842800  1
  C  C10  1  0.81549300  0.33363500  0.98473900  1
  C  C11  1  0.82400700  0.33606000  0.90836600  1
  C  C12  1  0.75740300  0.27503000  0.90858500  1
  C  C13  1  0.68335100  0.20875600  0.98553500  1
  C  C14  1  0.67845500  0.20886300  0.05899000  1
  C  C15  1  0.62261500  0.16019400  0.15378100  1
  C  C16  1  0.69513700  0.23076900  0.15317800  1
  C  C17  1  0.99689500  0.32375500  0.24775100  1
  C  C18  1  0.99873300  0.32073000  0.17617300  1
  C  C19  1  0.00297500  0.25204400  0.16780100  1
  C  C20  1  0.00207500  0.18836700  0.23170900  1
  C  C21  1  0.00212900  0.19531200  0.30210700  1
  C  C22  1  0.00100200  0.26579600  0.30602300  1
  C  C23  1  0.99747700  0.30673900  0.36049700  1
  C  C24  1  0.99362400  0.37551400  0.29142700  1
  C  C25  1  0.17323000  0.73138300  0.04071400  1
  C  C26  1  0.19191100  0.68977900  0.99632900  1
  C  C27  1  0.27802600  0.71230200  0.95279600  1
  C  C28  1  0.34119800  0.77502200  0.95441300  1
  C  C29  1  0.31911000  0.81676500  0.99865000  1
  C  C30  1  0.23348600  0.79177700  0.04109200  1
  C  C31  1  0.17263100  0.80995600  0.09464100  1
  C  C32  1  0.10157000  0.73906500  0.09412500  1
  C  C33  1  0.11158300  0.00210000  0.37683800  1
  C  C34  1  0.98930000  0.88813300  0.61491300  1
  C  C35  1  0.87740000  0.01412500  0.60807800  1
  C  C36  1  0.99890600  0.12801100  0.37043300  1
  C  C37  1  0.62165800  0.01865200  0.86999200  1
  C  C38  1  0.61685700  0.13847400  0.98916000  1
  C  C39  1  0.37805600  0.00710600  0.11550100  1
  C  C40  1  0.38394200  0.88750900  0.99603300  1
  C  C41  1  0.24480800  0.99446600  0.31799300  1
  C  C42  1  0.17822800  0.00210500  0.31025200  1
  C  C43  1  0.17717800  0.01042200  0.23547800  1
  C  C44  1  0.24324600  0.01371000  0.17091200  1
  C  C45  1  0.30867700  0.00421000  0.18233100  1
  C  C46  1  0.30514400  0.99296200  0.25863200  1
  C  C47  1  0.35106800  0.98138600  0.30714500  1
  C  C48  1  0.27970800  0.98262200  0.37719800  1
  C  C49  1  0.81495800  0.01288900  0.74523600  1
  C  C50  1  0.81121200  0.01516400  0.67391800  1
  C  C51  1  0.74207800  0.01920400  0.66713400  1
  C  C52  1  0.68131800  0.02292900  0.72996000  1
  C  C53  1  0.68648800  0.01784200  0.80244100  1
  C  C54  1  0.75468500  0.01164600  0.80725000  1
  C  C55  1  0.79568400  0.00618200  0.86128800  1
  C  C56  1  0.86636600  0.00702400  0.78850300  1
  I  I1  1  0.47062600  0.80722900  0.88664000  1
  I  I2  1  0.16034800  0.77022400  0.21877600  1
  I  I3  1  0.01071300  0.79654500  0.90554000  1
  O  O1  1  0.86188300  0.42224500  0.04243700  1
  O  O2  1  0.96441000  0.42433100  0.93228000  1
  O  O3  1  0.95877100  0.60671500  0.95187800  1
  O  O4  1  0.05952200  0.60265700  0.84609000  1
  O  O5  1  0.04377200  0.59874400  0.04796000  1
  O  O6  1  0.14634200  0.59765900  0.94081300  1
  O  O7  1  0.95018400  0.42009900  0.13577500  1
  O  O8  1  0.04792000  0.41322900  0.02980800  1
  O  O9  1  0.13559400  0.05251300  0.40768100  1
  O  O10  1  0.03081800  0.95356600  0.40085900  1
  O  O11  1  0.04241800  0.96834100  0.58865600  1
  O  O12  1  0.94026500  0.86618500  0.58232900  1
  O  O13  1  0.95806400  0.06227900  0.58444600  1
  O  O14  1  0.85327300  0.96423300  0.57671200  1
  O  O15  1  0.04793700  0.15017200  0.40305800  1
  O  O16  1  0.94683300  0.04789400  0.39575100  1
  O  O17  1  0.58631400  0.06398400  0.84713800  1
  O  O18  1  0.59929400  0.97162400  0.95030800  1
  O  O19  1  0.58682700  0.15673900  0.93677800  1
  O  O20  1  0.59121300  0.05965200  0.04431500  1
  O  O21  1  0.40180800  0.05530800  0.03515300  1
  O  O22  1  0.41273200  0.96090000  0.13854900  1
  O  O23  1  0.40793100  0.96638400  0.94230200  1
  O  O24  1  0.41462000  0.86922800  0.04772800  1
