# generated using pymatgen
data_Fe2H19C42N7O17
_symmetry_space_group_name_H-M   'P 1'
_cell_length_a   14.33534000
_cell_length_b   9.32838200
_cell_length_c   19.52112400
_cell_angle_alpha   88.66477200
_cell_angle_beta   90.05104100
_cell_angle_gamma   110.33316800
_symmetry_Int_Tables_number   1
_chemical_formula_structural   Fe2H19C42N7O17
_chemical_formula_sum   'Fe2 H19 C42 N7 O17'
_cell_volume   2447.07172607
_cell_formula_units_Z   1
loop_
 _symmetry_equiv_pos_site_id
 _symmetry_equiv_pos_as_xyz
  1  'x, y, z'
loop_
 _atom_site_type_symbol
 _atom_site_label
 _atom_site_symmetry_multiplicity
 _atom_site_fract_x
 _atom_site_fract_y
 _atom_site_fract_z
 _atom_site_occupancy
  Fe  Fe1  1  0.52155200  0.04403700  0.19783400  1
  Fe  Fe2  1  0.47623800  0.96624700  0.81472700  1
  H  H1  1  0.89903100  0.17942700  0.21806700  1
  H  H2  1  0.74496100  0.75676000  0.80999600  1
  H  H3  1  0.91117000  0.72725800  0.81431900  1
  H  H4  1  0.10245300  0.81646800  0.78906300  1
  H  H5  1  0.30362700  0.94131500  0.00524200  1
  H  H6  1  0.25964600  0.24748300  0.19140200  1
  H  H7  1  0.08991900  0.27074600  0.18952400  1
  H  H8  1  0.01937600  0.86085700  0.99320700  1
  H  H9  1  0.97619600  0.12513900  0.01401200  1
  H  H10  1  0.49527100  0.24479900  0.61982700  1
  H  H11  1  0.49784300  0.70282800  0.58860500  1
  H  H12  1  0.50184900  0.76606600  0.39328000  1
  H  H13  1  0.49609000  0.30630100  0.42391900  1
  H  H14  1  0.45506100  0.50285100  0.78784700  1
  H  H15  1  0.53715400  0.50583900  0.22461200  1
  H  H16  1  0.64527600  0.11147900  0.98529800  1
  H  H17  1  0.47801200  0.97116100  0.00224500  1
  H  H18  1  0.45118500  0.80839800  0.06073700  1
  H  H19  1  0.45530300  0.78153700  0.96971700  1
  C  C1  1  0.72585800  0.89886900  0.89292800  1
  C  C2  1  0.77226000  0.81980300  0.85598600  1
  C  C3  1  0.86150200  0.84123800  0.88720400  1
  C  C4  1  0.78790500  0.96125400  0.94759000  1
  C  C5  1  0.92865600  0.78817000  0.86194000  1
  C  C6  1  0.03068200  0.82915200  0.88643600  1
  C  C7  1  0.10778500  0.83764200  0.84339400  1
  C  C8  1  0.19260200  0.88398800  0.88196000  1
  C  C9  1  0.16384300  0.90100800  0.94827200  1
  C  C10  1  0.23138200  0.95346600  0.00678600  1
  C  C11  1  0.21093500  0.02966700  0.05823900  1
  C  C12  1  0.27543000  0.09775300  0.11049600  1
  C  C13  1  0.23026900  0.17986600  0.14693600  1
  C  C14  1  0.13904700  0.15422400  0.11734400  1
  C  C15  1  0.07125200  0.20616800  0.14292400  1
  C  C16  1  0.96756000  0.16011700  0.12033800  1
  C  C17  1  0.89163200  0.15344500  0.16421800  1
  C  C18  1  0.80511600  0.10530100  0.12717100  1
  C  C19  1  0.83205500  0.08382700  0.06023800  1
  C  C20  1  0.76395200  0.02832200  0.00138500  1
  C  C21  1  0.70927600  0.07984200  0.16171200  1
  C  C22  1  0.52410900  0.77563600  0.25487500  1
  C  C23  1  0.37610000  0.10080100  0.12571900  1
  C  C24  1  0.51450500  0.25007900  0.29513500  1
  C  C25  1  0.47599900  0.36005300  0.70950200  1
  C  C26  1  0.48979600  0.34864700  0.63987300  1
  C  C27  1  0.49360900  0.46817400  0.59503600  1
  C  C28  1  0.48992300  0.60326800  0.62072500  1
  C  C29  1  0.47473200  0.61372500  0.68960500  1
  C  C30  1  0.46485500  0.49132300  0.73364400  1
  C  C31  1  0.50621700  0.66169100  0.37304700  1
  C  C32  1  0.51903100  0.64992000  0.30332500  1
  C  C33  1  0.52829800  0.51781800  0.27890200  1
  C  C34  1  0.51817400  0.39535600  0.32280400  1
  C  C35  1  0.50405900  0.40592500  0.39183400  1
  C  C36  1  0.50166600  0.54157700  0.41773000  1
  C  C37  1  0.62694400  0.89775100  0.87372400  1
  C  C38  1  0.47911900  0.75999100  0.71682900  1
  C  C39  1  0.29023600  0.91724700  0.85021500  1
  C  C40  1  0.47139500  0.23439800  0.75801800  1
  C  C41  1  0.59649200  0.88406400  0.01672900  1
  C  C42  1  0.48849000  0.86026900  0.01190700  1
  N  N1  1  0.87190000  0.92716800  0.94316200  1
  N  N2  1  0.06397900  0.86639900  0.95047000  1
  N  N3  1  0.12690600  0.06359500  0.06290100  1
  N  N4  1  0.93217300  0.11958800  0.05703500  1
  N  N5  1  0.50132300  0.45005100  0.52372100  1
  N  N6  1  0.49428000  0.55967400  0.48906700  1
  N  N7  1  0.66535700  0.02480600  0.00677400  1
  O  O1  1  0.62773400  0.07083600  0.12895600  1
  O  O2  1  0.55874300  0.77595100  0.19266300  1
  O  O3  1  0.70708200  0.07592400  0.22894200  1
  O  O4  1  0.49380800  0.88741800  0.27263100  1
  O  O5  1  0.39159500  0.97650600  0.14784500  1
  O  O6  1  0.44410600  0.23411600  0.13731500  1
  O  O7  1  0.56961100  0.24891400  0.24177300  1
  O  O8  1  0.44678900  0.12302400  0.31781000  1
  O  O9  1  0.60719000  0.02441100  0.86337700  1
  O  O10  1  0.56286200  0.76806400  0.85347700  1
  O  O11  1  0.42256900  0.76351400  0.76903800  1
  O  O12  1  0.55011300  0.88524000  0.69588200  1
  O  O13  1  0.43239100  0.23024600  0.81912300  1
  O  O14  1  0.37227100  0.94237300  0.88511000  1
  O  O15  1  0.50606800  0.12634700  0.74133100  1
  O  O16  1  0.29521300  0.91815700  0.78310300  1
  O  O17  1  0.62265200  0.77585000  0.03092800  1
