# generated using pymatgen
data_Zn6H32C62O27
_symmetry_space_group_name_H-M   'P 1'
_cell_length_a   18.84540600
_cell_length_b   18.95761900
_cell_length_c   18.92111200
_cell_angle_alpha   109.62702400
_cell_angle_beta   109.39828000
_cell_angle_gamma   109.34544700
_symmetry_Int_Tables_number   1
_chemical_formula_structural   Zn6H32C62O27
_chemical_formula_sum   'Zn6 H32 C62 O27'
_cell_volume   5206.44890025
_cell_formula_units_Z   1
loop_
 _symmetry_equiv_pos_site_id
 _symmetry_equiv_pos_as_xyz
  1  'x, y, z'
loop_
 _atom_site_type_symbol
 _atom_site_label
 _atom_site_symmetry_multiplicity
 _atom_site_fract_x
 _atom_site_fract_y
 _atom_site_fract_z
 _atom_site_occupancy
  Zn  Zn1  1  0.49842500  0.56516300  0.56445300  1
  Zn  Zn2  1  0.50116200  0.42551400  0.42942100  1
  Zn  Zn3  1  0.06292300  0.99762200  0.56436400  1
  Zn  Zn4  1  0.92866600  0.99688400  0.42077400  1
  Zn  Zn5  1  0.93190500  0.43152700  0.99749700  1
  Zn  Zn6  1  0.07368100  0.56787200  0.99837800  1
  H  H1  1  0.65314200  0.59601300  0.36011700  1
  H  H2  1  0.76219400  0.71053000  0.35879400  1
  H  H3  1  0.88753200  0.91279500  0.68878100  1
  H  H4  1  0.80641300  0.94353700  0.63973900  1
  H  H5  1  0.77624600  0.80253500  0.69073300  1
  H  H6  1  0.10842800  0.35609000  0.12835400  1
  H  H7  1  0.27450300  0.62639700  0.24693500  1
  H  H8  1  0.38114700  0.62249500  0.35988800  1
  H  H9  1  0.37975200  0.23673300  0.50677400  1
  H  H10  1  0.26614000  0.12563600  0.50630900  1
  H  H11  1  0.12380000  0.25964800  0.49399200  1
  H  H12  1  0.24016800  0.37370300  0.50083600  1
  H  H13  1  0.76792300  0.50147000  0.62390400  1
  H  H14  1  0.88238500  0.50641300  0.73863400  1
  H  H15  1  0.74322400  0.50741700  0.87631500  1
  H  H16  1  0.63192100  0.50879700  0.76466400  1
  H  H17  1  0.00937100  0.87623600  0.23858700  1
  H  H18  1  0.01332300  0.76580200  0.12882500  1
  H  H19  1  0.00100500  0.62310400  0.26149200  1
  H  H20  1  0.00333300  0.73669300  0.37459600  1
  H  H21  1  0.85773600  0.23965300  0.73559800  1
  H  H22  1  0.13365200  0.37065900  0.86077600  1
  H  H23  1  0.12634200  0.25512300  0.74542500  1
  H  H24  1  0.82439600  0.13954900  0.49141800  1
  H  H25  1  0.65887800  0.01683400  0.40601800  1
  H  H26  1  0.63229100  0.97224500  0.51651800  1
  H  H27  1  0.62405300  0.83449400  0.51558200  1
  H  H28  1  0.51283800  0.86178800  0.56179400  1
  H  H29  1  0.55629200  0.86751400  0.71213600  1
  H  H30  1  0.13081800  0.23606000  0.09511800  1
  H  H31  1  0.12274900  0.11889900  0.14347300  1
  H  H32  1  0.21370200  0.20433600  0.31380600  1
  C  C1  1  0.37478700  0.48834100  0.37531100  1
  C  C2  1  0.61506700  0.61202500  0.48964800  1
  C  C3  1  0.62420700  0.50180800  0.61846000  1
  C  C4  1  0.38450600  0.37888300  0.50416800  1
  C  C5  1  0.73012900  0.76222000  0.55410600  1
  C  C6  1  0.67915500  0.67861300  0.48664800  1
  C  C7  1  0.69169700  0.66051800  0.41562300  1
  C  C8  1  0.75314100  0.72557100  0.41443000  1
  C  C9  1  0.80465600  0.80860500  0.48532800  1
  C  C10  1  0.79061800  0.82302700  0.55400100  1
  C  C11  1  0.82052300  0.89165700  0.64147200  1
  C  C12  1  0.74960500  0.82018200  0.64187100  1
  C  C13  1  0.23065200  0.41028700  0.24063600  1
  C  C14  1  0.16945200  0.41384000  0.17864100  1
  C  C15  1  0.18506900  0.49091000  0.18024700  1
  C  C16  1  0.26186800  0.56553300  0.24469100  1
  C  C17  1  0.32150000  0.56341900  0.30884900  1
  C  C18  1  0.30702700  0.48637400  0.30707300  1
  C  C19  1  0.32398900  0.24235100  0.50485100  1
  C  C20  1  0.26026800  0.18008500  0.50508300  1
  C  C21  1  0.18761700  0.18546900  0.49996100  1
  C  C22  1  0.18026600  0.25472400  0.49752100  1
  C  C23  1  0.24621900  0.31938800  0.50225300  1
  C  C24  1  0.31755200  0.31267200  0.50455200  1
  C  C25  1  0.76268300  0.50358300  0.67967500  1
  C  C26  1  0.82749200  0.50705000  0.74462400  1
  C  C27  1  0.82016400  0.50722800  0.81485400  1
  C  C28  1  0.74927200  0.50693100  0.82133200  1
  C  C29  1  0.68691400  0.50836400  0.75876900  1
  C  C30  1  0.69273500  0.50517900  0.68707300  1
  C  C31  1  0.00344000  0.87942700  0.37876300  1
  C  C32  1  0.87333600  0.87641800  0.48848100  1
  C  C33  1  0.98766200  0.11512500  0.60644300  1
  C  C34  1  0.11832400  0.11789100  0.49656800  1
  C  C35  1  0.00564400  0.61956200  0.12039900  1
  C  C36  1  0.11936400  0.49351600  0.11475000  1
  C  C37  1  0.99990700  0.37977000  0.87541000  1
  C  C38  1  0.88629000  0.50582300  0.88114200  1
  C  C39  1  0.00831300  0.82106900  0.24424000  1
  C  C40  1  0.01120100  0.75919900  0.18276000  1
  C  C41  1  0.00732500  0.68732200  0.18805200  1
  C  C42  1  0.00361700  0.67903200  0.25666700  1
  C  C43  1  0.00562400  0.74331100  0.32071900  1
  C  C44  1  0.00645500  0.81371000  0.31380400  1
  C  C45  1  0.91175800  0.18088400  0.66880900  1
  C  C46  1  0.91680700  0.24296800  0.73762000  1
  C  C47  1  0.99604200  0.31191400  0.80582000  1
  C  C48  1  0.07115900  0.31710700  0.80723400  1
  C  C49  1  0.06688500  0.25179800  0.74220000  1
  C  C50  1  0.98769000  0.18387400  0.67208300  1
  C  C51  1  0.82506900  0.11272800  0.59637600  1
  C  C52  1  0.79155100  0.10310600  0.51505200  1
  C  C53  1  0.70686600  0.04130000  0.47179000  1
  C  C54  1  0.69403700  0.01882200  0.53015500  1
  C  C55  1  0.67718900  0.83670100  0.63996200  1
  C  C56  1  0.62275200  0.84104300  0.57407400  1
  C  C57  1  0.56577600  0.85480600  0.59746100  1
  C  C58  1  0.58918300  0.85760500  0.67571000  1
  C  C59  1  0.21079400  0.32664800  0.23649000  1
  C  C60  1  0.16038900  0.24826900  0.16075700  1
  C  C61  1  0.15638200  0.18814900  0.18519000  1
  C  C62  1  0.20410000  0.23362300  0.27393900  1
  O  O1  1  0.40345200  0.54370800  0.45589500  1
  O  O2  1  0.40647900  0.43779300  0.35325800  1
  O  O3  1  0.58618600  0.63658700  0.54225900  1
  O  O4  1  0.58916900  0.53079500  0.43969100  1
  O  O5  1  0.59066800  0.55033500  0.64052700  1
  O  O6  1  0.59872300  0.44968600  0.53784000  1
  O  O7  1  0.40767800  0.45979300  0.55141600  1
  O  O8  1  0.41599300  0.35425900  0.45416800  1
  O  O9  1  0.05024800  0.90455200  0.46063600  1
  O  O10  1  0.95373300  0.91022200  0.35193600  1
  O  O11  1  0.95378900  0.90506000  0.54445000  1
  O  O12  1  0.85175800  0.90528800  0.43528400  1
  O  O13  1  0.04052200  0.08715100  0.63325900  1
  O  O14  1  0.93896800  0.08759900  0.52441900  1
  O  O15  1  0.13980400  0.08656800  0.54727500  1
  O  O16  1  0.03773700  0.09194200  0.44326900  1
  O  O17  1  0.95343800  0.53888200  0.09394700  1
  O  O18  1  0.05573300  0.64244200  0.08859800  1
  O  O19  1  0.03744000  0.44248400  0.08653900  1
  O  O20  1  0.14517600  0.54691400  0.08738100  1
  O  O21  1  0.94660400  0.35697100  0.90407800  1
  O  O22  1  0.05541100  0.46039600  0.90502200  1
  O  O23  1  0.86067600  0.45574900  0.91178600  1
  O  O24  1  0.96802300  0.55353900  0.90600100  1
  O  O25  1  0.76548700  0.06312700  0.60672200  1
  O  O26  1  0.65697400  0.84634300  0.70193400  1
  O  O27  1  0.23730700  0.31805900  0.30574600  1
