# generated using pymatgen
data_FeH9C21NO9
_symmetry_space_group_name_H-M   'P 1'
_cell_length_a   13.12020700
_cell_length_b   12.37702100
_cell_length_c   13.05528100
_cell_angle_alpha   80.52449000
_cell_angle_beta   100.59452500
_cell_angle_gamma   117.87296000
_symmetry_Int_Tables_number   1
_chemical_formula_structural   FeH9C21NO9
_chemical_formula_sum   'Fe2 H18 C42 N2 O18'
_cell_volume   1834.56873690
_cell_formula_units_Z   2
loop_
 _symmetry_equiv_pos_site_id
 _symmetry_equiv_pos_as_xyz
  1  'x, y, z'
loop_
 _atom_site_type_symbol
 _atom_site_label
 _atom_site_symmetry_multiplicity
 _atom_site_fract_x
 _atom_site_fract_y
 _atom_site_fract_z
 _atom_site_occupancy
  Fe  Fe1  1  0.51097700  0.02628400  0.21429800  1
  Fe  Fe2  1  0.51675600  0.03752200  0.77315300  1
  H  H1  1  0.09828800  0.96854600  0.74109400  1
  H  H2  1  0.75971400  0.96311600  0.80174400  1
  H  H3  1  0.20402500  0.95805100  0.19892300  1
  H  H4  1  0.05535000  0.96351700  0.27439200  1
  H  H5  1  0.88205700  0.97913900  0.25871300  1
  H  H6  1  0.41195200  0.85488700  0.51166500  1
  H  H7  1  0.48055500  0.59577100  0.72817600  1
  H  H8  1  0.54031200  0.17545100  0.47603000  1
  H  H9  1  0.45971300  0.59693400  0.30573000  1
  H  H10  1  0.50615000  0.44509600  0.67283400  1
  H  H11  1  0.51592100  0.43363900  0.17363000  1
  H  H12  1  0.38769300  0.42968200  0.02778600  1
  H  H13  1  0.25913300  0.43656200  0.04998900  1
  H  H14  1  0.25781100  0.28943900  0.05249100  1
  H  H15  1  0.86754800  0.00861300  0.65455500  1
  H  H16  1  0.86011300  0.86962800  0.50623700  1
  H  H17  1  0.72289800  0.83634900  0.54706000  1
  H  H18  1  0.76457800  0.71486900  0.55388900  1
  C  C1  1  0.21107100  0.98188700  0.88315600  1
  C  C2  1  0.10772000  0.96990200  0.82466500  1
  C  C3  1  0.01911700  0.96678600  0.87009800  1
  C  C4  1  0.91889000  0.96138500  0.80913800  1
  C  C5  1  0.83490500  0.96763600  0.85378700  1
  C  C6  1  0.22325200  0.98487000  0.99157400  1
  C  C7  1  0.12980000  0.97268000  0.03807600  1
  C  C8  1  0.03061400  0.97014900  0.97663100  1
  C  C9  1  0.94383200  0.97316600  0.02170500  1
  C  C10  1  0.84694000  0.97636000  0.96044500  1
  C  C11  1  0.76235900  0.98392600  0.00704000  1
  C  C12  1  0.13507100  0.96669500  0.14583200  1
  C  C13  1  0.04832700  0.96713100  0.19021900  1
  C  C14  1  0.95425900  0.97322800  0.12844800  1
  C  C15  1  0.87068500  0.97806400  0.17473600  1
  C  C16  1  0.77570600  0.98589000  0.11526600  1
  C  C17  1  0.69166400  0.99416600  0.17069300  1
  C  C18  1  0.44378700  0.80028000  0.34251000  1
  C  C19  1  0.33749500  0.01923000  0.05465300  1
  C  C20  1  0.48707500  0.21109800  0.28090300  1
  C  C21  1  0.46317000  0.80449900  0.71226200  1
  C  C22  1  0.65764300  0.98432300  0.94333300  1
  C  C23  1  0.51403900  0.24363100  0.64311200  1
  C  C24  1  0.30246100  0.99025800  0.82548700  1
  C  C25  1  0.43447700  0.72339100  0.44318500  1
  C  C26  1  0.42450600  0.77324900  0.52613700  1
  C  C27  1  0.44255800  0.72937200  0.62799000  1
  C  C28  1  0.46368800  0.62885800  0.64809700  1
  C  C29  1  0.46650300  0.57214400  0.56681400  1
  C  C30  1  0.45343300  0.61846700  0.46369100  1
  C  C31  1  0.49004800  0.47278200  0.59127600  1
  C  C32  1  0.49666900  0.41310000  0.51395300  1
  C  C33  1  0.48387400  0.45780900  0.41015700  1
  C  C34  1  0.46521000  0.56162100  0.38605700  1
  C  C35  1  0.51813200  0.31099800  0.53858900  1
  C  C36  1  0.53076500  0.25891000  0.45930200  1
  C  C37  1  0.51301700  0.29845800  0.35631200  1
  C  C38  1  0.48730700  0.39678400  0.33068200  1
  C  C39  1  0.34977900  0.38653500  0.18720400  1
  C  C40  1  0.31165900  0.38559000  0.07223700  1
  C  C41  1  0.85514800  0.83982800  0.67130800  1
  C  C42  1  0.79698700  0.81359200  0.56273300  1
  N  N1  1  0.46394700  0.43313800  0.22408600  1
  N  N2  1  0.90275400  0.95509200  0.69990400  1
  O  O1  1  0.62668200  0.04751100  0.12485400  1
  O  O2  1  0.40779700  0.75451100  0.25151400  1
  O  O3  1  0.68448200  0.95082700  0.26911900  1
  O  O4  1  0.48775400  0.91943800  0.34733900  1
  O  O5  1  0.35374200  0.94393700  0.13196800  1
  O  O6  1  0.42081800  0.13109800  0.03997800  1
  O  O7  1  0.57147100  0.19846600  0.25186700  1
  O  O8  1  0.38299900  0.11878100  0.27476200  1
  O  O9  1  0.42276700  0.88600700  0.69663400  1
  O  O10  1  0.54280300  0.80935300  0.79045400  1
  O  O11  1  0.66798000  0.06253800  0.85996100  1
  O  O12  1  0.55413500  0.90334200  0.96709800  1
  O  O13  1  0.27776400  0.97431000  0.72538900  1
  O  O14  1  0.57117600  0.17763700  0.66487900  1
  O  O15  1  0.40895300  0.01866600  0.87049000  1
  O  O16  1  0.43373800  0.22427300  0.70023800  1
  O  O17  1  0.27693200  0.34437400  0.24777000  1
  O  O18  1  0.85928700  0.75685500  0.73400600  1
