# generated using pymatgen
data_Cu3H32(C25O6)2
_symmetry_space_group_name_H-M   'P 1'
_cell_length_a   19.02876100
_cell_length_b   19.14972400
_cell_length_c   19.46450400
_cell_angle_alpha   112.17308000
_cell_angle_beta   111.92740700
_cell_angle_gamma   103.54825300
_symmetry_Int_Tables_number   1
_chemical_formula_structural   Cu3H32(C25O6)2
_chemical_formula_sum   'Cu6 H64 C100 O24'
_cell_volume   5481.21669803
_cell_formula_units_Z   2
loop_
 _symmetry_equiv_pos_site_id
 _symmetry_equiv_pos_as_xyz
  1  'x, y, z'
loop_
 _atom_site_type_symbol
 _atom_site_label
 _atom_site_symmetry_multiplicity
 _atom_site_fract_x
 _atom_site_fract_y
 _atom_site_fract_z
 _atom_site_occupancy
  Cu  Cu1  1  0.99465700  0.55141200  0.05439800  1
  Cu  Cu2  1  0.00164000  0.43173600  0.93805600  1
  Cu  Cu3  1  0.55885000  0.54418600  0.49108200  1
  Cu  Cu4  1  0.44507700  0.43654000  0.49129500  1
  Cu  Cu5  1  0.43369300  0.98689200  0.92958400  1
  Cu  Cu6  1  0.56016100  0.98682500  0.05042900  1
  H  H1  1  0.10430400  0.84158600  0.00585800  1
  H  H2  1  0.01009400  0.79800600  0.05490200  1
  H  H3  1  0.88142800  0.66572100  0.95590200  1
  H  H4  1  0.94129400  0.61968900  0.75747500  1
  H  H5  1  0.06988700  0.75288600  0.85677100  1
  H  H6  1  0.77338000  0.60102900  0.71132600  1
  H  H7  1  0.72839100  0.37007500  0.76779300  1
  H  H8  1  0.57857400  0.34899300  0.74060900  1
  H  H9  1  0.44729000  0.21959500  0.65148600  1
  H  H10  1  0.38651100  0.13660800  0.49434500  1
  H  H11  1  0.45831800  0.18280300  0.42656500  1
  H  H12  1  0.59013200  0.31139400  0.51536600  1
  H  H13  1  0.93437400  0.51597700  0.31533500  1
  H  H14  1  0.07655900  0.63212300  0.41772900  1
  H  H15  1  0.19224100  0.62735800  0.39178300  1
  H  H16  1  0.02398400  0.38915500  0.16079200  1
  H  H17  1  0.90858300  0.39439700  0.18738900  1
  H  H18  1  0.25450300  0.51539500  0.38153000  1
  H  H19  1  0.24594000  0.47124100  0.11252100  1
  H  H20  1  0.45821600  0.60172800  0.27660400  1
  H  H21  1  0.55599600  0.43234500  0.18158100  1
  H  H22  1  0.42899000  0.31452500  0.13303500  1
  H  H23  1  0.31777100  0.33951000  0.15934300  1
  H  H24  1  0.87019800  0.53802400  0.58295500  1
  H  H25  1  0.79285000  0.56274700  0.46817000  1
  H  H26  1  0.65529200  0.45244200  0.34199600  1
  H  H27  1  0.67342800  0.29147600  0.44387000  1
  H  H28  1  0.81066600  0.40215200  0.57047700  1
  H  H29  1  0.62749700  0.23163600  0.25339300  1
  H  H30  1  0.36499800  0.24003500  0.23360600  1
  H  H31  1  0.29296300  0.19149500  0.06942000  1
  H  H32  1  0.15329100  0.08220500  0.94833700  1
  H  H33  1  0.11593500  0.93466200  0.90697100  1
  H  H34  1  0.21835500  0.89742000  0.98862000  1
  H  H35  1  0.35712700  0.00659000  0.11214000  1
  H  H36  1  0.43497800  0.74974600  0.38246400  1
  H  H37  1  0.60191200  0.77950400  0.62177300  1
  H  H38  1  0.34301600  0.71306300  0.54056700  1
  H  H39  1  0.31918700  0.71790600  0.40953200  1
  H  H40  1  0.46804500  0.84829000  0.71919800  1
  H  H41  1  0.53320600  0.62785500  0.75867600  1
  H  H42  1  0.65771500  0.74675200  0.92809300  1
  H  H43  1  0.68687700  0.74728200  0.06232400  1
  H  H44  1  0.57906000  0.73637400  0.10335000  1
  H  H45  1  0.43969200  0.71819200  0.00695900  1
  H  H46  1  0.40999800  0.71756800  0.87256600  1
  H  H47  1  0.64807700  0.59727000  0.30292700  1
  H  H48  1  0.58832000  0.65640600  0.29067400  1
  H  H49  1  0.60713200  0.53353600  0.14919300  1
  H  H50  1  0.50346600  0.63494000  0.14280200  1
  H  H51  1  0.46346900  0.52191800  0.08232500  1
  H  H52  1  0.52686100  0.58493100  0.06015700  1
  H  H53  1  0.66301900  0.72338300  0.23663200  1
  H  H54  1  0.67942600  0.66028100  0.15309100  1
  H  H55  1  0.73029900  0.67227800  0.25848900  1
  H  H56  1  0.57742300  0.73600500  0.41967400  1
  H  H57  1  0.65293200  0.78897000  0.53303900  1
  H  H58  1  0.56456700  0.87005200  0.44115100  1
  H  H59  1  0.70630900  0.93971300  0.62641900  1
  H  H60  1  0.60330900  0.93844800  0.59357500  1
  H  H61  1  0.67778000  0.00263200  0.58140500  1
  H  H62  1  0.74460200  0.88533400  0.51024100  1
  H  H63  1  0.70366400  0.94325100  0.46419000  1
  H  H64  1  0.66319500  0.83128600  0.39765200  1
  C  C1  1  0.88817900  0.38295900  0.99232200  1
  C  C2  1  0.88233500  0.49226300  0.87736500  1
  C  C3  1  0.10768300  0.60010700  0.99950900  1
  C  C4  1  0.11382400  0.49094200  0.11541100  1
  C  C5  1  0.99531100  0.75852800  0.98977900  1
  C  C6  1  0.92348800  0.68387100  0.93435000  1
  C  C7  1  0.90458400  0.63307400  0.85123900  1
  C  C8  1  0.95657300  0.65853700  0.82294600  1
  C  C9  1  0.02865300  0.73325900  0.87859100  1
  C  C10  1  0.04807400  0.78303500  0.96205700  1
  C  C11  1  0.76333500  0.54911700  0.72214200  1
  C  C12  1  0.68531300  0.48074600  0.67063900  1
  C  C13  1  0.67212400  0.41596700  0.68772200  1
  C  C14  1  0.73718300  0.42122100  0.75573700  1
  C  C15  1  0.81407200  0.49055600  0.80814600  1
  C  C16  1  0.82672700  0.55540400  0.79205800  1
  C  C17  1  0.55251700  0.31275700  0.67162900  1
  C  C18  1  0.47855300  0.24010400  0.62159000  1
  C  C19  1  0.44446100  0.19359400  0.53352500  1
  C  C20  1  0.48462200  0.21953800  0.49555100  1
  C  C21  1  0.55854500  0.29218300  0.54552100  1
  C  C22  1  0.59228000  0.33976000  0.63366500  1
  C  C23  1  0.82600300  0.32130800  0.99022500  1
  C  C24  1  0.77417100  0.26973700  0.98899900  1
  C  C25  1  0.71391000  0.20941100  0.98822400  1
  C  C26  1  0.66304800  0.15799000  0.98812600  1
  C  C27  1  0.06490900  0.57911800  0.36084500  1
  C  C28  1  0.12991800  0.57639200  0.34607500  1
  C  C29  1  0.11528100  0.50932100  0.27301600  1
  C  C30  1  0.03561100  0.44352100  0.21645100  1
  C  C31  1  0.97077100  0.44602800  0.23164900  1
  C  C32  1  0.98525500  0.51404800  0.30351200  1
  C  C33  1  0.25332700  0.50802200  0.32319000  1
  C  C34  1  0.31882500  0.49946000  0.31197300  1
  C  C35  1  0.31621100  0.48671600  0.23618500  1
  C  C36  1  0.24783000  0.48179100  0.17192800  1
  C  C37  1  0.18271600  0.49173300  0.18345800  1
  C  C38  1  0.18548200  0.50494000  0.25986400  1
  C  C39  1  0.45268800  0.53888900  0.24576500  1
  C  C40  1  0.51520100  0.52491000  0.23116900  1
  C  C41  1  0.50700900  0.44412500  0.19206600  1
  C  C42  1  0.43566900  0.37763400  0.16515500  1
  C  C43  1  0.37337800  0.39164000  0.17963500  1
  C  C44  1  0.38228900  0.47229500  0.22078400  1
  C  C45  1  0.16889200  0.66081300  0.99954300  1
  C  C46  1  0.22021700  0.71049100  0.99830700  1
  C  C47  1  0.28016500  0.76808400  0.99598000  1
  C  C48  1  0.33085600  0.81741000  0.99377900  1
  C  C49  1  0.50019400  0.37096000  0.37380800  1
  C  C50  1  0.61747500  0.48243800  0.60365300  1
  C  C51  1  0.50456400  0.61032700  0.60879100  1
  C  C52  1  0.38637200  0.49645800  0.37727800  1
  C  C53  1  0.49747000  0.86779700  0.87130700  1
  C  C54  1  0.60325400  0.09668900  0.98877400  1
  C  C55  1  0.49366100  0.10298600  0.10870400  1
  C  C56  1  0.39062600  0.87711100  0.99140200  1
  C  C57  1  0.76636900  0.50331300  0.46309300  1
  C  C58  1  0.68909800  0.44147200  0.39240300  1
  C  C59  1  0.65472200  0.36588400  0.38628400  1
  C  C60  1  0.69933200  0.35127800  0.44945700  1
  C  C61  1  0.77640900  0.41326300  0.52036300  1
  C  C62  1  0.80977400  0.48942500  0.52737400  1
  C  C63  1  0.56929500  0.23284500  0.24825000  1
  C  C64  1  0.49287700  0.16982600  0.17673700  1
  C  C65  1  0.41844900  0.17233800  0.17075400  1
  C  C66  1  0.42235100  0.23806500  0.23666300  1
  C  C67  1  0.49879900  0.30228500  0.30610100  1
  C  C68  1  0.57269100  0.30012300  0.31172100  1
  C  C69  1  0.27692300  0.12707300  0.05244500  1
  C  C70  1  0.19834500  0.06560200  0.98403000  1
  C  C71  1  0.17741300  0.98299700  0.96082700  1
  C  C72  1  0.23482100  0.96211100  0.00670300  1
  C  C73  1  0.31314700  0.02354100  0.07563200  1
  C  C74  1  0.33519500  0.10623400  0.09775700  1
  C  C75  1  0.52625800  0.76745700  0.50072000  1
  C  C76  1  0.53962200  0.76484800  0.57431500  1
  C  C77  1  0.47359700  0.74377900  0.58802000  1
  C  C78  1  0.39467000  0.72844000  0.52954600  1
  C  C79  1  0.38120600  0.73101900  0.45603000  1
  C  C80  1  0.44656600  0.74947900  0.44109300  1
  C  C81  1  0.48189000  0.79976200  0.72826600  1
  C  C82  1  0.49810000  0.80000800  0.80376000  1
  C  C83  1  0.51741700  0.73809400  0.81517000  1
  C  C84  1  0.52042200  0.67744900  0.75119200  1
  C  C85  1  0.50624000  0.67869100  0.67709400  1
  C  C86  1  0.48793100  0.74064500  0.66584000  1
  C  C87  1  0.60939200  0.73976500  0.94482900  1
  C  C88  1  0.62599300  0.74050800  0.02041200  1
  C  C89  1  0.56544500  0.73401700  0.04326500  1
  C  C90  1  0.48746200  0.72436100  0.98944000  1
  C  C91  1  0.47088900  0.72401700  0.91404100  1
  C  C92  1  0.53253600  0.73357500  0.89251900  1
  C  C93  1  0.59112400  0.59665300  0.25734200  1
  C  C94  1  0.59726700  0.58945500  0.17926500  1
  C  C95  1  0.51763700  0.58250600  0.11229400  1
  C  C96  1  0.67227500  0.66641600  0.20880100  1
  C  C97  1  0.59701900  0.78683900  0.48438700  1
  C  C98  1  0.62040200  0.87032200  0.48786800  1
  C  C99  1  0.65406100  0.94209200  0.57812500  1
  C  C100  1  0.68738400  0.88339400  0.46353000  1
  O  O1  1  0.92877400  0.46027400  0.05930000  1
  O  O2  1  0.90215600  0.35919900  0.92750900  1
  O  O3  1  0.89246100  0.52718100  0.95532000  1
  O  O4  1  0.92918400  0.45659200  0.85799700  1
  O  O5  1  0.06156700  0.62406200  0.03144300  1
  O  O6  1  0.09999900  0.52270100  0.96645900  1
  O  O7  1  0.09784500  0.55710400  0.13560600  1
  O  O8  1  0.07308500  0.42540900  0.03608900  1
  O  O9  1  0.53178600  0.44656400  0.38618700  1
  O  O10  1  0.46755100  0.35362900  0.41770700  1
  O  O11  1  0.63673300  0.51423800  0.55998200  1
  O  O12  1  0.54141200  0.45642400  0.59297200  1
  O  O13  1  0.56847100  0.62527200  0.59606700  1
  O  O14  1  0.44011300  0.53602700  0.56482900  1
  O  O15  1  0.46340200  0.55740700  0.42200800  1
  O  O16  1  0.36632100  0.43311700  0.38948600  1
  O  O17  1  0.44620200  0.90038700  0.84777500  1
  O  O18  1  0.55430800  0.89930800  0.95222000  1
  O  O19  1  0.52267900  0.06811300  0.93476200  1
  O  O20  1  0.63213900  0.07193000  0.04336200  1
  O  O21  1  0.44233900  0.07741400  0.02773700  1
  O  O22  1  0.55272700  0.07852900  0.13214900  1
  O  O23  1  0.36194400  0.90067300  0.93566800  1
  O  O24  1  0.47106900  0.90684700  0.04632900  1
