# generated using pymatgen
data_ZnH23C25NO12
_symmetry_space_group_name_H-M   'P 1'
_cell_length_a   15.97135800
_cell_length_b   14.82246200
_cell_length_c   10.88744300
_cell_angle_alpha   90.00000000
_cell_angle_beta   90.01084000
_cell_angle_gamma   90.00000000
_symmetry_Int_Tables_number   1
_chemical_formula_structural   ZnH23C25NO12
_chemical_formula_sum   'Zn2 H46 C50 N2 O24'
_cell_volume   2577.43710717
_cell_formula_units_Z   2
loop_
 _symmetry_equiv_pos_site_id
 _symmetry_equiv_pos_as_xyz
  1  'x, y, z'
loop_
 _atom_site_type_symbol
 _atom_site_label
 _atom_site_symmetry_multiplicity
 _atom_site_fract_x
 _atom_site_fract_y
 _atom_site_fract_z
 _atom_site_occupancy
  Zn  Zn1  1  0.49748800  0.60206500  0.49454400  1
  Zn  Zn2  1  0.49802000  0.39661000  0.49562500  1
  H  H1  1  0.35355600  0.48293000  0.91749800  1
  H  H2  1  0.64034000  0.51465500  0.07190600  1
  H  H3  1  0.07774400  0.61738600  0.60842800  1
  H  H4  1  0.06313600  0.45750600  0.68230000  1
  H  H5  1  0.07540400  0.36571400  0.57481700  1
  H  H6  1  0.06202200  0.63936600  0.44698400  1
  H  H7  1  0.93718800  0.35883200  0.53436200  1
  H  H8  1  0.92439100  0.64578000  0.48781700  1
  H  H9  1  0.07157700  0.51425600  0.29595300  1
  H  H10  1  0.05847900  0.39993600  0.35035200  1
  H  H11  1  0.93241400  0.54333000  0.31066200  1
  H  H12  1  0.91860700  0.42340600  0.33013900  1
  H  H13  1  0.60469700  0.07068100  0.61202500  1
  H  H14  1  0.59901300  0.92013400  0.62092700  1
  H  H15  1  0.50667300  0.07654200  0.69361400  1
  H  H16  1  0.49750000  0.92413300  0.69251400  1
  H  H17  1  0.51567300  0.07317800  0.29865400  1
  H  H18  1  0.52067900  0.92178400  0.29882600  1
  H  H19  1  0.61050000  0.07603100  0.38798300  1
  H  H20  1  0.61257900  0.92417000  0.39523500  1
  H  H21  1  0.37768500  0.07616200  0.40278600  1
  H  H22  1  0.38144000  0.92752800  0.39169000  1
  H  H23  1  0.27671700  0.85070500  0.75519000  1
  H  H24  1  0.23756900  0.75743200  0.66437300  1
  H  H25  1  0.17818200  0.86126500  0.67412400  1
  H  H26  1  0.28675400  0.12652200  0.78248000  1
  H  H27  1  0.18701800  0.13156900  0.70361900  1
  H  H28  1  0.25227800  0.23123300  0.71327600  1
  H  H29  1  0.31910400  0.76975900  0.14730000  1
  H  H30  1  0.28096500  0.70818200  0.27965000  1
  H  H31  1  0.22242300  0.70632200  0.13723800  1
  H  H32  1  0.35077300  0.19966600  0.10942900  1
  H  H33  1  0.40890000  0.18348600  0.24964800  1
  H  H34  1  0.44578300  0.13312000  0.10733000  1
  H  H35  1  0.60247900  0.80850500  0.83876300  1
  H  H36  1  0.65671200  0.75863500  0.70947700  1
  H  H37  1  0.71197800  0.77954900  0.85196500  1
  H  H38  1  0.69055300  0.23547200  0.85882700  1
  H  H39  1  0.63032100  0.21277000  0.72178200  1
  H  H40  1  0.60808100  0.15203800  0.86280400  1
  H  H41  1  0.93468400  0.63480600  0.89346700  1
  H  H42  1  0.82892700  0.67748000  0.88642800  1
  H  H43  1  0.91655700  0.75429600  0.87178000  1
  H  H44  1  0.86843000  0.43611400  0.91486800  1
  H  H45  1  0.86365100  0.31462100  0.93090400  1
  H  H46  1  0.77263700  0.37687700  0.87883000  1
  C  C1  1  0.33408000  0.49848700  0.49505000  1
  C  C2  1  0.49672600  0.49834800  0.25444100  1
  C  C3  1  0.66153100  0.50020500  0.49564400  1
  C  C4  1  0.49850500  0.50020900  0.73557700  1
  C  C5  1  0.45131400  0.56418600  0.03480700  1
  C  C6  1  0.46522200  0.42329100  0.03302100  1
  C  C7  1  0.41876400  0.49029300  0.95107800  1
  C  C8  1  0.49781800  0.49980400  0.87297000  1
  C  C9  1  0.52829800  0.57390300  0.95705500  1
  C  C10  1  0.54222500  0.43252800  0.95484300  1
  C  C11  1  0.57505600  0.50764200  0.03851100  1
  C  C12  1  0.49596300  0.49771100  0.11691600  1
  C  C13  1  0.04665400  0.59293300  0.52363000  1
  C  C14  1  0.04612100  0.43270200  0.58947300  1
  C  C15  1  0.95187700  0.42388500  0.57950700  1
  C  C16  1  0.95282400  0.59112300  0.54323500  1
  C  C17  1  0.75158500  0.50056600  0.49830500  1
  C  C18  1  0.07718900  0.49874800  0.49329300  1
  C  C19  1  0.91901000  0.50032100  0.49935200  1
  C  C20  1  0.94900000  0.48445400  0.36865500  1
  C  C21  1  0.04323400  0.47169200  0.36868400  1
  C  C22  1  0.82716000  0.50077600  0.50002800  1
  C  C23  1  0.16879100  0.49818600  0.49207900  1
  C  C24  1  0.24424000  0.49822400  0.49310000  1
  C  C25  1  0.40682800  0.05052100  0.48796100  1
  C  C26  1  0.40648300  0.94836500  0.48217800  1
  C  C27  1  0.53819800  0.04931100  0.61083000  1
  C  C28  1  0.53455400  0.94719800  0.61234000  1
  C  C29  1  0.49665500  0.08433300  0.49481900  1
  C  C30  1  0.49562800  0.91371900  0.49356300  1
  C  C31  1  0.54700000  0.94786300  0.38615900  1
  C  C32  1  0.54544000  0.04997700  0.38471100  1
  C  C33  1  0.49538000  0.81496800  0.49218700  1
  C  C34  1  0.49713000  0.18345300  0.49473500  1
  C  C35  1  0.28714400  0.86747100  0.56125600  1
  C  C36  1  0.24202500  0.83195200  0.67072000  1
  C  C37  1  0.29429000  0.13099300  0.58701600  1
  C  C38  1  0.25241300  0.15672100  0.70406600  1
  C  C39  1  0.33375200  0.62691700  0.13798000  1
  C  C40  1  0.28601700  0.70799200  0.17808800  1
  C  C41  1  0.46365800  0.27519400  0.12341500  1
  C  C42  1  0.41435000  0.19232200  0.14916200  1
  C  C43  1  0.62748900  0.66780500  0.85519100  1
  C  C44  1  0.65129600  0.75937000  0.81101200  1
  C  C45  1  0.56651600  0.28871400  0.85877100  1
  C  C46  1  0.62770400  0.21765300  0.82324400  1
  C  C47  1  0.89318400  0.67220500  0.71452400  1
  C  C48  1  0.89320600  0.68565900  0.85009100  1
  C  C49  1  0.87016900  0.36277700  0.74651200  1
  C  C50  1  0.84188600  0.37313400  0.87603300  1
  N  N1  1  0.49545800  0.73689700  0.49121500  1
  N  N2  1  0.49731700  0.26166300  0.49434800  1
  O  O1  1  0.37278200  0.57660500  0.49456300  1
  O  O2  1  0.37307700  0.42058200  0.49536600  1
  O  O3  1  0.49740900  0.57655600  0.31149600  1
  O  O4  1  0.49714200  0.42066100  0.31235400  1
  O  O5  1  0.62236100  0.57795100  0.49448700  1
  O  O6  1  0.62266500  0.42220800  0.49498600  1
  O  O7  1  0.49771000  0.57793300  0.67780000  1
  O  O8  1  0.49768300  0.42242900  0.67830200  1
  O  O9  1  0.35868300  0.91489900  0.57705400  1
  O  O10  1  0.25847800  0.85422500  0.45901900  1
  O  O11  1  0.36341500  0.07831900  0.59047600  1
  O  O12  1  0.26574600  0.15781100  0.48974300  1
  O  O13  1  0.40531700  0.63705100  0.07366900  1
  O  O14  1  0.30778700  0.55183400  0.16326900  1
  O  O15  1  0.42588500  0.34457300  0.06603600  1
  O  O16  1  0.53737000  0.27921900  0.15201600  1
  O  O17  1  0.55666300  0.65719500  0.92086500  1
  O  O18  1  0.67125700  0.60294600  0.83031000  1
  O  O19  1  0.59368600  0.36313900  0.91808600  1
  O  O20  1  0.49242800  0.27846700  0.83572000  1
  O  O21  1  0.93733500  0.60297400  0.66649900  1
  O  O22  1  0.85403000  0.72381600  0.64886200  1
  O  O23  1  0.91750700  0.42828100  0.69528900  1
  O  O24  1  0.84981400  0.29600500  0.68827100  1
