# generated using pymatgen
data_Zn2H23C36N3O8
_symmetry_space_group_name_H-M   'P 1'
_cell_length_a   9.81591600
_cell_length_b   10.99277000
_cell_length_c   17.47015500
_cell_angle_alpha   90.00668300
_cell_angle_beta   86.23304900
_cell_angle_gamma   90.00020900
_symmetry_Int_Tables_number   1
_chemical_formula_structural   Zn2H23C36N3O8
_chemical_formula_sum   'Zn2 H23 C36 N3 O8'
_cell_volume   1881.02875517
_cell_formula_units_Z   1
loop_
 _symmetry_equiv_pos_site_id
 _symmetry_equiv_pos_as_xyz
  1  'x, y, z'
loop_
 _atom_site_type_symbol
 _atom_site_label
 _atom_site_symmetry_multiplicity
 _atom_site_fract_x
 _atom_site_fract_y
 _atom_site_fract_z
 _atom_site_occupancy
  Zn  Zn1  1  0.34564700  0.49916800  0.50088000  1
  Zn  Zn2  1  0.65526000  0.50058600  0.49949800  1
  H  H1  1  0.69393300  0.51744500  0.74254700  1
  H  H2  1  0.30689100  0.47752500  0.25806200  1
  H  H3  1  0.74343400  0.48102800  0.25339500  1
  H  H4  1  0.64691500  0.44698700  0.99556000  1
  H  H5  1  0.24699900  0.51338500  0.88653000  1
  H  H6  1  0.31744600  0.47183500  0.12052300  1
  H  H7  1  0.25757100  0.51220100  0.74717800  1
  H  H8  1  0.35386900  0.54487900  0.00507100  1
  H  H9  1  0.68338300  0.52126200  0.88024600  1
  H  H10  1  0.75386300  0.47806100  0.11412200  1
  H  H11  1  0.71369000  0.89036000  0.48539800  1
  H  H12  1  0.24049400  0.80991600  0.44141500  1
  H  H13  1  0.03111000  0.90729900  0.48475100  1
  H  H14  1  0.03484000  0.09597600  0.55992300  1
  H  H15  1  0.24855800  0.19243000  0.58191500  1
  H  H16  1  0.71427600  0.10955100  0.49434400  1
  H  H17  1  0.88526500  0.36167000  0.42089400  1
  H  H18  1  0.74348300  0.67357400  0.59499400  1
  H  H19  1  0.10604900  0.80760900  0.67589400  1
  H  H20  1  0.23434900  0.66897300  0.59885500  1
  H  H21  1  0.13472100  0.36035800  0.42212400  1
  H  H22  1  0.77179800  0.77981400  0.72412800  1
  H  H23  1  0.89941000  0.88284200  0.71696400  1
  C  C1  1  0.49962700  0.73885900  0.48939200  1
  C  C2  1  0.48413600  0.51037200  0.65047800  1
  C  C3  1  0.49957400  0.26117300  0.50922700  1
  C  C4  1  0.51674100  0.48581400  0.35022200  1
  C  C5  1  0.47659700  0.51342900  0.73460500  1
  C  C6  1  0.59486300  0.51570700  0.77338100  1
  C  C7  1  0.58862900  0.51611200  0.85246500  1
  C  C8  1  0.46348000  0.51346900  0.89401600  1
  C  C9  1  0.34554600  0.51403200  0.85503300  1
  C  C10  1  0.35171000  0.51328900  0.77594400  1
  C  C11  1  0.41226200  0.47695300  0.14824000  1
  C  C12  1  0.40604100  0.47845300  0.22731000  1
  C  C13  1  0.64920800  0.47980700  0.22472000  1
  C  C14  1  0.65532500  0.47807400  0.14563000  1
  C  C15  1  0.53738700  0.47874100  0.10665400  1
  C  C16  1  0.45037900  0.51412400  0.97860300  1
  C  C17  1  0.55041400  0.47773300  0.02205700  1
  C  C18  1  0.52432400  0.48087900  0.26609600  1
  C  C19  1  0.24799400  0.89065300  0.47572400  1
  C  C20  1  0.12728700  0.94811000  0.49738200  1
  C  C21  1  0.12930300  0.05428400  0.53811300  1
  C  C22  1  0.25176400  0.11079300  0.54769600  1
  C  C23  1  0.37408300  0.06041300  0.51758600  1
  C  C24  1  0.37290000  0.94008800  0.49352300  1
  C  C25  1  0.49565700  0.87411600  0.48764900  1
  C  C26  1  0.61695200  0.93749400  0.49082100  1
  C  C27  1  0.61740300  0.06254700  0.49805300  1
  C  C28  1  0.49669500  0.12605700  0.51182600  1
  C  C29  1  0.85127700  0.66666667  0.59279100  1
  C  C30  1  0.91434200  0.74679200  0.63910600  1
  C  C31  1  0.05323600  0.74552200  0.64006200  1
  C  C32  1  0.12729000  0.66417800  0.59479800  1
  C  C33  1  0.06557300  0.58189700  0.54738700  1
  C  C34  1  0.92424600  0.58311100  0.54637100  1
  C  C35  1  0.93505700  0.42522100  0.45713100  1
  C  C36  1  0.07623200  0.42425400  0.45799200  1
  N  N1  1  0.85951400  0.50427100  0.50097500  1
  N  N2  1  0.14108800  0.50200600  0.50291800  1
  N  N3  1  0.83438800  0.83046200  0.68542100  1
  O  O1  1  0.38498800  0.67955600  0.49420300  1
  O  O2  1  0.61663200  0.68145400  0.49117000  1
  O  O3  1  0.37140500  0.50586500  0.61501700  1
  O  O4  1  0.60388400  0.50944900  0.61358700  1
  O  O5  1  0.38262300  0.31840600  0.50553300  1
  O  O6  1  0.61844600  0.31893900  0.50582700  1
  O  O7  1  0.39498500  0.48906300  0.38661300  1
  O  O8  1  0.63154300  0.48822500  0.38532600  1
