# generated using pymatgen
data_ZnH11C16NO8
_symmetry_space_group_name_H-M   'P 1'
_cell_length_a   9.13033000
_cell_length_b   8.54982900
_cell_length_c   15.02544300
_cell_angle_alpha   90.00000000
_cell_angle_beta   91.01042100
_cell_angle_gamma   90.00000000
_symmetry_Int_Tables_number   1
_chemical_formula_structural   ZnH11C16NO8
_chemical_formula_sum   'Zn2 H22 C32 N2 O16'
_cell_volume   1172.74516889
_cell_formula_units_Z   2
loop_
 _symmetry_equiv_pos_site_id
 _symmetry_equiv_pos_as_xyz
  1  'x, y, z'
loop_
 _atom_site_type_symbol
 _atom_site_label
 _atom_site_symmetry_multiplicity
 _atom_site_fract_x
 _atom_site_fract_y
 _atom_site_fract_z
 _atom_site_occupancy
  Zn  Zn1  1  0.85576400  0.49829000  0.49940400  1
  Zn  Zn2  1  0.18403800  0.49783300  0.50215500  1
  H  H1  1  0.07966100  0.99789400  0.56978100  1
  H  H2  1  0.08395800  0.99774200  0.43282500  1
  H  H3  1  0.97296900  0.24823300  0.80176800  1
  H  H4  1  0.95297100  0.24615100  0.20195600  1
  H  H5  1  0.79991700  0.18483900  0.91688800  1
  H  H6  1  0.12735100  0.82770400  0.08175000  1
  H  H7  1  0.79776700  0.18224100  0.08025900  1
  H  H8  1  0.12227400  0.82414300  0.92043200  1
  H  H9  1  0.64549900  0.55723700  0.36031600  1
  H  H10  1  0.39367300  0.55103600  0.64207500  1
  H  H11  1  0.62266800  0.71280600  0.43691300  1
  H  H12  1  0.41736800  0.70971500  0.56782800  1
  H  H13  1  0.39203100  0.69213100  0.41876800  1
  H  H14  1  0.64737200  0.68810000  0.58600000  1
  H  H15  1  0.39308000  0.50534200  0.36372100  1
  H  H16  1  0.64670400  0.49881600  0.63800500  1
  H  H17  1  0.38797600  0.26478400  0.45386700  1
  H  H18  1  0.65247500  0.26304200  0.54438100  1
  H  H19  1  0.69896200  0.06259700  0.34502100  1
  H  H20  1  0.34348500  0.05522200  0.65021200  1
  H  H21  1  0.88019700  0.48799800  0.80047800  1
  H  H22  1  0.00263800  0.48949400  0.17112600  1
  C  C1  1  0.01916800  0.13852900  0.67805100  1
  C  C2  1  0.01689400  0.13751100  0.32410600  1
  C  C3  1  0.98156300  0.13933000  0.76638600  1
  C  C4  1  0.97220300  0.13742800  0.23593600  1
  C  C5  1  0.96440900  0.99928200  0.81100400  1
  C  C6  1  0.96300200  0.99762300  0.18975200  1
  C  C7  1  0.96981100  0.85826200  0.76494100  1
  C  C8  1  0.97641100  0.85694300  0.23527900  1
  C  C9  1  0.01830500  0.85805200  0.67802800  1
  C  C10  1  0.01910100  0.85765900  0.32378800  1
  C  C11  1  0.04730800  0.99824600  0.63744100  1
  C  C12  1  0.04788700  0.99772400  0.36507800  1
  C  C13  1  0.86969500  0.10413500  0.95326300  1
  C  C14  1  0.04923100  0.90088900  0.04653900  1
  C  C15  1  0.86872400  0.10279100  0.04537100  1
  C  C16  1  0.04785400  0.90006000  0.95518000  1
  C  C17  1  0.95653300  0.99856300  0.09225000  1
  C  C18  1  0.95698300  0.99983600  0.90810700  1
  C  C19  1  0.02066100  0.71780700  0.62175700  1
  C  C20  1  0.01887500  0.71645400  0.37907400  1
  C  C21  1  0.01926700  0.27960100  0.37885700  1
  C  C22  1  0.02042300  0.28064100  0.62331800  1
  C  C23  1  0.59789300  0.58744500  0.42527100  1
  C  C24  1  0.44179500  0.58384300  0.57766300  1
  C  C25  1  0.43160100  0.57021700  0.42347000  1
  C  C26  1  0.60808100  0.56642200  0.57927400  1
  C  C27  1  0.60116200  0.33605400  0.49180500  1
  C  C28  1  0.43887200  0.33570900  0.50745500  1
  C  C29  1  0.62477400  0.25189800  0.40547800  1
  C  C30  1  0.41518200  0.24801900  0.59256000  1
  C  C31  1  0.91597600  0.71390900  0.80665600  1
  C  C32  1  0.94759600  0.70846500  0.18987800  1
  N  N1  1  0.66215300  0.49533600  0.49710200  1
  N  N2  1  0.37765300  0.49509400  0.50445300  1
  O  O1  1  0.14733400  0.66808200  0.59201600  1
  O  O2  1  0.89227400  0.66740900  0.40894300  1
  O  O3  1  0.89413700  0.66200300  0.59358700  1
  O  O4  1  0.14548600  0.66082800  0.40751200  1
  O  O5  1  0.89399400  0.33046900  0.40860200  1
  O  O6  1  0.14611100  0.33040200  0.59334300  1
  O  O7  1  0.14579200  0.33333333  0.40828400  1
  O  O8  1  0.89419600  0.33494400  0.59384900  1
  O  O9  1  0.57169500  0.29905300  0.33550200  1
  O  O10  1  0.69627700  0.10811400  0.40714600  1
  O  O11  1  0.46826800  0.29219100  0.66315900  1
  O  O12  1  0.34457300  0.10397300  0.58885300  1
  O  O13  1  0.84157600  0.72107200  0.87311400  1
  O  O14  1  0.93711800  0.56944600  0.76679300  1
  O  O15  1  0.86246700  0.70281500  0.12651000  1
  O  O16  1  0.02262900  0.57464900  0.21621100  1
