# generated using pymatgen
data_Fe2H18C47O22
_symmetry_space_group_name_H-M   'P 1'
_cell_length_a   15.75788400
_cell_length_b   9.42522200
_cell_length_c   20.07610900
_cell_angle_alpha   85.81347000
_cell_angle_beta   85.06203400
_cell_angle_gamma   104.70768500
_symmetry_Int_Tables_number   1
_chemical_formula_structural   Fe2H18C47O22
_chemical_formula_sum   'Fe2 H18 C47 O22'
_cell_volume   2859.37558546
_cell_formula_units_Z   1
loop_
 _symmetry_equiv_pos_site_id
 _symmetry_equiv_pos_as_xyz
  1  'x, y, z'
loop_
 _atom_site_type_symbol
 _atom_site_label
 _atom_site_symmetry_multiplicity
 _atom_site_fract_x
 _atom_site_fract_y
 _atom_site_fract_z
 _atom_site_occupancy
  Fe  Fe1  1  0.49084700  0.98794300  0.14846900  1
  Fe  Fe2  1  0.50349800  0.01533500  0.85440600  1
  H  H1  1  0.18775900  0.03046100  0.89806400  1
  H  H2  1  0.20689800  0.93140900  0.13783900  1
  H  H3  1  0.07606800  0.07979300  0.87115800  1
  H  H4  1  0.93763100  0.09244700  0.84082300  1
  H  H5  1  0.05555500  0.90198100  0.16237800  1
  H  H6  1  0.91697100  0.91442800  0.13197700  1
  H  H7  1  0.78658700  0.06435500  0.86538600  1
  H  H8  1  0.80562000  0.96599300  0.10524700  1
  H  H9  1  0.50444700  0.56079100  0.83169000  1
  H  H10  1  0.50187000  0.30165400  0.66607500  1
  H  H11  1  0.60994600  0.40823800  0.43578800  1
  H  H12  1  0.38364400  0.57380100  0.44510800  1
  H  H13  1  0.49414600  0.25262700  0.37043700  1
  H  H14  1  0.49196100  0.44452600  0.17247400  1
  H  H15  1  0.48806100  0.70166400  0.33888200  1
  H  H16  1  0.57562100  0.91399200  0.53262600  1
  H  H17  1  0.73898600  0.32382700  0.55576500  1
  H  H18  1  0.28412600  0.57281500  0.66028500  1
  C  C1  1  0.27718100  0.98289700  0.04027000  1
  C  C2  1  0.27062200  0.00909100  0.97219000  1
  C  C3  1  0.18987500  0.01437700  0.95116000  1
  C  C4  1  0.20211200  0.95271100  0.08484600  1
  C  C5  1  0.12226300  0.95994600  0.06353400  1
  C  C6  1  0.11494800  0.99571400  0.99672500  1
  C  C7  1  0.03324400  0.01023700  0.97750000  1
  C  C8  1  0.02333200  0.05223100  0.91125900  1
  C  C9  1  0.94318000  0.06204200  0.89292300  1
  C  C10  1  0.05001600  0.93256000  0.11029500  1
  C  C11  1  0.96982400  0.94232800  0.09195400  1
  C  C12  1  0.95994900  0.98463000  0.02574600  1
  C  C13  1  0.87830500  0.99956300  0.00654300  1
  C  C14  1  0.87103100  0.03522200  0.93971400  1
  C  C15  1  0.79133100  0.04309100  0.91838900  1
  C  C16  1  0.80346300  0.98178100  0.05213000  1
  C  C17  1  0.72287700  0.98817700  0.03106300  1
  C  C18  1  0.71637500  0.01403300  0.96298100  1
  C  C19  1  0.64763600  0.97350000  0.08255300  1
  C  C20  1  0.48699900  0.71401600  0.20382900  1
  C  C21  1  0.36219300  0.00091200  0.06752000  1
  C  C22  1  0.48887400  0.19259100  0.24275200  1
  C  C23  1  0.51866000  0.81399600  0.76416900  1
  C  C24  1  0.63150900  0.99777500  0.93574400  1
  C  C25  1  0.50466100  0.28996400  0.80075000  1
  C  C26  1  0.34598100  0.02551800  0.92059100  1
  C  C27  1  0.50527900  0.41756600  0.75401800  1
  C  C28  1  0.50598200  0.40663200  0.68573600  1
  C  C29  1  0.51083100  0.52953000  0.64190800  1
  C  C30  1  0.51661100  0.66545300  0.66629400  1
  C  C31  1  0.51185800  0.67434200  0.73514900  1
  C  C32  1  0.50537500  0.55059500  0.77840200  1
  C  C33  1  0.56801700  0.46183800  0.53270000  1
  C  C34  1  0.56123300  0.44684100  0.46528200  1
  C  C35  1  0.49692400  0.49155700  0.43363700  1
  C  C36  1  0.43582400  0.54472700  0.47008200  1
  C  C37  1  0.43707300  0.54992500  0.53863100  1
  C  C38  1  0.50519300  0.51293100  0.57012700  1
  C  C39  1  0.49353000  0.34700400  0.33666700  1
  C  C40  1  0.49322100  0.33485400  0.26876700  1
  C  C41  1  0.49279500  0.45562100  0.22560400  1
  C  C42  1  0.48939500  0.58753800  0.25040200  1
  C  C43  1  0.48898700  0.59868700  0.31881600  1
  C  C44  1  0.49280700  0.47915800  0.36171300  1
  C  C45  1  0.52445700  0.79696700  0.61936900  1
  C  C46  1  0.64445300  0.42792300  0.56150000  1
  C  C47  1  0.36361200  0.59038700  0.57636600  1
  O  O1  1  0.57746300  0.01542600  0.06809300  1
  O  O2  1  0.48752400  0.70069000  0.13918900  1
  O  O3  1  0.65342200  0.92911300  0.14506900  1
  O  O4  1  0.48691900  0.84216100  0.22563800  1
  O  O5  1  0.37080800  0.91177600  0.11849300  1
  O  O6  1  0.42663100  0.11883800  0.04712900  1
  O  O7  1  0.52408500  0.18855300  0.18143700  1
  O  O8  1  0.44385500  0.07079100  0.27869100  1
  O  O9  1  0.46875200  0.81678700  0.81959800  1
  O  O10  1  0.58069500  0.93203000  0.73948400  1
  O  O11  1  0.62381000  0.08736600  0.88465400  1
  O  O12  1  0.56623900  0.88117000  0.95631000  1
  O  O13  1  0.33963700  0.06881700  0.85803400  1
  O  O14  1  0.50855700  0.16419300  0.77828500  1
  O  O15  1  0.41698300  0.98633500  0.93500300  1
  O  O16  1  0.50118800  0.30136700  0.86563200  1
  O  O17  1  0.48266200  0.88573400  0.63267700  1
  O  O18  1  0.57838200  0.81965700  0.55881200  1
  O  O19  1  0.67494400  0.48949700  0.60879200  1
  O  O20  1  0.68667500  0.33231800  0.53132100  1
  O  O21  1  0.32169300  0.66338200  0.54738600  1
  O  O22  1  0.33677200  0.53729400  0.64341900  1
