# generated using pymatgen
data_V4H42C63O34
_symmetry_space_group_name_H-M   'P 1'
_cell_length_a   6.70376200
_cell_length_b   20.22271100
_cell_length_c   23.68042000
_cell_angle_alpha   90.06773600
_cell_angle_beta   90.01015800
_cell_angle_gamma   90.00412300
_symmetry_Int_Tables_number   1
_chemical_formula_structural   V4H42C63O34
_chemical_formula_sum   'V4 H42 C63 O34'
_cell_volume   3210.31059606
_cell_formula_units_Z   1
loop_
 _symmetry_equiv_pos_site_id
 _symmetry_equiv_pos_as_xyz
  1  'x, y, z'
loop_
 _atom_site_type_symbol
 _atom_site_label
 _atom_site_symmetry_multiplicity
 _atom_site_fract_x
 _atom_site_fract_y
 _atom_site_fract_z
 _atom_site_occupancy
  V  V1  1  0.93623300  0.49171700  0.50173000  1
  V  V2  1  0.43623800  0.50865400  0.50175400  1
  V  V3  1  0.30116000  0.00832300  0.00208700  1
  V  V4  1  0.80120000  0.99344400  0.00201600  1
  H  H1  1  0.30536900  0.66310500  0.77935100  1
  H  H2  1  0.95264600  0.70777000  0.83258200  1
  H  H3  1  0.43874300  0.79559400  0.77529400  1
  H  H4  1  0.26094700  0.80731100  0.66756200  1
  H  H5  1  0.90813800  0.85203300  0.72080300  1
  H  H6  1  0.77474100  0.71944800  0.72481700  1
  H  H7  1  0.32845100  0.77630400  0.33104400  1
  H  H8  1  0.79117100  0.76474300  0.21605300  1
  H  H9  1  0.96478100  0.78975100  0.33082100  1
  H  H10  1  0.80640500  0.72321700  0.30558600  1
  H  H11  1  0.28747700  0.71706600  0.16878600  1
  H  H12  1  0.02439100  0.70965300  0.15194900  1
  H  H13  1  0.41148500  0.81348400  0.21975900  1
  H  H14  1  0.43700600  0.72402400  0.27704800  1
  H  H15  1  0.95786000  0.64939600  0.23125600  1
  H  H16  1  0.37332900  0.15102500  0.74240200  1
  H  H17  1  0.43106100  0.21704000  0.66707600  1
  H  H18  1  0.93437400  0.26740400  0.71806300  1
  H  H19  1  0.73513100  0.13807600  0.73021500  1
  H  H20  1  0.90784000  0.17982100  0.77690400  1
  H  H21  1  0.49173700  0.35416500  0.77132300  1
  H  H22  1  0.76121800  0.35299500  0.76968400  1
  H  H23  1  0.50517100  0.28315500  0.84471800  1
  H  H24  1  0.28079200  0.21984200  0.78384400  1
  H  H25  1  0.40575000  0.27875900  0.16442400  1
  H  H26  1  0.50010900  0.35730700  0.22804700  1
  H  H27  1  0.93163600  0.26495700  0.28445700  1
  H  H28  1  0.86358600  0.34045100  0.24797100  1
  H  H29  1  0.77498900  0.28537300  0.16780800  1
  H  H30  1  0.42185500  0.22006400  0.32832100  1
  H  H31  1  0.68297000  0.20868800  0.34577900  1
  H  H32  1  0.47030500  0.13773700  0.26430500  1
  H  H33  1  0.31590500  0.31992600  0.27407500  1
  H  H34  1  0.28446700  0.22894200  0.21799100  1
  H  H35  1  0.73913700  0.14503400  0.26810200  1
  H  H36  1  0.63454000  0.92909700  0.24223300  1
  H  H37  1  0.33431000  0.52615800  0.22525700  1
  H  H38  1  0.96946200  0.19688400  0.58107000  1
  H  H39  1  0.03305500  0.33179400  0.65859900  1
  H  H40  1  0.11645400  0.26985800  0.84236100  1
  H  H41  1  0.18862500  0.17873000  0.14608400  1
  H  H42  1  0.17693800  0.96796600  0.27013000  1
  C  C1  1  0.65428700  0.42104100  0.58184500  1
  C  C2  1  0.65424000  0.42108700  0.42164600  1
  C  C3  1  0.15428400  0.57917500  0.42156900  1
  C  C4  1  0.15419500  0.57948000  0.58174700  1
  C  C5  1  0.02276300  0.72964500  0.79452500  1
  C  C6  1  0.21511700  0.70660400  0.76672900  1
  C  C7  1  0.14164100  0.62690300  0.62663100  1
  C  C8  1  0.08370900  0.88686000  0.87471400  1
  C  C9  1  0.92511200  0.73742100  0.73691100  1
  C  C10  1  0.11735600  0.71524000  0.70995300  1
  C  C11  1  0.99837900  0.80853200  0.73342600  1
  C  C12  1  0.09621200  0.79984500  0.79019100  1
  C  C13  1  0.19079100  0.78544100  0.70561500  1
  C  C14  1  0.28835800  0.77763300  0.76320100  1
  C  C15  1  0.13054600  0.66681700  0.66426300  1
  C  C16  1  0.08725700  0.84779900  0.83632000  1
  C  C17  1  0.27450200  0.80842500  0.24564900  1
  C  C18  1  0.90697000  0.79062900  0.24118500  1
  C  C19  1  0.93927200  0.75391800  0.29607500  1
  C  C20  1  0.14277100  0.62534800  0.37561800  1
  C  C21  1  0.10013200  0.79036300  0.20781600  1
  C  C22  1  0.30492700  0.75402500  0.28875100  1
  C  C23  1  0.12146600  0.71039700  0.28962200  1
  C  C24  1  0.10692200  0.67293500  0.23422500  1
  C  C25  1  0.13373700  0.72104000  0.18573500  1
  C  C26  1  0.13320900  0.66382700  0.33684000  1
  C  C27  1  0.08631700  0.83711100  0.16076900  1
  C  C28  1  0.07361900  0.87614300  0.12246900  1
  C  C29  1  0.42724900  0.24717800  0.70616000  1
  C  C30  1  0.79620900  0.23944400  0.70845100  1
  C  C31  1  0.76899500  0.18538600  0.75191800  1
  C  C32  1  0.58364900  0.11594000  0.87519100  1
  C  C33  1  0.61983400  0.28616000  0.71111300  1
  C  C34  1  0.40504900  0.20211300  0.75691500  1
  C  C35  1  0.59704600  0.20310200  0.79058500  1
  C  C36  1  0.62742900  0.27186200  0.81466900  1
  C  C37  1  0.62489100  0.32206200  0.76724300  1
  C  C38  1  0.58705900  0.15511000  0.83681900  1
  C  C39  1  0.63239100  0.33422100  0.66498700  1
  C  C40  1  0.64239800  0.37384600  0.62705300  1
  C  C41  1  0.45533800  0.31122400  0.24999400  1
  C  C42  1  0.81644900  0.28923300  0.25801800  1
  C  C43  1  0.78838800  0.25062600  0.20380700  1
  C  C44  1  0.57313700  0.12500700  0.12286000  1
  C  C45  1  0.62047100  0.29027400  0.28976400  1
  C  C46  1  0.42158900  0.25682100  0.20708900  1
  C  C47  1  0.59854100  0.21040200  0.20830400  1
  C  C48  1  0.59750400  0.17278900  0.26356800  1
  C  C49  1  0.57642600  0.22157300  0.31169200  1
  C  C50  1  0.58547200  0.16388500  0.16122400  1
  C  C51  1  0.63283300  0.33664800  0.33696200  1
  C  C52  1  0.64266100  0.37502800  0.37574900  1
  C  C53  1  0.55642700  0.07794500  0.07784100  1
  C  C54  1  0.58494600  0.06979100  0.92130300  1
  C  C55  1  0.08472600  0.93269700  0.92091700  1
  C  C56  1  0.05661400  0.92343600  0.07749500  1
  C  C57  1  0.83892500  0.85949400  0.25278600  1
  C  C58  1  0.26422700  0.62101400  0.23153500  1
  C  C59  1  0.81245100  0.20954100  0.65108000  1
  C  C60  1  0.25475700  0.29351600  0.70322900  1
  C  C61  1  0.82191500  0.27526400  0.84493900  1
  C  C62  1  0.96259200  0.20618600  0.19457100  1
  C  C63  1  0.23426400  0.87208200  0.27505900  1
  O  O1  1  0.48771100  0.44530100  0.44028600  1
  O  O2  1  0.82862400  0.43129500  0.55963800  1
  O  O3  1  0.98778700  0.55510500  0.56317100  1
  O  O4  1  0.82859600  0.43113900  0.44383300  1
  O  O5  1  0.98776600  0.55489500  0.44024100  1
  O  O6  1  0.48780900  0.44543900  0.56322100  1
  O  O7  1  0.66231600  0.54175100  0.50174400  1
  O  O8  1  0.32860800  0.56907100  0.44383900  1
  O  O9  1  0.32864700  0.56924200  0.55964500  1
  O  O10  1  0.16213300  0.45861900  0.50174100  1
  O  O11  1  0.75858900  0.03907600  0.92960000  1
  O  O12  1  0.39049300  0.04290900  0.07587100  1
  O  O13  1  0.20963900  0.92828000  0.04207200  1
  O  O14  1  0.44504000  0.07878000  0.96080600  1
  O  O15  1  0.25852500  0.96315200  0.92938500  1
  O  O16  1  0.70937500  0.07341600  0.04243400  1
  O  O17  1  0.57596700  0.95671500  0.00109500  1
  O  O18  1  0.94534000  0.92322500  0.96040500  1
  O  O19  1  0.89053300  0.95848900  0.07561700  1
  O  O20  1  0.07606300  0.04513500  0.00135000  1
  O  O21  1  0.93759100  0.89587500  0.28286800  1
  O  O22  1  0.65982800  0.88183800  0.23009300  1
  O  O23  1  0.43984000  0.63648900  0.23339800  1
  O  O24  1  0.21062900  0.55480300  0.22663400  1
  O  O25  1  0.67906800  0.17446800  0.63297200  1
  O  O26  1  0.98150700  0.22086600  0.61844800  1
  O  O27  1  0.21400900  0.32853400  0.74353400  1
  O  O28  1  0.14117900  0.29725100  0.65416900  1
  O  O29  1  0.82572800  0.28747800  0.89534900  1
  O  O30  1  0.99927800  0.26529800  0.81569000  1
  O  O31  1  0.00612500  0.16478900  0.22985400  1
  O  O32  1  0.07649000  0.21222800  0.14575500  1
  O  O33  1  0.22960500  0.87407400  0.32649400  1
  O  O34  1  0.20193500  0.92933200  0.24386900  1
