# generated using pymatgen
data_ZnH9C16(NO2)2
_symmetry_space_group_name_H-M   'P 1'
_cell_length_a   12.32825700
_cell_length_b   10.98706800
_cell_length_c   8.44843500
_cell_angle_alpha   90.00000000
_cell_angle_beta   94.73172800
_cell_angle_gamma   90.00000000
_symmetry_Int_Tables_number   1
_chemical_formula_structural   ZnH9C16(NO2)2
_chemical_formula_sum   'Zn2 H18 C32 N4 O8'
_cell_volume   1140.45221843
_cell_formula_units_Z   2
loop_
 _symmetry_equiv_pos_site_id
 _symmetry_equiv_pos_as_xyz
  1  'x, y, z'
loop_
 _atom_site_type_symbol
 _atom_site_label
 _atom_site_symmetry_multiplicity
 _atom_site_fract_x
 _atom_site_fract_y
 _atom_site_fract_z
 _atom_site_occupancy
  Zn  Zn1  1  0.88202200  0.52745700  0.49429500  1
  Zn  Zn2  1  0.12325500  0.49644300  0.52397900  1
  H  H1  1  0.99764000  0.91972500  0.26390800  1
  H  H2  1  0.01063000  0.10478900  0.75482100  1
  H  H3  1  0.99809500  0.91960300  0.75327800  1
  H  H4  1  0.01045300  0.10487300  0.26521300  1
  H  H5  1  0.05091800  0.59704500  0.01538600  1
  H  H6  1  0.95062100  0.42619200  0.00268100  1
  H  H7  1  0.51823200  0.59271700  0.21830700  1
  H  H8  1  0.33328400  0.60288700  0.05823200  1
  H  H9  1  0.19540800  0.46717100  0.92770100  1
  H  H10  1  0.17546700  0.25825800  0.02542600  1
  H  H11  1  0.29663000  0.18402500  0.25016400  1
  H  H12  1  0.43624200  0.31430200  0.37588900  1
  H  H13  1  0.48382800  0.48436000  0.81018500  1
  H  H14  1  0.61180100  0.39247300  0.99830700  1
  H  H15  1  0.72779300  0.21441300  0.05620500  1
  H  H16  1  0.78253900  0.08567800  0.83847800  1
  H  H17  1  0.72022300  0.13551000  0.56240500  1
  H  H18  1  0.60511000  0.30998500  0.50202500  1
  C  C1  1  0.02625100  0.75441300  0.15250300  1
  C  C2  1  0.97902500  0.26947600  0.86581400  1
  C  C3  1  0.02630900  0.75430300  0.87175900  1
  C  C4  1  0.97900700  0.26953500  0.14652300  1
  C  C5  1  0.01019600  0.87860000  0.15167700  1
  C  C6  1  0.99716000  0.14564500  0.86689300  1
  C  C7  1  0.01053500  0.87853600  0.86858100  1
  C  C8  1  0.99694300  0.14567600  0.14987400  1
  C  C9  1  0.00886000  0.94436400  0.00991300  1
  C  C10  1  0.99901500  0.07985800  0.00864300  1
  C  C11  1  0.47682600  0.48099300  0.56691500  1
  C  C12  1  0.52982700  0.51665000  0.44356800  1
  C  C13  1  0.64594300  0.53357300  0.46300100  1
  C  C14  1  0.35969200  0.48006800  0.55233600  1
  C  C15  1  0.03977700  0.69427700  0.01382000  1
  C  C16  1  0.96385200  0.32922800  0.00432200  1
  C  C17  1  0.01806200  0.68077900  0.72741700  1
  C  C18  1  0.98721700  0.34318900  0.29075100  1
  C  C19  1  0.01883900  0.68092000  0.29506300  1
  C  C20  1  0.98642600  0.34309400  0.72335200  1
  C  C21  1  0.39165500  0.47130300  0.23060600  1
  C  C22  1  0.32483800  0.51115400  0.10182100  1
  C  C23  1  0.24720100  0.43512700  0.02853000  1
  C  C24  1  0.23611500  0.31809700  0.08306700  1
  C  C25  1  0.30378600  0.27674000  0.20948400  1
  C  C26  1  0.38191400  0.35240200  0.28271300  1
  C  C27  1  0.59991800  0.36555600  0.74677500  1
  C  C28  1  0.63513100  0.33631600  0.90166400  1
  C  C29  1  0.70055800  0.23626700  0.93462300  1
  C  C30  1  0.73127500  0.16421700  0.81278100  1
  C  C31  1  0.69637100  0.19232400  0.65806800  1
  C  C32  1  0.63093700  0.29245300  0.62449900  1
  N  N1  1  0.26550500  0.48088800  0.54084600  1
  N  N2  1  0.73975100  0.54264700  0.47734400  1
  N  N3  1  0.47193100  0.55190200  0.29925000  1
  N  N4  1  0.53284100  0.46942400  0.71924800  1
  O  O1  1  0.10715300  0.62970300  0.68425300  1
  O  O2  1  0.89822000  0.39421400  0.33403900  1
  O  O3  1  0.92131100  0.65521600  0.33763700  1
  O  O4  1  0.08388300  0.36870600  0.68060100  1
  O  O5  1  0.92030600  0.65071000  0.66654600  1
  O  O6  1  0.08488100  0.37325000  0.35169700  1
  O  O7  1  0.10737000  0.62558900  0.35431100  1
  O  O8  1  0.89796700  0.39836600  0.66401000  1
