# generated using pymatgen
data_Zn2H15C22Br3(NO2)4
_symmetry_space_group_name_H-M   'P 1'
_cell_length_a   12.74643300
_cell_length_b   9.06687800
_cell_length_c   8.56441300
_cell_angle_alpha   90.00000000
_cell_angle_beta   95.01454700
_cell_angle_gamma   90.00000000
_symmetry_Int_Tables_number   1
_chemical_formula_structural   Zn2H15C22Br3(NO2)4
_chemical_formula_sum   'Zn2 H15 C22 Br3 N4 O8'
_cell_volume   986.00384078
_cell_formula_units_Z   1
loop_
 _symmetry_equiv_pos_site_id
 _symmetry_equiv_pos_as_xyz
  1  'x, y, z'
loop_
 _atom_site_type_symbol
 _atom_site_label
 _atom_site_symmetry_multiplicity
 _atom_site_fract_x
 _atom_site_fract_y
 _atom_site_fract_z
 _atom_site_occupancy
  Zn  Zn1  1  0.50387900  0.83723200  0.50478100  1
  Zn  Zn2  1  0.49804400  0.16362100  0.50378500  1
  H  H1  1  0.85942400  0.96964300  0.29744200  1
  H  H2  1  0.14219400  0.02194000  0.71043400  1
  H  H3  1  0.14916300  0.01770000  0.21284900  1
  H  H4  1  0.57573200  0.05951800  0.01914800  1
  H  H5  1  0.42846500  0.95454200  0.99065100  1
  H  H6  1  0.41645600  0.60799000  0.69908000  1
  H  H7  1  0.37863700  0.37851200  0.66126500  1
  H  H8  1  0.42129800  0.60309400  0.27990900  1
  H  H9  1  0.46685700  0.36400200  0.25397100  1
  H  H10  1  0.66595600  0.60269200  0.53485100  1
  H  H11  1  0.65676100  0.36129400  0.58962500  1
  H  H12  1  0.60137500  0.62281600  0.71406300  1
  H  H13  1  0.56232700  0.39092200  0.73349000  1
  H  H14  1  0.56057200  0.63209500  0.27789600  1
  H  H15  1  0.60084900  0.39781900  0.32875000  1
  C  C1  1  0.70928800  0.00598900  0.17209300  1
  C  C2  1  0.81653000  0.98107600  0.18350600  1
  C  C3  1  0.87004800  0.97865000  0.04901600  1
  C  C4  1  0.81310100  0.98068500  0.90212900  1
  C  C5  1  0.70632500  0.00636200  0.89342100  1
  C  C6  1  0.65745500  0.03035800  0.02749700  1
  C  C7  1  0.18513500  0.01271400  0.82455700  1
  C  C8  1  0.29304900  0.99509600  0.83684100  1
  C  C9  1  0.34566600  0.97680100  0.98179600  1
  C  C10  1  0.29536500  0.99406300  0.11551500  1
  C  C11  1  0.18743200  0.00863600  0.10548400  1
  C  C12  1  0.13144700  0.01101800  0.95871800  1
  C  C13  1  0.64144600  0.00293600  0.74437700  1
  C  C14  1  0.35599900  0.99791100  0.70210800  1
  C  C15  1  0.35988800  0.99799800  0.26463900  1
  C  C16  1  0.64611000  0.00300600  0.30700600  1
  C  C17  1  0.40918800  0.58694100  0.57106500  1
  C  C18  1  0.39853300  0.42219500  0.54721200  1
  C  C19  1  0.49895500  0.58223600  0.34416900  1
  C  C20  1  0.51737900  0.41718500  0.34946500  1
  C  C21  1  0.59354300  0.57884000  0.59327800  1
  C  C22  1  0.58079600  0.41360500  0.61162400  1
  Br  Br1  1  0.87383400  0.94471500  0.70888400  1
  Br  Br2  1  0.28015200  0.67565800  0.47675600  1
  Br  Br3  1  0.28366100  0.38264900  0.38984700  1
  N  N1  1  0.98141500  0.97558600  0.06543100  1
  N  N2  1  0.02020600  0.01285600  0.94305700  1
  N  N3  1  0.50244000  0.64260700  0.50264100  1
  N  N4  1  0.49645100  0.35815700  0.50193500  1
  O  O1  1  0.60374900  0.12823800  0.68786100  1
  O  O2  1  0.61168900  0.87406100  0.68603500  1
  O  O3  1  0.39492700  0.87286500  0.65702800  1
  O  O4  1  0.38696400  0.12628300  0.65236000  1
  O  O5  1  0.39728400  0.87246400  0.32136300  1
  O  O6  1  0.39003300  0.12725200  0.32219600  1
  O  O7  1  0.60716600  0.12846900  0.35213500  1
  O  O8  1  0.61443000  0.87406600  0.35562100  1
