# generated using pymatgen
data_ZnH13C17NO4
_symmetry_space_group_name_H-M   'P 1'
_cell_length_a   15.02873500
_cell_length_b   8.45010600
_cell_length_c   12.83536300
_cell_angle_alpha   90.00000000
_cell_angle_beta   99.09848900
_cell_angle_gamma   90.00000000
_symmetry_Int_Tables_number   1
_chemical_formula_structural   ZnH13C17NO4
_chemical_formula_sum   'Zn2 H26 C34 N2 O8'
_cell_volume   1609.51033228
_cell_formula_units_Z   2
loop_
 _symmetry_equiv_pos_site_id
 _symmetry_equiv_pos_as_xyz
  1  'x, y, z'
loop_
 _atom_site_type_symbol
 _atom_site_label
 _atom_site_symmetry_multiplicity
 _atom_site_fract_x
 _atom_site_fract_y
 _atom_site_fract_z
 _atom_site_occupancy
  Zn  Zn1  1  0.50186000  0.49965300  0.88413400  1
  Zn  Zn2  1  0.49814000  0.49965300  0.11586600  1
  H  H1  1  0.56831200  0.99965100  0.05877200  1
  H  H2  1  0.43168800  0.99965100  0.94122800  1
  H  H3  1  0.80214800  0.74697900  0.00781700  1
  H  H4  1  0.19786000  0.25233500  0.99219700  1
  H  H5  1  0.19785200  0.74697900  0.99218300  1
  H  H6  1  0.80214000  0.25233500  0.00780300  1
  H  H7  1  0.93524700  0.99968200  0.16291200  1
  H  H8  1  0.06475300  0.99968200  0.83708800  1
  H  H9  1  0.24433800  0.86931100  0.17794800  1
  H  H10  1  0.14241100  0.75239600  0.16860400  1
  H  H11  1  0.20051500  0.81820700  0.29459400  1
  H  H12  1  0.24437700  0.12991200  0.17796500  1
  H  H13  1  0.20052100  0.18114600  0.29457300  1
  H  H14  1  0.14247600  0.24691300  0.16854400  1
  H  H15  1  0.03004500  0.89133700  0.29329200  1
  H  H16  1  0.03005200  0.10809900  0.29327500  1
  H  H17  1  0.11957300  0.99972300  0.37007500  1
  H  H18  1  0.75566200  0.86931100  0.82205200  1
  H  H19  1  0.85758900  0.75239600  0.83139600  1
  H  H20  1  0.79948500  0.81820700  0.70540600  1
  H  H21  1  0.75562300  0.12991200  0.82203500  1
  H  H22  1  0.79947900  0.18114600  0.70542700  1
  H  H23  1  0.85752400  0.24691300  0.83145600  1
  H  H24  1  0.96995500  0.89133700  0.70670800  1
  H  H25  1  0.96994800  0.10809900  0.70672500  1
  H  H26  1  0.88042700  0.99972300  0.62992500  1
  C  C1  1  0.68069600  0.85825800  0.03639600  1
  C  C2  1  0.31930600  0.14104700  0.96360700  1
  C  C3  1  0.31930400  0.85825800  0.96360400  1
  C  C4  1  0.68069400  0.14104700  0.03639300  1
  C  C5  1  0.76839600  0.85784900  0.01711600  1
  C  C6  1  0.23160900  0.14146300  0.98289200  1
  C  C7  1  0.23160400  0.85784900  0.98288400  1
  C  C8  1  0.76839100  0.14146300  0.01710800  1
  C  C9  1  0.81215700  0.99965800  0.00655600  1
  C  C10  1  0.18784300  0.99965800  0.99344400  1
  C  C11  1  0.63826200  0.99965200  0.04862000  1
  C  C12  1  0.36173800  0.99965200  0.95138000  1
  C  C13  1  0.96663000  0.99968000  0.09314900  1
  C  C14  1  0.03337000  0.99968000  0.90685100  1
  C  C15  1  0.05953700  0.99968000  0.09675200  1
  C  C16  1  0.94046300  0.99968000  0.90324800  1
  C  C17  1  0.09194500  0.99966900  0.00113300  1
  C  C18  1  0.90805500  0.99966900  0.99886700  1
  C  C19  1  0.50108100  0.49963100  0.54712200  1
  C  C20  1  0.49891900  0.49963100  0.45287800  1
  C  C21  1  0.50330200  0.49964100  0.65750200  1
  C  C22  1  0.49669900  0.49964100  0.34249800  1
  C  C23  1  0.62575000  0.71514500  0.02575000  1
  C  C24  1  0.37425200  0.28416000  0.97425100  1
  C  C25  1  0.37425000  0.71514500  0.97425000  1
  C  C26  1  0.62574800  0.28416000  0.02574900  1
  C  C27  1  0.12304100  0.99967500  0.20127700  1
  C  C28  1  0.18131300  0.85128900  0.21048700  1
  C  C29  1  0.18134400  0.14802100  0.21047100  1
  C  C30  1  0.07186400  0.99971300  0.29469000  1
  C  C31  1  0.87695900  0.99967500  0.79872300  1
  C  C32  1  0.81868700  0.85128900  0.78951300  1
  C  C33  1  0.81865700  0.14802100  0.78952900  1
  C  C34  1  0.92813600  0.99971300  0.70531000  1
  N  N1  1  0.50451200  0.49965200  0.74785300  1
  N  N2  1  0.49548800  0.49965200  0.25214700  1
  O  O1  1  0.59579400  0.66073100  0.10951500  1
  O  O2  1  0.40420800  0.33857200  0.89048500  1
  O  O3  1  0.40420700  0.66073100  0.89048500  1
  O  O4  1  0.59579200  0.33857200  0.10951500  1
  O  O5  1  0.59535700  0.66658000  0.92965400  1
  O  O6  1  0.40464300  0.33272700  0.07034600  1
  O  O7  1  0.40464400  0.66658000  0.07034600  1
  O  O8  1  0.59535700  0.33272700  0.92965400  1
