# generated using pymatgen
data_ZnH4C14N(O2F)2
_symmetry_space_group_name_H-M   'P 1'
_cell_length_a   8.54249800
_cell_length_b   8.78807800
_cell_length_c   13.28710400
_cell_angle_alpha   90.35312800
_cell_angle_beta   92.85459000
_cell_angle_gamma   82.92751700
_symmetry_Int_Tables_number   1
_chemical_formula_structural   ZnH4C14N(O2F)2
_chemical_formula_sum   'Zn2 H8 C28 N2 O8 F4'
_cell_volume   988.67325897
_cell_formula_units_Z   2
loop_
 _symmetry_equiv_pos_site_id
 _symmetry_equiv_pos_as_xyz
  1  'x, y, z'
loop_
 _atom_site_type_symbol
 _atom_site_label
 _atom_site_symmetry_multiplicity
 _atom_site_fract_x
 _atom_site_fract_y
 _atom_site_fract_z
 _atom_site_occupancy
  Zn  Zn1  1  0.50438400  0.51864100  0.11166200  1
  Zn  Zn2  1  0.49561500  0.48135900  0.88833800  1
  H  H1  1  0.98853500  0.60527200  0.95295700  1
  H  H2  1  0.01146400  0.39472900  0.04704300  1
  H  H3  1  0.73980800  0.41783300  0.75695500  1
  H  H4  1  0.26019100  0.58216700  0.24304500  1
  H  H5  1  0.24528800  0.51919400  0.73810800  1
  H  H6  1  0.75471100  0.48080600  0.26189200  1
  H  H7  1  0.10768200  0.57619900  0.57770100  1
  H  H8  1  0.89231700  0.42380100  0.42230000  1
  C  C1  1  0.10026600  0.80545400  0.97783500  1
  C  C2  1  0.89973300  0.19454700  0.02216600  1
  C  C3  1  0.97124700  0.72694900  0.96665700  1
  C  C4  1  0.02875200  0.27305100  0.03334400  1
  C  C5  1  0.82237200  0.79808500  0.98296100  1
  C  C6  1  0.17762700  0.20191500  0.01703900  1
  C  C7  1  0.79738600  0.95266300  0.00179900  1
  C  C8  1  0.20261300  0.04733700  0.99820100  1
  C  C9  1  0.92353500  0.03729200  0.00489600  1
  C  C10  1  0.07646400  0.96270800  0.99510500  1
  C  C11  1  0.25630800  0.71244300  0.98431900  1
  C  C12  1  0.74369100  0.28755700  0.01568100  1
  C  C13  1  0.30453500  0.29627600  0.01052700  1
  C  C14  1  0.69546400  0.70372400  0.98947300  1
  C  C15  1  0.63116100  0.44002800  0.71147700  1
  C  C16  1  0.36883800  0.55997200  0.28852400  1
  C  C17  1  0.35573900  0.49776500  0.70124600  1
  C  C18  1  0.64426000  0.50223500  0.29875400  1
  C  C19  1  0.35717800  0.51335700  0.59795600  1
  C  C20  1  0.64282000  0.48664300  0.40204500  1
  C  C21  1  0.49827600  0.49083800  0.55134900  1
  C  C22  1  0.50172200  0.50916200  0.44865100  1
  C  C23  1  0.63605700  0.45144000  0.60811100  1
  C  C24  1  0.36394200  0.54856000  0.39188900  1
  C  C25  1  0.21878300  0.55548900  0.54151100  1
  C  C26  1  0.78121600  0.44451100  0.45848900  1
  C  C27  1  0.22196100  0.57262100  0.43847900  1
  C  C28  1  0.77803800  0.42737900  0.56152100  1
  N  N1  1  0.49217500  0.46354500  0.75648300  1
  N  N2  1  0.50782400  0.53645500  0.24351800  1
  O  O1  1  0.30919100  0.64349000  0.90245300  1
  O  O2  1  0.69080800  0.35651000  0.09754800  1
  O  O3  1  0.32141000  0.67928900  0.07454800  1
  O  O4  1  0.67858900  0.32071200  0.92545200  1
  O  O5  1  0.35111000  0.36289100  0.09309800  1
  O  O6  1  0.64888900  0.63710900  0.90690300  1
  O  O7  1  0.35122800  0.32556600  0.92083100  1
  O  O8  1  0.64877100  0.67443400  0.07916900  1
  F  F1  1  0.64960200  0.01845400  0.01976100  1
  F  F2  1  0.35039700  0.98154600  0.98024000  1
  F  F3  1  0.08552600  0.61444400  0.38372300  1
  F  F4  1  0.91447300  0.38555600  0.61627800  1
