# generated using pymatgen
data_CuH20C32N3O4
_symmetry_space_group_name_H-M   'P 1'
_cell_length_a   16.03882800
_cell_length_b   14.61507600
_cell_length_c   19.22601600
_cell_angle_alpha   90.00000000
_cell_angle_beta   89.99519800
_cell_angle_gamma   90.00000000
_symmetry_Int_Tables_number   1
_chemical_formula_structural   CuH20C32N3O4
_chemical_formula_sum   'Cu2 H40 C64 N6 O8'
_cell_volume   4506.74521194
_cell_formula_units_Z   2
loop_
 _symmetry_equiv_pos_site_id
 _symmetry_equiv_pos_as_xyz
  1  'x, y, z'
loop_
 _atom_site_type_symbol
 _atom_site_label
 _atom_site_symmetry_multiplicity
 _atom_site_fract_x
 _atom_site_fract_y
 _atom_site_fract_z
 _atom_site_occupancy
  Cu  Cu1  1  0.50240200  0.59175200  0.49979000  1
  Cu  Cu2  1  0.50225000  0.40869500  0.49985500  1
  H  H1  1  0.52491700  0.64195200  0.28262200  1
  H  H2  1  0.51461700  0.35676000  0.71736000  1
  H  H3  1  0.49558100  0.64625900  0.71762700  1
  H  H4  1  0.48310200  0.35557000  0.28213500  1
  H  H5  1  0.07885300  0.64606600  0.50031700  1
  H  H6  1  0.92575400  0.35438200  0.49932800  1
  H  H7  1  0.92546400  0.64587900  0.49987400  1
  H  H8  1  0.07914300  0.35456800  0.49977100  1
  H  H9  1  0.59374500  0.08448500  0.57992900  1
  H  H10  1  0.41191400  0.91602100  0.41850400  1
  H  H11  1  0.41168400  0.08434400  0.41863200  1
  H  H12  1  0.59369400  0.91614300  0.58010100  1
  H  H13  1  0.47739300  0.67133800  0.09940500  1
  H  H14  1  0.58817900  0.66523600  0.11420000  1
  H  H15  1  0.38764800  0.74032200  0.19571100  1
  H  H16  1  0.37611800  0.88070100  0.26527600  1
  H  H17  1  0.50120000  0.97184700  0.29109700  1
  H  H18  1  0.63793000  0.92278700  0.24689600  1
  H  H19  1  0.65020400  0.78269200  0.17770800  1
  H  H20  1  0.46589100  0.32346800  0.89034300  1
  H  H21  1  0.57689100  0.33957300  0.89705300  1
  H  H22  1  0.41595800  0.19759500  0.82816100  1
  H  H23  1  0.44422300  0.05882300  0.76066400  1
  H  H24  1  0.58388100  0.03168700  0.71221100  1
  H  H25  1  0.69567100  0.14408000  0.73127700  1
  H  H26  1  0.66805900  0.28330900  0.79899100  1
  H  H27  1  0.45009300  0.67091000  0.89558100  1
  H  H28  1  0.47702000  0.72736300  0.81641900  1
  H  H29  1  0.53437200  0.72283800  0.98595200  1
  H  H30  1  0.66914700  0.77328500  0.03216500  1
  H  H31  1  0.79108300  0.78379400  0.95513500  1
  H  H32  1  0.77762300  0.74492200  0.83122200  1
  H  H33  1  0.64319400  0.69523300  0.78433000  1
  H  H34  1  0.43875800  0.33139100  0.10432800  1
  H  H35  1  0.46429000  0.27461600  0.18357600  1
  H  H36  1  0.52279800  0.27941100  0.01369100  1
  H  H37  1  0.65648000  0.22418200  0.96808900  1
  H  H38  1  0.77714100  0.20818700  0.04586500  1
  H  H39  1  0.76361800  0.24608700  0.16994700  1
  H  H40  1  0.63025900  0.30003900  0.21627600  1
  C  C1  1  0.34229300  0.50037700  0.50034400  1
  C  C2  1  0.66231400  0.50007100  0.49930600  1
  C  C3  1  0.50224100  0.49982200  0.36604600  1
  C  C4  1  0.50359000  0.50063300  0.63362800  1
  C  C5  1  0.51485300  0.58005100  0.25336900  1
  C  C6  1  0.51302000  0.41977900  0.74640100  1
  C  C7  1  0.50142500  0.58261900  0.74575700  1
  C  C8  1  0.49236600  0.41866700  0.25393300  1
  C  C9  1  0.51547600  0.58014500  0.18109500  1
  C  C10  1  0.51700100  0.42012000  0.81860300  1
  C  C11  1  0.50442800  0.58413000  0.81750800  1
  C  C12  1  0.49528000  0.41699800  0.18218800  1
  C  C13  1  0.50712800  0.49785800  0.14553300  1
  C  C14  1  0.51197800  0.50268300  0.85411000  1
  C  C15  1  0.50298300  0.49959500  0.28969200  1
  C  C16  1  0.50595800  0.50092800  0.71000800  1
  C  C17  1  0.51091400  0.50253500  0.93035100  1
  C  C18  1  0.50873200  0.49752200  0.06926800  1
  C  C19  1  0.95923900  0.58187900  0.49984500  1
  C  C20  1  0.04536800  0.41856900  0.49980000  1
  C  C21  1  0.04520700  0.58198400  0.50010600  1
  C  C22  1  0.95940000  0.41846400  0.49953900  1
  C  C23  1  0.91634300  0.50012000  0.49955700  1
  C  C24  1  0.08826400  0.50032800  0.50008900  1
  C  C25  1  0.82689100  0.50002400  0.49936500  1
  C  C26  1  0.17771600  0.50042300  0.50028200  1
  C  C27  1  0.25283800  0.50044600  0.50036900  1
  C  C28  1  0.75176800  0.50000100  0.49928000  1
  C  C29  1  0.55372100  0.95309300  0.54460700  1
  C  C30  1  0.45166700  0.04737900  0.45410700  1
  C  C31  1  0.45178700  0.95303500  0.45404100  1
  C  C32  1  0.55369100  0.04742200  0.54458300  1
  C  C33  1  0.50273200  0.90590700  0.49935700  1
  C  C34  1  0.50253500  0.09454900  0.49946500  1
  C  C35  1  0.50263100  0.80774800  0.49948300  1
  C  C36  1  0.50229400  0.19270200  0.49975900  1
  C  C37  1  0.52639500  0.66698500  0.13993300  1
  C  C38  1  0.51971400  0.75176000  0.18283700  1
  C  C39  1  0.44281400  0.78013900  0.20699500  1
  C  C40  1  0.43626000  0.85894500  0.24603500  1
  C  C41  1  0.50636200  0.91005200  0.26050200  1
  C  C42  1  0.58301100  0.88251900  0.23573000  1
  C  C43  1  0.58974400  0.80367400  0.19674000  1
  C  C44  1  0.52415000  0.33327100  0.86021400  1
  C  C45  1  0.54003400  0.25008900  0.81725400  1
  C  C46  1  0.47752200  0.18650900  0.80690300  1
  C  C47  1  0.49326900  0.10836400  0.76893200  1
  C  C48  1  0.57156100  0.09315500  0.74173600  1
  C  C49  1  0.63420900  0.15615100  0.75243700  1
  C  C50  1  0.61861100  0.23434400  0.79037900  1
  C  C51  1  0.49772500  0.67444300  0.85390200  1
  C  C52  1  0.58014100  0.70355100  0.88242700  1
  C  C53  1  0.58768300  0.72670700  0.95178300  1
  C  C54  1  0.66341200  0.75527700  0.97785600  1
  C  C55  1  0.73175200  0.76130700  0.93467300  1
  C  C56  1  0.72420800  0.73941900  0.86525100  1
  C  C57  1  0.64849700  0.71101500  0.83904900  1
  C  C58  1  0.48626300  0.32680300  0.14600100  1
  C  C59  1  0.56804500  0.29532900  0.11769000  1
  C  C60  1  0.57563400  0.27306200  0.04818500  1
  C  C61  1  0.65069900  0.24185300  0.02246400  1
  C  C62  1  0.71834600  0.23268800  0.06607400  1
  C  C63  1  0.71077000  0.25401600  0.13558800  1
  C  C64  1  0.63569100  0.28483400  0.16146900  1
  N  N1  1  0.43693200  0.49255900  0.03325800  1
  N  N2  1  0.58277900  0.50713700  0.96632900  1
  N  N3  1  0.43802800  0.49484800  0.96451800  1
  N  N4  1  0.58166100  0.50515600  0.03509700  1
  N  N5  1  0.50216500  0.27185500  0.49999800  1
  N  N6  1  0.50253400  0.72859300  0.49961200  1
  O  O1  1  0.38124400  0.57894300  0.50247900  1
  O  O2  1  0.62341300  0.42135200  0.49681100  1
  O  O3  1  0.62356700  0.57886200  0.50201800  1
  O  O4  1  0.38109400  0.42173800  0.49798300  1
  O  O5  1  0.50479400  0.57843100  0.39873700  1
  O  O6  1  0.50563900  0.42201100  0.60089500  1
  O  O7  1  0.50532000  0.57922000  0.60088300  1
  O  O8  1  0.50417800  0.42122600  0.39874500  1
