# generated using pymatgen
data_CuH15C23NO6
_symmetry_space_group_name_H-M   'P 1'
_cell_length_a   15.92483400
_cell_length_b   10.94637300
_cell_length_c   9.54379700
_cell_angle_alpha   89.99981700
_cell_angle_beta   90.00589300
_cell_angle_gamma   90.00077900
_symmetry_Int_Tables_number   1
_chemical_formula_structural   CuH15C23NO6
_chemical_formula_sum   'Cu2 H30 C46 N2 O12'
_cell_volume   1663.66679066
_cell_formula_units_Z   2
loop_
 _symmetry_equiv_pos_site_id
 _symmetry_equiv_pos_as_xyz
  1  'x, y, z'
loop_
 _atom_site_type_symbol
 _atom_site_label
 _atom_site_symmetry_multiplicity
 _atom_site_fract_x
 _atom_site_fract_y
 _atom_site_fract_z
 _atom_site_occupancy
  Cu  Cu1  1  0.50205300  0.49953600  0.63825200  1
  Cu  Cu2  1  0.49933400  0.50656000  0.35766000  1
  H  H1  1  0.05212700  0.31490300  0.39176500  1
  H  H2  1  0.94939600  0.69172900  0.60390800  1
  H  H3  1  0.94719000  0.33115200  0.63331200  1
  H  H4  1  0.05423100  0.67534500  0.36242800  1
  H  H5  1  0.43395500  0.08408600  0.02730900  1
  H  H6  1  0.56444900  0.92237600  0.96994700  1
  H  H7  1  0.61732500  0.20957100  0.69024600  1
  H  H8  1  0.38310600  0.79613500  0.30689700  1
  H  H9  1  0.63341800  0.11745400  0.91783200  1
  H  H10  1  0.36575900  0.88854700  0.07978800  1
  H  H11  1  0.48825600  0.81657400  0.79265200  1
  H  H12  1  0.51115300  0.18951800  0.20344600  1
  H  H13  1  0.60934800  0.67959500  0.24367800  1
  H  H14  1  0.39158600  0.32738200  0.75208000  1
  H  H15  1  0.71263900  0.78080100  0.12193200  1
  H  H16  1  0.28691400  0.22857000  0.87358700  1
  H  H17  1  0.61697400  0.65931500  0.74479000  1
  H  H18  1  0.38677700  0.34715200  0.25029700  1
  H  H19  1  0.99530600  0.48120200  0.14737200  1
  H  H20  1  0.90362100  0.56883800  0.19633000  1
  H  H21  1  0.92389900  0.32922200  0.14292800  1
  H  H22  1  0.00601900  0.52462700  0.84842700  1
  H  H23  1  0.09877100  0.60281900  0.78593500  1
  H  H24  1  0.07439100  0.37112600  0.87495800  1
  H  H25  1  0.26616600  0.12220600  0.11928700  1
  H  H26  1  0.19754900  0.25225100  0.10843100  1
  H  H27  1  0.27102500  0.15070700  0.32705200  1
  H  H28  1  0.77696200  0.83999600  0.91437900  1
  H  H29  1  0.70705700  0.84650500  0.76631500  1
  H  H30  1  0.82588800  0.66766600  0.84385400  1
  C  C1  1  0.50817400  0.26664400  0.49001400  1
  C  C2  1  0.49309800  0.73940600  0.50597800  1
  C  C3  1  0.33942400  0.50134900  0.50235000  1
  C  C4  1  0.66194300  0.50486300  0.49357500  1
  C  C5  1  0.97209500  0.40843900  0.57072700  1
  C  C6  1  0.02929500  0.59807500  0.42501300  1
  C  C7  1  0.02812400  0.39970400  0.44114700  1
  C  C8  1  0.97326500  0.60682200  0.55459800  1
  C  C9  1  0.24927800  0.50120600  0.50374500  1
  C  C10  1  0.75209100  0.50515500  0.49217000  1
  C  C11  1  0.02680800  0.51086600  0.62599700  1
  C  C12  1  0.97457000  0.49565100  0.36974900  1
  C  C13  1  0.08170800  0.50227800  0.49870400  1
  C  C14  1  0.91967200  0.50424500  0.49705900  1
  C  C15  1  0.17359200  0.50153600  0.50242600  1
  C  C16  1  0.82778000  0.50493000  0.49342900  1
  C  C17  1  0.58563400  0.12405800  0.70936800  1
  C  C18  1  0.41454600  0.88181300  0.28755900  1
  C  C19  1  0.59773100  0.07070500  0.83777500  1
  C  C20  1  0.40169600  0.93534700  0.15949900  1
  C  C21  1  0.56069400  0.96080000  0.86593100  1
  C  C22  1  0.43823200  0.04556800  0.13122800  1
  C  C23  1  0.52062200  0.89784600  0.76082600  1
  C  C24  1  0.47890000  0.10835000  0.23579000  1
  C  C25  1  0.51540400  0.94511900  0.62543500  1
  C  C26  1  0.48491500  0.06090800  0.37099600  1
  C  C27  1  0.53738500  0.06705100  0.60679000  1
  C  C28  1  0.46308200  0.93891400  0.38967600  1
  C  C29  1  0.48589700  0.87636200  0.51115700  1
  C  C30  1  0.51489500  0.12960300  0.48505300  1
  C  C31  1  0.60892900  0.65999600  0.13559500  1
  C  C32  1  0.39187100  0.34733000  0.86005100  1
  C  C33  1  0.66953300  0.72303900  0.06478100  1
  C  C34  1  0.33055400  0.28569300  0.93047800  1
  C  C35  1  0.67264500  0.71596800  0.92322100  1
  C  C36  1  0.32710300  0.29150500  0.07192100  1
  C  C37  1  0.61405000  0.64729900  0.85416000  1
  C  C38  1  0.38691900  0.35899900  0.14140500  1
  C  C39  1  0.55585800  0.57225900  0.92293300  1
  C  C40  1  0.44527300  0.43406100  0.07275000  1
  C  C41  1  0.55335000  0.57895800  0.07013700  1
  C  C42  1  0.44777800  0.42759700  0.92562200  1
  C  C43  1  0.94169000  0.48682700  0.22123500  1
  C  C44  1  0.05965200  0.51959300  0.77453500  1
  C  C45  1  0.25982300  0.22040500  0.14548900  1
  C  C46  1  0.73758000  0.78456800  0.84273600  1
  N  N1  1  0.50374100  0.49545000  0.84932900  1
  N  N2  1  0.49766200  0.51059000  0.14654400  1
  O  O1  1  0.50169400  0.32232900  0.61199500  1
  O  O2  1  0.49921500  0.68377700  0.38386400  1
  O  O3  1  0.50529000  0.32890200  0.37344400  1
  O  O4  1  0.49674700  0.67722400  0.62254900  1
  O  O5  1  0.37983300  0.49450900  0.62114600  1
  O  O6  1  0.62153500  0.51237900  0.37480300  1
  O  O7  1  0.37751300  0.50862100  0.38165800  1
  O  O8  1  0.62385900  0.49675400  0.61423500  1
  O  O9  1  0.89212300  0.38251400  0.20782600  1
  O  O10  1  0.10789300  0.41668300  0.80492800  1
  O  O11  1  0.26407000  0.23474400  0.29050600  1
  O  O12  1  0.78863000  0.70222600  0.77088100  1
