# generated using pymatgen
data_Cu3H34(C7O2)6
_symmetry_space_group_name_H-M   'P 1'
_cell_length_a   30.60070200
_cell_length_b   31.81030600
_cell_length_c   21.62641600
_cell_angle_alpha   90.00000000
_cell_angle_beta   135.01622400
_cell_angle_gamma   90.00000000
_symmetry_Int_Tables_number   1
_chemical_formula_structural   Cu3H34(C7O2)6
_chemical_formula_sum   'Cu12 H136 C168 O48'
_cell_volume   14881.46820116
_cell_formula_units_Z   4
loop_
 _symmetry_equiv_pos_site_id
 _symmetry_equiv_pos_as_xyz
  1  'x, y, z'
loop_
 _atom_site_type_symbol
 _atom_site_label
 _atom_site_symmetry_multiplicity
 _atom_site_fract_x
 _atom_site_fract_y
 _atom_site_fract_z
 _atom_site_occupancy
  Cu  Cu1  1  0.44592000  0.00252000  0.44161400  1
  Cu  Cu2  1  0.94592000  0.50252000  0.44161400  1
  Cu  Cu3  1  0.56912200  0.00317000  0.56506000  1
  Cu  Cu4  1  0.06912200  0.50317000  0.56506000  1
  Cu  Cu5  1  0.50513100  0.50364400  0.43848600  1
  Cu  Cu6  1  0.00513100  0.00364400  0.43848600  1
  Cu  Cu7  1  0.50385400  0.50214800  0.56036300  1
  Cu  Cu8  1  0.00385400  0.00214800  0.56036300  1
  Cu  Cu9  1  0.50576700  0.96310800  0.99986100  1
  Cu  Cu10  1  0.50291200  0.04468500  0.00043500  1
  Cu  Cu11  1  0.00576700  0.46310800  0.99986100  1
  Cu  Cu12  1  0.00291200  0.54468500  0.00043500  1
  H  H1  1  0.58622800  0.77915400  0.51433600  1
  H  H2  1  0.52918100  0.22709000  0.41794700  1
  H  H3  1  0.08622800  0.27915400  0.51433600  1
  H  H4  1  0.02918100  0.72709000  0.41794700  1
  H  H5  1  0.48528100  0.72706800  0.38222100  1
  H  H6  1  0.42734900  0.27840800  0.34581700  1
  H  H7  1  0.98528100  0.22706800  0.38222100  1
  H  H8  1  0.92734900  0.77840800  0.34581700  1
  H  H9  1  0.61027800  0.72658800  0.64077300  1
  H  H10  1  0.60489100  0.27972400  0.56659100  1
  H  H11  1  0.11027800  0.22658800  0.64077300  1
  H  H12  1  0.10489100  0.77972400  0.56659100  1
  H  H13  1  0.53323400  0.77921500  0.63630200  1
  H  H14  1  0.58074900  0.22706300  0.64535200  1
  H  H15  1  0.03323400  0.27921500  0.63630200  1
  H  H16  1  0.08074900  0.72706300  0.64535200  1
  H  H17  1  0.40789300  0.77915100  0.37782000  1
  H  H18  1  0.40319900  0.22540700  0.42442000  1
  H  H19  1  0.90789300  0.27915100  0.37782000  1
  H  H20  1  0.90319900  0.72540700  0.42442000  1
  H  H21  1  0.58894800  0.96190100  0.38960500  1
  H  H22  1  0.08894800  0.46190100  0.38960500  1
  H  H23  1  0.58696300  0.96130200  0.27411500  1
  H  H24  1  0.08696300  0.46130200  0.27411500  1
  H  H25  1  0.36848200  0.03197200  0.05740500  1
  H  H26  1  0.41895600  0.08033400  0.10963500  1
  H  H27  1  0.86848200  0.53197200  0.05740500  1
  H  H28  1  0.91895600  0.58033400  0.10963500  1
  H  H29  1  0.36789500  0.03055700  0.16928900  1
  H  H30  1  0.41888400  0.07866900  0.22196100  1
  H  H31  1  0.86789500  0.53055700  0.16928900  1
  H  H32  1  0.91888400  0.57866900  0.22196100  1
  H  H33  1  0.58922100  0.04352600  0.78008600  1
  H  H34  1  0.08922100  0.54352600  0.78008600  1
  H  H35  1  0.58657900  0.04517700  0.89103000  1
  H  H36  1  0.08657900  0.54517700  0.89103000  1
  H  H37  1  0.36670300  0.97622400  0.66905800  1
  H  H38  1  0.41660800  0.92759800  0.71834100  1
  H  H39  1  0.86670300  0.47622400  0.66905800  1
  H  H40  1  0.91660800  0.42759800  0.71834100  1
  H  H41  1  0.36672000  0.97684900  0.55659100  1
  H  H42  1  0.41705900  0.92840800  0.60638500  1
  H  H43  1  0.86672000  0.47684900  0.55659100  1
  H  H44  1  0.91705900  0.42840800  0.60638500  1
  H  H45  1  0.31095600  0.53350500  0.39443800  1
  H  H46  1  0.81095600  0.03350500  0.39443800  1
  H  H47  1  0.69768500  0.03510200  0.28193200  1
  H  H48  1  0.19768500  0.53510200  0.28193200  1
  H  H49  1  0.69089500  0.99578600  0.04268800  1
  H  H50  1  0.69220300  0.94137900  0.07717600  1
  H  H51  1  0.19089500  0.49578600  0.04268800  1
  H  H52  1  0.19220300  0.44137900  0.07717600  1
  H  H53  1  0.69898500  0.45962900  0.77465300  1
  H  H54  1  0.19898500  0.95962900  0.77465300  1
  H  H55  1  0.31250600  0.95897900  0.88704100  1
  H  H56  1  0.81250600  0.45897900  0.88704100  1
  H  H57  1  0.31218800  0.03741500  0.67386100  1
  H  H58  1  0.31007000  0.08384200  0.72596100  1
  H  H59  1  0.81218800  0.53741500  0.67386100  1
  H  H60  1  0.81007000  0.58384200  0.72596100  1
  H  H61  1  0.69977900  0.53596100  0.55984100  1
  H  H62  1  0.69771300  0.58217300  0.61243600  1
  H  H63  1  0.19977900  0.03596100  0.55984100  1
  H  H64  1  0.19771300  0.08217300  0.61243600  1
  H  H65  1  0.36031800  0.50842500  0.19881900  1
  H  H66  1  0.28693500  0.53481100  0.12565400  1
  H  H67  1  0.24957100  0.47906400  0.01034400  1
  H  H68  1  0.32864800  0.46085500  0.08594200  1
  H  H69  1  0.36268900  0.53281900  0.09003900  1
  H  H70  1  0.28306900  0.55027800  0.01213700  1
  H  H71  1  0.33595000  0.48013500  0.98282100  1
  H  H72  1  0.31588200  0.53279800  0.93853300  1
  H  H73  1  0.25611600  0.49732500  0.90507300  1
  H  H74  1  0.36498600  0.43259900  0.23532600  1
  H  H75  1  0.29423600  0.41209000  0.13274500  1
  H  H76  1  0.25516100  0.40299700  0.20506400  1
  H  H77  1  0.33205100  0.41725300  0.30751900  1
  H  H78  1  0.37699700  0.35855100  0.29741800  1
  H  H79  1  0.30353200  0.34553700  0.18865900  1
  H  H80  1  0.32672300  0.34748900  0.35174300  1
  H  H81  1  0.32952900  0.30066300  0.30709700  1
  H  H82  1  0.25804100  0.32952800  0.24342100  1
  H  H83  1  0.86031800  0.00842500  0.19881900  1
  H  H84  1  0.78693500  0.03481100  0.12565400  1
  H  H85  1  0.74957100  0.97906400  0.01034400  1
  H  H86  1  0.82864800  0.96085500  0.08594200  1
  H  H87  1  0.86268900  0.03281900  0.09003900  1
  H  H88  1  0.78306900  0.05027800  0.01213700  1
  H  H89  1  0.83595000  0.98013500  0.98282100  1
  H  H90  1  0.81588200  0.03279800  0.93853300  1
  H  H91  1  0.75611600  0.99732500  0.90507300  1
  H  H92  1  0.86498600  0.93259900  0.23532600  1
  H  H93  1  0.79423600  0.91209000  0.13274500  1
  H  H94  1  0.75516100  0.90299700  0.20506400  1
  H  H95  1  0.83205100  0.91725300  0.30751900  1
  H  H96  1  0.87699700  0.85855100  0.29741800  1
  H  H97  1  0.80353200  0.84553700  0.18865900  1
  H  H98  1  0.82672300  0.84748900  0.35174300  1
  H  H99  1  0.82952900  0.80066300  0.30709700  1
  H  H100  1  0.75804100  0.82952800  0.24342100  1
  H  H101  1  0.38909800  0.70023500  0.44716400  1
  H  H102  1  0.38921100  0.75033000  0.48659300  1
  H  H103  1  0.47303600  0.72737900  0.63902700  1
  H  H104  1  0.47946600  0.67799900  0.60460000  1
  H  H105  1  0.37160500  0.66019500  0.52546700  1
  H  H106  1  0.36435200  0.70991800  0.55824100  1
  H  H107  1  0.45808300  0.64009100  0.68170800  1
  H  H108  1  0.38838200  0.65180500  0.65477300  1
  H  H109  1  0.45052600  0.68977900  0.71440100  1
  H  H110  1  0.51404800  0.30207000  0.64167800  1
  H  H111  1  0.47536200  0.25284800  0.61834800  1
  H  H112  1  0.37792000  0.28252000  0.47504800  1
  H  H113  1  0.41718500  0.33225500  0.50404000  1
  H  H114  1  0.43768100  0.33547800  0.63755700  1
  H  H115  1  0.39722100  0.28613800  0.60717100  1
  H  H116  1  0.34253500  0.36755200  0.49870600  1
  H  H117  1  0.32907500  0.34666700  0.56183200  1
  H  H118  1  0.30203800  0.31813400  0.46768400  1
  H  H119  1  0.88909800  0.20023500  0.44716400  1
  H  H120  1  0.88921100  0.25033000  0.48659300  1
  H  H121  1  0.97303600  0.22737900  0.63902700  1
  H  H122  1  0.97946600  0.17799900  0.60460000  1
  H  H123  1  0.87160500  0.16019500  0.52546700  1
  H  H124  1  0.86435200  0.20991800  0.55824100  1
  H  H125  1  0.95808300  0.14009100  0.68170800  1
  H  H126  1  0.88838200  0.15180500  0.65477300  1
  H  H127  1  0.95052600  0.18977900  0.71440100  1
  H  H128  1  0.01404800  0.80207000  0.64167800  1
  H  H129  1  0.97536200  0.75284800  0.61834800  1
  H  H130  1  0.87792000  0.78252000  0.47504800  1
  H  H131  1  0.91718500  0.83225500  0.50404000  1
  H  H132  1  0.93768100  0.83547800  0.63755700  1
  H  H133  1  0.89722100  0.78613800  0.60717100  1
  H  H134  1  0.84253500  0.86755200  0.49870600  1
  H  H135  1  0.82907500  0.84666700  0.56183200  1
  H  H136  1  0.80203800  0.81813400  0.46768400  1
  C  C1  1  0.50767500  0.00099800  0.38489600  1
  C  C2  1  0.00767500  0.50099800  0.38489600  1
  C  C3  1  0.50875800  0.92225600  0.50778300  1
  C  C4  1  0.50631000  0.08343500  0.49989600  1
  C  C5  1  0.00875800  0.42225600  0.50778300  1
  C  C6  1  0.00631100  0.58343500  0.49989600  1
  C  C7  1  0.50735300  0.00479400  0.62188800  1
  C  C8  1  0.00735300  0.50479400  0.62188800  1
  C  C9  1  0.49601500  0.73933400  0.43973900  1
  C  C10  1  0.46196900  0.26625600  0.41376700  1
  C  C11  1  0.99601500  0.23933400  0.43973900  1
  C  C12  1  0.96196900  0.76625600  0.41376700  1
  C  C13  1  0.55127000  0.76663500  0.51201700  1
  C  C14  1  0.51777500  0.23932100  0.45317100  1
  C  C15  1  0.05127000  0.26663500  0.51201700  1
  C  C16  1  0.01777500  0.73932100  0.45317100  1
  C  C17  1  0.50918600  0.87715100  0.50875000  1
  C  C18  1  0.50590700  0.12852100  0.49797300  1
  C  C19  1  0.00918600  0.37715100  0.50875000  1
  C  C20  1  0.00590700  0.62852100  0.49797300  1
  C  C21  1  0.50790900  0.62861200  0.50578300  1
  C  C22  1  0.50256400  0.37710000  0.49477000  1
  C  C23  1  0.00790900  0.12861200  0.50578300  1
  C  C24  1  0.00256400  0.87710000  0.49477000  1
  C  C25  1  0.45396800  0.76680200  0.43715000  1
  C  C26  1  0.44880000  0.23836400  0.45646200  1
  C  C27  1  0.95396800  0.26680200  0.43715000  1
  C  C28  1  0.94880000  0.73836400  0.45646200  1
  C  C29  1  0.50928500  0.79329900  0.50949600  1
  C  C30  1  0.50472900  0.21235500  0.49595300  1
  C  C31  1  0.00928500  0.29329900  0.50949600  1
  C  C32  1  0.00472900  0.71235500  0.49595300  1
  C  C33  1  0.46784500  0.73946000  0.50661600  1
  C  C34  1  0.49046800  0.26588400  0.53719800  1
  C  C35  1  0.96784500  0.23946000  0.50661600  1
  C  C36  1  0.99046800  0.76588400  0.53719800  1
  C  C37  1  0.50915400  0.71246400  0.50887600  1
  C  C38  1  0.50341100  0.29323100  0.49510000  1
  C  C39  1  0.00915400  0.21246400  0.50887600  1
  C  C40  1  0.00341100  0.79323100  0.49510000  1
  C  C41  1  0.52248200  0.76667800  0.57893100  1
  C  C42  1  0.54619800  0.23915200  0.57733500  1
  C  C43  1  0.02248200  0.26667800  0.57893100  1
  C  C44  1  0.04619800  0.73915200  0.57733500  1
  C  C45  1  0.56441400  0.73908600  0.58122900  1
  C  C46  1  0.55917100  0.26697500  0.53446000  1
  C  C47  1  0.06441400  0.23908600  0.58122900  1
  C  C48  1  0.05917100  0.76697500  0.53446000  1
  C  C49  1  0.50934600  0.83927600  0.50927200  1
  C  C50  1  0.50546800  0.16638800  0.49681200  1
  C  C51  1  0.00934600  0.33927600  0.50927200  1
  C  C52  1  0.00546800  0.66638800  0.49681200  1
  C  C53  1  0.50861100  0.66647800  0.50737800  1
  C  C54  1  0.50295800  0.33922500  0.49471500  1
  C  C55  1  0.00861100  0.16647800  0.50737800  1
  C  C56  1  0.00295800  0.83922500  0.49471500  1
  C  C57  1  0.46347200  0.02072300  0.23939600  1
  C  C58  1  0.96347200  0.52072300  0.23939600  1
  C  C59  1  0.50776500  0.00018000  0.31747100  1
  C  C60  1  0.00776500  0.50018000  0.31747100  1
  C  C61  1  0.55299300  0.97891200  0.32957300  1
  C  C62  1  0.05299300  0.47891200  0.32957300  1
  C  C63  1  0.55164600  0.97835500  0.26368600  1
  C  C64  1  0.05164600  0.47835500  0.26368600  1
  C  C65  1  0.50673700  0.00066200  0.18665300  1
  C  C66  1  0.00673700  0.50066200  0.18665300  1
  C  C67  1  0.46391100  0.02182800  0.17854800  1
  C  C68  1  0.96391100  0.52182800  0.17854800  1
  C  C69  1  0.40824200  0.04881900  0.11803100  1
  C  C70  1  0.90824200  0.54881900  0.11803100  1
  C  C71  1  0.40798500  0.04777900  0.18993400  1
  C  C72  1  0.90798500  0.54777900  0.18993400  1
  C  C73  1  0.46228800  0.98627400  0.67811700  1
  C  C74  1  0.96228800  0.48627400  0.67811700  1
  C  C75  1  0.50721900  0.00605900  0.68923000  1
  C  C76  1  0.00721900  0.50605900  0.68923000  1
  C  C77  1  0.55274700  0.02714200  0.76779500  1
  C  C78  1  0.05274700  0.52714200  0.76779500  1
  C  C79  1  0.55099700  0.02833700  0.83055800  1
  C  C80  1  0.05099700  0.52833700  0.83055800  1
  C  C81  1  0.50541200  0.00677300  0.81715200  1
  C  C82  1  0.00541200  0.50677300  0.81715200  1
  C  C83  1  0.46239900  0.98565800  0.73952100  1
  C  C84  1  0.96239900  0.48565800  0.73952100  1
  C  C85  1  0.40637200  0.95902600  0.68841700  1
  C  C86  1  0.90637200  0.45902600  0.68841700  1
  C  C87  1  0.40647400  0.95952400  0.61634300  1
  C  C88  1  0.90647400  0.45952400  0.61634300  1
  C  C89  1  0.38570100  0.50461900  0.37885700  1
  C  C90  1  0.88570100  0.00461900  0.37885700  1
  C  C91  1  0.50684400  0.58352400  0.50349800  1
  C  C92  1  0.50244900  0.42219900  0.49572700  1
  C  C93  1  0.00684400  0.08352400  0.50349800  1
  C  C94  1  0.00244900  0.92219900  0.49572700  1
  C  C95  1  0.62308300  0.50140000  0.61974300  1
  C  C96  1  0.12308300  0.00140000  0.61974300  1
  C  C97  1  0.62088900  0.00583900  0.11600700  1
  C  C98  1  0.12088900  0.50583900  0.11600700  1
  C  C99  1  0.50543400  0.00173600  0.11787400  1
  C  C100  1  0.00543400  0.50173600  0.11787400  1
  C  C101  1  0.38773600  0.00201400  0.88428600  1
  C  C102  1  0.88773600  0.50201400  0.88428600  1
  C  C103  1  0.50404800  0.00599700  0.88324000  1
  C  C104  1  0.00404800  0.50599700  0.88324000  1
  C  C105  1  0.28304300  0.49212300  0.22687000  1
  C  C106  1  0.78304300  0.99212300  0.22687000  1
  C  C107  1  0.31806500  0.50627000  0.31092800  1
  C  C108  1  0.81806500  0.00627000  0.31092800  1
  C  C109  1  0.28603100  0.52164600  0.32985300  1
  C  C110  1  0.78603100  0.02164600  0.32985300  1
  C  C111  1  0.72159600  0.02282200  0.26586300  1
  C  C112  1  0.22159600  0.52282200  0.26586300  1
  C  C113  1  0.68825900  0.00680600  0.18316600  1
  C  C114  1  0.18825900  0.50680600  0.18316600  1
  C  C115  1  0.72155400  0.99157700  0.16761700  1
  C  C116  1  0.22155400  0.49157700  0.16761700  1
  C  C117  1  0.71323600  0.97311900  0.09694100  1
  C  C118  1  0.21323600  0.47311900  0.09694100  1
  C  C119  1  0.28547700  0.47327600  0.16620600  1
  C  C120  1  0.78547700  0.97327600  0.16620600  1
  C  C121  1  0.72461700  0.52271000  0.67958400  1
  C  C122  1  0.22461700  0.02271000  0.67958400  1
  C  C123  1  0.69055600  0.50065300  0.68791600  1
  C  C124  1  0.19055600  0.00065300  0.68791600  1
  C  C125  1  0.72333800  0.47785200  0.76458700  1
  C  C126  1  0.22333800  0.97785200  0.76458700  1
  C  C127  1  0.28786500  0.97727300  0.82822900  1
  C  C128  1  0.78786500  0.47727300  0.82822900  1
  C  C129  1  0.32028100  0.00107100  0.81769200  1
  C  C130  1  0.82028100  0.50107100  0.81769200  1
  C  C131  1  0.28587600  0.02378300  0.74187800  1
  C  C132  1  0.78587600  0.52378300  0.74187800  1
  C  C133  1  0.29106900  0.05275800  0.69362200  1
  C  C134  1  0.79106900  0.55275800  0.69362200  1
  C  C135  1  0.71893500  0.55172200  0.62054200  1
  C  C136  1  0.21893500  0.05172200  0.62054200  1
  C  C137  1  0.30998500  0.50397800  0.14232900  1
  C  C138  1  0.29857600  0.48830900  0.06540500  1
  C  C139  1  0.31390700  0.52295600  0.03504500  1
  C  C140  1  0.30483800  0.50718800  0.96047200  1
  C  C141  1  0.31454400  0.42939300  0.19265500  1
  C  C142  1  0.30464300  0.40378400  0.24159200  1
  C  C143  1  0.32613800  0.35893600  0.25286500  1
  C  C144  1  0.30903400  0.33243000  0.29138900  1
  C  C145  1  0.80998500  0.00397800  0.14232900  1
  C  C146  1  0.79857600  0.98830900  0.06540500  1
  C  C147  1  0.81390700  0.02295600  0.03504500  1
  C  C148  1  0.80483800  0.00718800  0.96047200  1
  C  C149  1  0.81454400  0.92939300  0.19265500  1
  C  C150  1  0.80464300  0.90378400  0.24159200  1
  C  C151  1  0.82613800  0.85893600  0.25286500  1
  C  C152  1  0.80903400  0.83243000  0.29138900  1
  C  C153  1  0.41837500  0.72348500  0.50099400  1
  C  C154  1  0.44729500  0.70330300  0.58663200  1
  C  C155  1  0.39699800  0.68479100  0.57687300  1
  C  C156  1  0.42547800  0.66535900  0.66266000  1
  C  C157  1  0.47671500  0.28064100  0.58879300  1
  C  C158  1  0.41500000  0.30326000  0.53002200  1
  C  C159  1  0.40051300  0.31500700  0.58191100  1
  C  C160  1  0.33951600  0.33837300  0.52358700  1
  C  C161  1  0.91837500  0.22348500  0.50099400  1
  C  C162  1  0.94729500  0.20330300  0.58663200  1
  C  C163  1  0.89699800  0.18479100  0.57687300  1
  C  C164  1  0.92547800  0.16535900  0.66266000  1
  C  C165  1  0.97671500  0.78064100  0.58879300  1
  C  C166  1  0.91500000  0.80326000  0.53002200  1
  C  C167  1  0.90051300  0.81500700  0.58191100  1
  C  C168  1  0.83951700  0.83837300  0.52358700  1
  O  O1  1  0.45440100  0.00429700  0.36022500  1
  O  O2  1  0.95440100  0.50429700  0.36022500  1
  O  O3  1  0.56087900  0.99859900  0.46712800  1
  O  O4  1  0.06087900  0.49859900  0.46712800  1
  O  O5  1  0.45542700  0.94148300  0.44892300  1
  O  O6  1  0.45311600  0.06369500  0.44653500  1
  O  O7  1  0.95542700  0.44148300  0.44892300  1
  O  O8  1  0.95311600  0.56369500  0.44653500  1
  O  O9  1  0.56192400  0.94201600  0.55968300  1
  O  O10  1  0.55964500  0.06404400  0.54923600  1
  O  O11  1  0.06192400  0.44201600  0.55968300  1
  O  O12  1  0.05964500  0.56404400  0.54923600  1
  O  O13  1  0.45410500  0.00423100  0.53970500  1
  O  O14  1  0.95410500  0.50423100  0.53970500  1
  O  O15  1  0.56068400  0.00427900  0.64650900  1
  O  O16  1  0.06068400  0.50427900  0.64650900  1
  O  O17  1  0.41515200  0.50530500  0.35540600  1
  O  O18  1  0.91515200  0.00530500  0.35540600  1
  O  O19  1  0.41409500  0.50284400  0.46082800  1
  O  O20  1  0.91409500  0.00284400  0.46082800  1
  O  O21  1  0.50264000  0.56470000  0.44552500  1
  O  O22  1  0.50243200  0.44242600  0.44287500  1
  O  O23  1  0.00264000  0.06470000  0.44552500  1
  O  O24  1  0.00243200  0.94242600  0.44287500  1
  O  O25  1  0.50974700  0.56322700  0.55911200  1
  O  O26  1  0.50322200  0.44109300  0.55035100  1
  O  O27  1  0.00974700  0.06322700  0.55911200  1
  O  O28  1  0.00322200  0.94109300  0.55035100  1
  O  O29  1  0.59486200  0.50523700  0.53810400  1
  O  O30  1  0.09486200  0.00523700  0.53810400  1
  O  O31  1  0.59366900  0.49824300  0.64313100  1
  O  O32  1  0.09366900  0.99824300  0.64313100  1
  O  O33  1  0.59311700  0.97144600  0.06790200  1
  O  O34  1  0.59098600  0.03924700  0.10689000  1
  O  O35  1  0.09311700  0.47144600  0.06790200  1
  O  O36  1  0.09098600  0.53924700  0.10689000  1
  O  O37  1  0.52527600  0.96827400  0.10725900  1
  O  O38  1  0.48468300  0.03618900  0.06978300  1
  O  O39  1  0.02527600  0.46827400  0.10725900  1
  O  O40  1  0.98468300  0.53618900  0.06978300  1
  O  O41  1  0.41795200  0.96781700  0.93189000  1
  O  O42  1  0.41529100  0.03709400  0.89391100  1
  O  O43  1  0.91795200  0.46781700  0.93189000  1
  O  O44  1  0.91529100  0.53709400  0.89391100  1
  O  O45  1  0.48589000  0.97097100  0.89261300  1
  O  O46  1  0.52170300  0.04012900  0.93113500  1
  O  O47  1  0.98589000  0.47097100  0.89261300  1
  O  O48  1  0.02170300  0.54012900  0.93113500  1
