# generated using pymatgen
data_Fe2H14C39(NO8)2
_symmetry_space_group_name_H-M   'P 1'
_cell_length_a   14.71038300
_cell_length_b   9.29432700
_cell_length_c   15.02573500
_cell_angle_alpha   87.41742300
_cell_angle_beta   91.98744800
_cell_angle_gamma   111.17998600
_symmetry_Int_Tables_number   1
_chemical_formula_structural   Fe2H14C39(NO8)2
_chemical_formula_sum   'Fe2 H14 C39 N2 O16'
_cell_volume   1913.27394362
_cell_formula_units_Z   1
loop_
 _symmetry_equiv_pos_site_id
 _symmetry_equiv_pos_as_xyz
  1  'x, y, z'
loop_
 _atom_site_type_symbol
 _atom_site_label
 _atom_site_symmetry_multiplicity
 _atom_site_fract_x
 _atom_site_fract_y
 _atom_site_fract_z
 _atom_site_occupancy
  Fe  Fe1  1  0.51137600  0.99329100  0.16624900  1
  Fe  Fe2  1  0.49732900  0.99617500  0.84063500  1
  H  H1  1  0.87282900  0.10598800  0.15839100  1
  H  H2  1  0.81881700  0.92799600  0.85221500  1
  H  H3  1  0.97443300  0.90756200  0.85295300  1
  H  H4  1  0.13028200  0.89182900  0.85028200  1
  H  H5  1  0.19626700  0.05383900  0.15931800  1
  H  H6  1  0.15442400  0.31455200  0.16670500  1
  H  H7  1  0.15071700  0.33159800  0.33687700  1
  H  H8  1  0.01421800  0.07559200  0.40064400  1
  H  H9  1  0.93492300  0.90139800  0.26111700  1
  H  H10  1  0.44889400  0.12162300  0.59661500  1
  H  H11  1  0.46307700  0.51172000  0.79933600  1
  H  H12  1  0.54048400  0.46392700  0.20280800  1
  H  H13  1  0.52030100  0.74437400  0.55014000  1
  H  H14  1  0.50717700  0.72183300  0.41478400  1
  C  C1  1  0.86200400  0.06589300  0.09139000  1
  C  C2  1  0.77323000  0.04570700  0.04920100  1
  C  C3  1  0.75901700  0.00003800  0.96109700  1
  C  C4  1  0.83112300  0.96709700  0.91978300  1
  C  C5  1  0.91767900  0.98142800  0.96365100  1
  C  C6  1  0.93392900  0.03100100  0.04983400  1
  C  C7  1  0.98772100  0.94577400  0.92067700  1
  C  C8  1  0.07464200  0.95903600  0.96344600  1
  C  C9  1  0.09193100  0.00816500  0.04968800  1
  C  C10  1  0.02153000  0.04431300  0.09347500  1
  C  C11  1  0.14478400  0.92570400  0.91869700  1
  C  C12  1  0.23404000  0.94252500  0.95885100  1
  C  C13  1  0.24988200  0.98647300  0.04717000  1
  C  C14  1  0.17948000  0.01907000  0.09137000  1
  C  C15  1  0.10429800  0.23634800  0.29826600  1
  C  C16  1  0.03352700  0.10371100  0.33157100  1
  C  C17  1  0.99247200  0.01379500  0.25958400  1
  C  C18  1  0.03984000  0.09563800  0.18537800  1
  C  C19  1  0.69380000  0.05337200  0.10400500  1
  C  C20  1  0.52818400  0.73214300  0.24191900  1
  C  C21  1  0.34299200  0.01615100  0.09427600  1
  C  C22  1  0.51007200  0.20111400  0.29124500  1
  C  C23  1  0.49834800  0.78438700  0.71640800  1
  C  C24  1  0.66684300  0.97114000  0.91179200  1
  C  C25  1  0.46582300  0.24268400  0.75538000  1
  C  C26  1  0.31219400  0.93216600  0.90313200  1
  C  C27  1  0.46965000  0.50587100  0.72832700  1
  C  C28  1  0.48716600  0.63793100  0.67594600  1
  C  C29  1  0.50252600  0.63586800  0.58632200  1
  C  C30  1  0.47055600  0.37192100  0.69233600  1
  C  C31  1  0.47920200  0.36686400  0.60007800  1
  C  C32  1  0.49479800  0.49948400  0.54629200  1
  C  C33  1  0.50404800  0.49244100  0.45391600  1
  C  C34  1  0.51257400  0.61612500  0.39442400  1
  C  C35  1  0.52542400  0.60554800  0.30464700  1
  C  C36  1  0.46976400  0.23043300  0.56012300  1
  C  C37  1  0.50169000  0.35546900  0.41930300  1
  C  C38  1  0.51687500  0.34667200  0.32955900  1
  C  C39  1  0.53184800  0.47322600  0.27315900  1
  N  N1  1  0.10777800  0.23042800  0.20921700  1
  N  N2  1  0.48329200  0.22872400  0.47245800  1
  O  O1  1  0.60615500  0.02596300  0.07023300  1
  O  O2  1  0.55365900  0.73106500  0.15920300  1
  O  O3  1  0.70677900  0.06580800  0.19058600  1
  O  O4  1  0.50053400  0.84323800  0.26673300  1
  O  O5  1  0.37794700  0.90561000  0.10985800  1
  O  O6  1  0.39044000  0.15450100  0.12371100  1
  O  O7  1  0.55673100  0.20363800  0.21778800  1
  O  O8  1  0.44652200  0.07042700  0.32192500  1
  O  O9  1  0.45089500  0.78573000  0.78878900  1
  O  O10  1  0.56131100  0.91379000  0.68360500  1
  O  O11  1  0.63004300  0.08033700  0.89899300  1
  O  O12  1  0.62222500  0.83535600  0.87798900  1
  O  O13  1  0.29641900  0.91229700  0.81726300  1
  O  O14  1  0.51147700  0.14782800  0.74027600  1
  O  O15  1  0.40119700  0.96508600  0.93540300  1
  O  O16  1  0.42632000  0.23490500  0.83319600  1
