# generated using pymatgen
data_VH19C23O5
_symmetry_space_group_name_H-M   'P 1'
_cell_length_a   27.14270000
_cell_length_b   6.81800000
_cell_length_c   22.88860200
_cell_angle_alpha   90.00000000
_cell_angle_beta   101.12229900
_cell_angle_gamma   90.00000000
_symmetry_Int_Tables_number   1
_chemical_formula_structural   VH19C23O5
_chemical_formula_sum   'V4 H76 C92 O20'
_cell_volume   4156.18305927
_cell_formula_units_Z   4
loop_
 _symmetry_equiv_pos_site_id
 _symmetry_equiv_pos_as_xyz
  1  'x, y, z'
loop_
 _atom_site_type_symbol
 _atom_site_label
 _atom_site_symmetry_multiplicity
 _atom_site_fract_x
 _atom_site_fract_y
 _atom_site_fract_z
 _atom_site_occupancy
  V  V1  1  0.74875000  0.18015800  0.24022600  1
  V  V2  1  0.25125300  0.82718700  0.75976600  1
  V  V3  1  0.75125000  0.68015800  0.25977300  1
  V  V4  1  0.24874600  0.32718800  0.74023400  1
  H  H1  1  0.36382000  0.72447000  0.65737200  1
  H  H2  1  0.63639700  0.28306100  0.34279600  1
  H  H3  1  0.13618000  0.22447000  0.84262800  1
  H  H4  1  0.86360300  0.78306100  0.15720400  1
  H  H5  1  0.42736300  0.71021200  0.59508300  1
  H  H6  1  0.57282600  0.29759400  0.40506400  1
  H  H7  1  0.07263700  0.21021200  0.90491700  1
  H  H8  1  0.92717400  0.79759400  0.09493600  1
  H  H9  1  0.41080000  0.32683500  0.56363400  1
  H  H10  1  0.58938200  0.68105300  0.43667000  1
  H  H11  1  0.08920000  0.82683400  0.93636600  1
  H  H12  1  0.91061800  0.18105300  0.06332900  1
  H  H13  1  0.34826400  0.33885500  0.62680100  1
  H  H14  1  0.65193400  0.66875800  0.37354300  1
  H  H15  1  0.15173600  0.83885500  0.87319900  1
  H  H16  1  0.84806600  0.16875800  0.12645700  1
  H  H17  1  0.47458700  0.32195400  0.53470300  1
  H  H18  1  0.52556300  0.68615000  0.46548000  1
  H  H19  1  0.02541300  0.82195400  0.96529700  1
  H  H20  1  0.97443700  0.18615000  0.03452000  1
  H  H21  1  0.53735400  0.31051300  0.47277100  1
  H  H22  1  0.46281500  0.69758000  0.52739100  1
  H  H23  1  0.96264600  0.81051300  0.02722800  1
  H  H24  1  0.03718500  0.19758000  0.97260900  1
  H  H25  1  0.98717700  0.21908000  0.57929900  1
  H  H26  1  0.01165300  0.79147800  0.41678100  1
  H  H27  1  0.51282300  0.71908000  0.92070000  1
  H  H28  1  0.48834700  0.29147800  0.08321900  1
  H  H29  1  0.98031400  0.33102700  0.46043200  1
  H  H30  1  0.02137500  0.67138400  0.53609900  1
  H  H31  1  0.51968600  0.83102700  0.03956800  1
  H  H32  1  0.47862500  0.17138400  0.96390100  1
  H  H33  1  0.88653400  0.85494600  0.50989300  1
  H  H34  1  0.94182400  0.55728400  0.53382100  1
  H  H35  1  0.89387400  0.58365600  0.57805800  1
  H  H36  1  0.00500500  0.69717500  0.61700400  1
  H  H37  1  0.97415900  0.48487900  0.64097900  1
  H  H38  1  0.98027300  0.75135000  0.71474400  1
  H  H39  1  0.91513700  0.71028700  0.68006800  1
  H  H40  1  0.98495800  0.01897300  0.64229400  1
  H  H41  1  0.93799900  0.06689500  0.68689400  1
  H  H42  1  0.90529900  0.14193300  0.58003400  1
  H  H43  1  0.87145100  0.94336400  0.60657600  1
  H  H44  1  0.06834100  0.30868000  0.43521600  1
  H  H45  1  0.12021100  0.23680200  0.53662100  1
  H  H46  1  0.15545900  0.25747600  0.47755000  1
  H  H47  1  0.12268100  0.87178100  0.52821400  1
  H  H48  1  0.18519500  0.97675500  0.54311700  1
  H  H49  1  0.17808100  0.72617300  0.46461800  1
  H  H50  1  0.18475200  0.96697900  0.43323900  1
  H  H51  1  0.08557800  0.75326000  0.43394900  1
  H  H52  1  0.11670300  0.76698700  0.37095800  1
  H  H53  1  0.04987900  0.02155000  0.36463400  1
  H  H54  1  0.11171100  0.12689900  0.37108900  1
  H  H55  1  0.61346600  0.35494600  0.99010700  1
  H  H56  1  0.55817600  0.05728400  0.96617900  1
  H  H57  1  0.60612600  0.08365600  0.92194200  1
  H  H58  1  0.49499500  0.19717500  0.88299600  1
  H  H59  1  0.52584100  0.98487900  0.85902100  1
  H  H60  1  0.51972700  0.25135000  0.78525600  1
  H  H61  1  0.58486300  0.21028700  0.81993200  1
  H  H62  1  0.51504200  0.51897300  0.85770600  1
  H  H63  1  0.56200100  0.56689500  0.81310600  1
  H  H64  1  0.59470100  0.64193300  0.91996600  1
  H  H65  1  0.62854900  0.44336400  0.89342400  1
  H  H66  1  0.43165900  0.80868000  0.06478400  1
  H  H67  1  0.37978900  0.73680200  0.96337900  1
  H  H68  1  0.34454100  0.75747600  0.02245000  1
  H  H69  1  0.37731900  0.37178100  0.97178600  1
  H  H70  1  0.31480500  0.47675500  0.95688300  1
  H  H71  1  0.32191900  0.22617300  0.03538200  1
  H  H72  1  0.31524800  0.46697900  0.06676100  1
  H  H73  1  0.41442200  0.25326000  0.06605100  1
  H  H74  1  0.38329700  0.26698700  0.12904200  1
  H  H75  1  0.45012100  0.52155000  0.13536600  1
  H  H76  1  0.38828900  0.62689900  0.12891100  1
  C  C1  1  0.67222400  0.46292700  0.17228500  1
  C  C2  1  0.32759400  0.54436700  0.82794900  1
  C  C3  1  0.82777600  0.96292700  0.32771500  1
  C  C4  1  0.17240600  0.04436700  0.67205100  1
  C  C5  1  0.81332600  0.46211000  0.18489500  1
  C  C6  1  0.18648400  0.54529100  0.81486200  1
  C  C7  1  0.68667400  0.96210900  0.31510500  1
  C  C8  1  0.31351600  0.04529100  0.68513800  1
  C  C9  1  0.37407500  0.85710000  0.63674900  1
  C  C10  1  0.62613800  0.15051400  0.36345600  1
  C  C11  1  0.12592500  0.35710000  0.86325100  1
  C  C12  1  0.87386200  0.65051400  0.13654300  1
  C  C13  1  0.41010200  0.84946800  0.60100500  1
  C  C14  1  0.59009800  0.15832200  0.39918200  1
  C  C15  1  0.08989800  0.34946800  0.89899500  1
  C  C16  1  0.90990200  0.65832300  0.10081800  1
  C  C17  1  0.42446800  0.01761100  0.57429000  1
  C  C18  1  0.57572300  0.99029400  0.42593600  1
  C  C19  1  0.07553200  0.51761100  0.92571000  1
  C  C20  1  0.92427700  0.49029400  0.07406400  1
  C  C21  1  0.40149900  0.19303500  0.58417400  1
  C  C22  1  0.59868800  0.81479600  0.41610600  1
  C  C23  1  0.09850100  0.69303500  0.91582500  1
  C  C24  1  0.90131200  0.31479600  0.08389400  1
  C  C25  1  0.36555300  0.20018600  0.61982300  1
  C  C26  1  0.63464700  0.80747000  0.38047900  1
  C  C27  1  0.13444700  0.70018600  0.88017700  1
  C  C28  1  0.86535300  0.30747000  0.11952100  1
  C  C29  1  0.35151200  0.03280800  0.64654600  1
  C  C30  1  0.64870600  0.97474200  0.35372500  1
  C  C31  1  0.14848800  0.53280800  0.85345400  1
  C  C32  1  0.85129400  0.47474200  0.14627500  1
  C  C33  1  0.48496500  0.18094700  0.51947000  1
  C  C34  1  0.51520600  0.82715500  0.48073100  1
  C  C35  1  0.01503500  0.68094700  0.98053000  1
  C  C36  1  0.98479400  0.32715500  0.01926900  1
  C  C37  1  0.52107700  0.17448800  0.48392300  1
  C  C38  1  0.47909900  0.83361200  0.51627100  1
  C  C39  1  0.97892300  0.67448800  0.01607700  1
  C  C40  1  0.02090100  0.33361300  0.98372900  1
  C  C41  1  0.53682200  0.99746400  0.46401400  1
  C  C42  1  0.46335900  0.01060500  0.53619600  1
  C  C43  1  0.96317800  0.49746400  0.03598600  1
  C  C44  1  0.03664100  0.51060500  0.96380400  1
  C  C45  1  0.96393600  0.93429900  0.52226400  1
  C  C46  1  0.03727800  0.06969700  0.47625300  1
  C  C47  1  0.53606400  0.43429900  0.97773600  1
  C  C48  1  0.46272200  0.56969700  0.02374700  1
  C  C49  1  0.99346500  0.11884800  0.54331600  1
  C  C50  1  0.00744500  0.88621400  0.45485300  1
  C  C51  1  0.50653500  0.61884800  0.95668400  1
  C  C52  1  0.49255500  0.38621400  0.04514700  1
  C  C53  1  0.12670400  0.02835400  0.62589300  1
  C  C54  1  0.87369300  0.97865400  0.37362300  1
  C  C55  1  0.37329600  0.52835300  0.87410700  1
  C  C56  1  0.62630700  0.47865400  0.12637700  1
  C  C57  1  0.01193300  0.82254200  0.51989700  1
  C  C58  1  0.98917400  0.18131600  0.47835000  1
  C  C59  1  0.48806700  0.32254200  0.98010300  1
  C  C60  1  0.51082600  0.68131600  0.02165000  1
  C  C61  1  0.04166000  0.00819000  0.54041600  1
  C  C62  1  0.95944600  0.99670000  0.45814600  1
  C  C63  1  0.45834000  0.50819000  0.95958400  1
  C  C64  1  0.54055400  0.49670000  0.04185400  1
  C  C65  1  0.08849400  0.01835600  0.58744200  1
  C  C66  1  0.91215400  0.98800100  0.41174600  1
  C  C67  1  0.41150600  0.51835600  0.91255800  1
  C  C68  1  0.58784600  0.48800100  0.08825400  1
  C  C69  1  0.91968900  0.85566100  0.54678700  1
  C  C70  1  0.92930300  0.64621800  0.56881700  1
  C  C71  1  0.96893500  0.63882100  0.62537300  1
  C  C72  1  0.95218600  0.76207400  0.67269100  1
  C  C73  1  0.94819100  0.97221000  0.65165900  1
  C  C74  1  0.90798900  0.98783100  0.59582900  1
  C  C75  1  0.07936900  0.15683400  0.44943000  1
  C  C76  1  0.12780500  0.16714300  0.49547700  1
  C  C77  1  0.14965300  0.96453200  0.51000600  1
  C  C78  1  0.15991900  0.87086500  0.45387700  1
  C  C79  1  0.11039800  0.84342200  0.41165200  1
  C  C80  1  0.08673100  0.04207700  0.39477800  1
  C  C81  1  0.58031100  0.35566100  0.95321300  1
  C  C82  1  0.57069700  0.14621800  0.93118300  1
  C  C83  1  0.53106500  0.13882100  0.87462700  1
  C  C84  1  0.54781400  0.26207400  0.82730900  1
  C  C85  1  0.55180900  0.47221000  0.84834100  1
  C  C86  1  0.59201100  0.48783100  0.90417100  1
  C  C87  1  0.42063100  0.65683400  0.05057000  1
  C  C88  1  0.37219500  0.66714300  0.00452300  1
  C  C89  1  0.35034700  0.46453200  0.98999400  1
  C  C90  1  0.34008100  0.37086500  0.04612300  1
  C  C91  1  0.38960200  0.34342200  0.08834800  1
  C  C92  1  0.41326900  0.54207700  0.10522200  1
  O  O1  1  0.79969900  0.63099900  0.20729800  1
  O  O2  1  0.20014100  0.37633200  0.79251300  1
  O  O3  1  0.70030100  0.13099900  0.29270200  1
  O  O4  1  0.29985900  0.87633300  0.70748600  1
  O  O5  1  0.69250100  0.28350300  0.18061100  1
  O  O6  1  0.30737800  0.72385700  0.81955400  1
  O  O7  1  0.80749900  0.78350300  0.31938900  1
  O  O8  1  0.19262200  0.22385600  0.68044600  1
  O  O9  1  0.79404700  0.28357900  0.18941700  1
  O  O10  1  0.20580400  0.72378300  0.81039000  1
  O  O11  1  0.70595300  0.78357900  0.31058300  1
  O  O12  1  0.29419600  0.22378300  0.68961000  1
  O  O13  1  0.80873100  0.13092400  0.30213400  1
  O  O14  1  0.19139700  0.87640500  0.69768300  1
  O  O15  1  0.69126900  0.63092400  0.19786600  1
  O  O16  1  0.30860300  0.37640500  0.80231700  1
  O  O17  1  0.75442500  0.45263300  0.28654400  1
  O  O18  1  0.24563600  0.55472600  0.71347800  1
  O  O19  1  0.74557500  0.95263300  0.21345600  1
  O  O20  1  0.25436400  0.05472600  0.78652200  1
