# generated using pymatgen
data_Cu2H28C37N2O9
_symmetry_space_group_name_H-M   'P 1'
_cell_length_a   10.70559700
_cell_length_b   12.97731700
_cell_length_c   11.53146400
_cell_angle_alpha   99.71121000
_cell_angle_beta   94.29599300
_cell_angle_gamma   89.99951200
_symmetry_Int_Tables_number   1
_chemical_formula_structural   Cu2H28C37N2O9
_chemical_formula_sum   'Cu2 H28 C37 N2 O9'
_cell_volume   1574.54196453
_cell_formula_units_Z   1
loop_
 _symmetry_equiv_pos_site_id
 _symmetry_equiv_pos_as_xyz
  1  'x, y, z'
loop_
 _atom_site_type_symbol
 _atom_site_label
 _atom_site_symmetry_multiplicity
 _atom_site_fract_x
 _atom_site_fract_y
 _atom_site_fract_z
 _atom_site_occupancy
  Cu  Cu1  1  0.51934200  0.51033800  0.62003700  1
  Cu  Cu2  1  0.49898800  0.49572900  0.38530000  1
  H  H1  1  0.12582800  0.37733800  0.60261000  1
  H  H2  1  0.91600700  0.36184400  0.57807000  1
  H  H3  1  0.90725300  0.48058400  0.68403000  1
  H  H4  1  0.12825400  0.67325200  0.56885500  1
  H  H5  1  0.92497000  0.65065400  0.61537100  1
  H  H6  1  0.10785900  0.45753700  0.31495600  1
  H  H7  1  0.09639800  0.35136600  0.39590900  1
  H  H8  1  0.88615500  0.36637500  0.36289300  1
  H  H9  1  0.90325800  0.49045600  0.31374200  1
  H  H10  1  0.08870300  0.63338100  0.41512100  1
  H  H11  1  0.88806800  0.65887500  0.46190200  1
  H  H12  1  0.50314000  0.81786600  0.35001700  1
  H  H13  1  0.51981300  0.84552300  0.72609400  1
  H  H14  1  0.49851900  0.97097600  0.26143800  1
  H  H15  1  0.52002500  0.03502900  0.74393500  1
  H  H16  1  0.49851700  0.16046400  0.27925500  1
  H  H17  1  0.51550200  0.18816200  0.65534800  1
  H  H18  1  0.40647800  0.39741500  0.79238100  1
  H  H19  1  0.65908600  0.65046400  0.82161500  1
  H  H20  1  0.34686400  0.33662200  0.96810000  1
  H  H21  1  0.67282500  0.66862200  0.03714600  1
  H  H22  1  0.35934600  0.35549800  0.18367400  1
  H  H23  1  0.61198800  0.60854200  0.21298000  1
  H  H24  1  0.14230200  0.61371900  0.95890600  1
  H  H25  1  0.10209200  0.54377600  0.13527100  1
  H  H26  1  0.03858100  0.35930200  0.12114300  1
  H  H27  1  0.01795200  0.24495100  0.92851200  1
  H  H28  1  0.05724000  0.31138600  0.75119800  1
  C  C1  1  0.50745400  0.30246100  0.48053000  1
  C  C2  1  0.26867200  0.50364200  0.50480200  1
  C  C3  1  0.51097800  0.70357800  0.52481500  1
  C  C4  1  0.74926700  0.50220800  0.50092000  1
  C  C5  1  0.08507500  0.45644200  0.61111400  1
  C  C6  1  0.94334500  0.44576800  0.59886200  1
  C  C7  1  0.07719100  0.61282100  0.50329100  1
  C  C8  1  0.07200700  0.43420600  0.39434300  1
  C  C9  1  0.12805800  0.50353900  0.50618200  1
  C  C10  1  0.88913700  0.50178000  0.50158700  1
  C  C11  1  0.93888100  0.61344000  0.52342900  1
  C  C12  1  0.93051900  0.44519400  0.38494100  1
  C  C13  1  0.51148200  0.81796700  0.53665100  1
  C  C14  1  0.50698500  0.18805400  0.46871500  1
  C  C15  1  0.50221400  0.01861500  0.34814100  1
  C  C16  1  0.50218400  0.12604900  0.35846400  1
  C  C17  1  0.51170400  0.14125900  0.56832500  1
  C  C18  1  0.51165000  0.03369100  0.55770400  1
  C  C19  1  0.50694400  0.97232300  0.44767700  1
  C  C20  1  0.50691500  0.86476000  0.43704600  1
  C  C21  1  0.51617900  0.87996400  0.64690800  1
  C  C22  1  0.51631300  0.98739600  0.65723900  1
  C  C23  1  0.40492600  0.39776900  0.02100300  1
  C  C24  1  0.41224400  0.40840900  0.14249900  1
  C  C25  1  0.55241300  0.54934500  0.15865700  1
  C  C26  1  0.54654300  0.54084700  0.03732500  1
  C  C27  1  0.47215300  0.46500400  0.96802100  1
  C  C28  1  0.46601800  0.45663600  0.84669600  1
  C  C29  1  0.60623900  0.59755400  0.86283000  1
  C  C30  1  0.61409300  0.60787500  0.98431300  1
  C  C31  1  0.12326500  0.51458200  0.73396800  1
  C  C32  1  0.10266800  0.46876800  0.84042900  1
  C  C33  1  0.11589400  0.53224200  0.95007200  1
  C  C34  1  0.09284000  0.49310200  0.05044000  1
  C  C35  1  0.05729100  0.39007400  0.04272300  1
  C  C36  1  0.04547700  0.32594500  0.93459000  1
  C  C37  1  0.06795000  0.36464900  0.83385800  1
  N  N1  1  0.53464600  0.52131800  0.79574600  1
  N  N2  1  0.48341700  0.48490700  0.20960400  1
  O  O1  1  0.51312600  0.35778300  0.58676200  1
  O  O2  1  0.50242000  0.34516800  0.38502700  1
  O  O3  1  0.33655100  0.50486300  0.60421900  1
  O  O4  1  0.31907100  0.50157700  0.40403700  1
  O  O5  1  0.51399000  0.66084900  0.62022200  1
  O  O6  1  0.50716800  0.64825100  0.41866100  1
  O  O7  1  0.69916000  0.50626300  0.60176200  1
  O  O8  1  0.68201300  0.49941900  0.40057000  1
  O  O9  1  0.16804300  0.60250100  0.74749900  1
