# generated using pymatgen
data_Cu3H26(C8O3)5
_symmetry_space_group_name_H-M   'P 1'
_cell_length_a   36.89912300
_cell_length_b   30.03876800
_cell_length_c   21.78847400
_cell_angle_alpha   90.00000000
_cell_angle_beta   125.46428700
_cell_angle_gamma   90.00000000
_symmetry_Int_Tables_number   1
_chemical_formula_structural   Cu3H26(C8O3)5
_chemical_formula_sum   'Cu12 H104 C160 O60'
_cell_volume   19669.98232811
_cell_formula_units_Z   4
loop_
 _symmetry_equiv_pos_site_id
 _symmetry_equiv_pos_as_xyz
  1  'x, y, z'
loop_
 _atom_site_type_symbol
 _atom_site_label
 _atom_site_symmetry_multiplicity
 _atom_site_fract_x
 _atom_site_fract_y
 _atom_site_fract_z
 _atom_site_occupancy
  Cu  Cu1  1  0.50000000  0.52688100  0.99999800  1
  Cu  Cu2  1  0.00000000  0.02688100  0.99999800  1
  Cu  Cu3  1  0.50000000  0.43993200  0.99999800  1
  Cu  Cu4  1  0.00000000  0.93993200  0.99999800  1
  Cu  Cu5  1  0.54339400  0.49022800  0.54471800  1
  Cu  Cu6  1  0.45660500  0.49022800  0.45527800  1
  Cu  Cu7  1  0.04339400  0.99022800  0.54471800  1
  Cu  Cu8  1  0.95660500  0.99022800  0.45527800  1
  Cu  Cu9  1  0.00109000  0.48996300  0.44118300  1
  Cu  Cu10  1  0.99890900  0.48996300  0.55881300  1
  Cu  Cu11  1  0.50109000  0.98996300  0.44118300  1
  Cu  Cu12  1  0.49890900  0.98996300  0.55881300  1
  H  H1  1  0.46925000  0.47239400  0.67418100  1
  H  H2  1  0.53074900  0.47239400  0.32581500  1
  H  H3  1  0.96925000  0.97239400  0.67418100  1
  H  H4  1  0.03074900  0.97239400  0.32581500  1
  H  H5  1  0.52435400  0.54991600  0.83437200  1
  H  H6  1  0.47564500  0.54991600  0.16562400  1
  H  H7  1  0.02435400  0.04991600  0.83437200  1
  H  H8  1  0.97564500  0.04991600  0.16562400  1
  H  H9  1  0.49802600  0.45199500  0.79156600  1
  H  H10  1  0.50197300  0.45199500  0.20843000  1
  H  H11  1  0.99802600  0.95199500  0.79156600  1
  H  H12  1  0.00197300  0.95199500  0.20843000  1
  H  H13  1  0.27825700  0.41941900  0.80934500  1
  H  H14  1  0.72174200  0.41941900  0.19065100  1
  H  H15  1  0.77825700  0.91941900  0.80934500  1
  H  H16  1  0.22174200  0.91941900  0.19065100  1
  H  H17  1  0.35916100  0.41686200  0.88781200  1
  H  H18  1  0.64083800  0.41686200  0.11218400  1
  H  H19  1  0.85916100  0.91686200  0.88781200  1
  H  H20  1  0.14083800  0.91686200  0.11218400  1
  H  H21  1  0.36233000  0.55184700  0.82786200  1
  H  H22  1  0.63766900  0.55184600  0.17213400  1
  H  H23  1  0.86233000  0.05184700  0.82786200  1
  H  H24  1  0.13766900  0.05184600  0.17213400  1
  H  H25  1  0.28162200  0.55408300  0.75083700  1
  H  H26  1  0.71837700  0.55408200  0.24915900  1
  H  H27  1  0.78162200  0.05408300  0.75083700  1
  H  H28  1  0.21837700  0.05408200  0.24915900  1
  H  H29  1  0.22175500  0.51040500  0.63230300  1
  H  H30  1  0.77824400  0.51040500  0.36769300  1
  H  H31  1  0.72175500  0.01040500  0.63230300  1
  H  H32  1  0.27824400  0.01040500  0.36769300  1
  H  H33  1  0.14109900  0.51164700  0.55009800  1
  H  H34  1  0.85889900  0.51164700  0.44989800  1
  H  H35  1  0.64109900  0.01164700  0.55009800  1
  H  H36  1  0.35889900  0.01164700  0.44989800  1
  H  H37  1  0.13708300  0.46857300  0.73301200  1
  H  H38  1  0.86291600  0.46857300  0.26698400  1
  H  H39  1  0.63708300  0.96857300  0.73301200  1
  H  H40  1  0.36291600  0.96857300  0.26698400  1
  H  H41  1  0.43582900  0.27040500  0.39467800  1
  H  H42  1  0.56417100  0.27040500  0.60531800  1
  H  H43  1  0.93582900  0.77040500  0.39467800  1
  H  H44  1  0.06417100  0.77040500  0.60531800  1
  H  H45  1  0.43589500  0.35100800  0.39422000  1
  H  H46  1  0.56410400  0.35100800  0.60577600  1
  H  H47  1  0.93589500  0.85100800  0.39422000  1
  H  H48  1  0.06410400  0.85100800  0.60577600  1
  H  H49  1  0.02665100  0.70981000  0.61712200  1
  H  H50  1  0.97334800  0.70981000  0.38287400  1
  H  H51  1  0.52665100  0.20981000  0.61712200  1
  H  H52  1  0.47334800  0.20981000  0.38287400  1
  H  H53  1  0.02703400  0.62920400  0.61743600  1
  H  H54  1  0.97296500  0.62920400  0.38256000  1
  H  H55  1  0.52703400  0.12920400  0.61743600  1
  H  H56  1  0.47296500  0.12920400  0.38256000  1
  H  H57  1  0.01797800  0.35111400  0.42290200  1
  H  H58  1  0.98202100  0.35111400  0.57709400  1
  H  H59  1  0.51797800  0.85111400  0.42290200  1
  H  H60  1  0.48202100  0.85111400  0.57709400  1
  H  H61  1  0.43104900  0.71028300  0.45503600  1
  H  H62  1  0.56895000  0.71028300  0.54496100  1
  H  H63  1  0.93104900  0.21028300  0.45503600  1
  H  H64  1  0.06895000  0.21028300  0.54496100  1
  H  H65  1  0.43077000  0.62929400  0.45531400  1
  H  H66  1  0.56922900  0.62929400  0.54468200  1
  H  H67  1  0.93077000  0.12929400  0.45531400  1
  H  H68  1  0.06922900  0.12929400  0.54468200  1
  H  H69  1  0.59893100  0.54702900  0.84819600  1
  H  H70  1  0.58536500  0.60509000  0.82203800  1
  H  H71  1  0.61227200  0.57289700  0.78895700  1
  H  H72  1  0.40106800  0.54702900  0.15180000  1
  H  H73  1  0.41463400  0.60509000  0.17795800  1
  H  H74  1  0.38772700  0.57289700  0.21103900  1
  H  H75  1  0.09893100  0.04702900  0.84819600  1
  H  H76  1  0.08536500  0.10509000  0.82203800  1
  H  H77  1  0.11227200  0.07289700  0.78895700  1
  H  H78  1  0.90106800  0.04702900  0.15180000  1
  H  H79  1  0.91463400  0.10509000  0.17795800  1
  H  H80  1  0.88772700  0.07289700  0.21103900  1
  H  H81  1  0.26016500  0.52896300  0.87396200  1
  H  H82  1  0.28873600  0.48128800  0.93476800  1
  H  H83  1  0.24487200  0.50880800  0.93377500  1
  H  H84  1  0.73983400  0.52896300  0.12603400  1
  H  H85  1  0.71126300  0.48128800  0.06522800  1
  H  H86  1  0.75512700  0.50880800  0.06622200  1
  H  H87  1  0.76016500  0.02896300  0.87396200  1
  H  H88  1  0.78873600  0.98128800  0.93476800  1
  H  H89  1  0.74487200  0.00880800  0.93377500  1
  H  H90  1  0.23983400  0.02896300  0.12603400  1
  H  H91  1  0.21126300  0.98128800  0.06522800  1
  H  H92  1  0.25512700  0.00880800  0.06622200  1
  H  H93  1  0.95424600  0.23209000  0.34504000  1
  H  H94  1  0.99968800  0.19960100  0.35788200  1
  H  H95  1  0.97519000  0.24451500  0.29017400  1
  H  H96  1  0.04575300  0.23209000  0.65495600  1
  H  H97  1  0.00031100  0.19960100  0.64211400  1
  H  H98  1  0.02480900  0.24451500  0.70982200  1
  H  H99  1  0.45424600  0.73209000  0.34504000  1
  H  H100  1  0.49968800  0.69960100  0.35788200  1
  H  H101  1  0.47519000  0.74451500  0.29017400  1
  H  H102  1  0.54575300  0.73209000  0.65495600  1
  H  H103  1  0.50031100  0.69960100  0.64211400  1
  H  H104  1  0.52480900  0.74451500  0.70982200  1
  C  C1  1  0.41561600  0.48351200  0.91286300  1
  C  C2  1  0.58438400  0.48351200  0.08713400  1
  C  C3  1  0.91561600  0.98351200  0.91286300  1
  C  C4  1  0.08438400  0.98351200  0.08713400  1
  C  C5  1  0.50322100  0.48340700  0.88700700  1
  C  C6  1  0.49677800  0.48340700  0.11298900  1
  C  C7  1  0.00322100  0.98340700  0.88700700  1
  C  C8  1  0.99677800  0.98340700  0.11298900  1
  C  C9  1  0.00000000  0.26431000  0.49999800  1
  C  C10  1  0.50000000  0.76431000  0.49999800  1
  C  C11  1  0.00931200  0.28767200  0.45557700  1
  C  C12  1  0.99068700  0.28767200  0.54441900  1
  C  C13  1  0.50931200  0.78767200  0.45557700  1
  C  C14  1  0.49068700  0.78767200  0.54441900  1
  C  C15  1  0.00000000  0.35672100  0.49999800  1
  C  C16  1  0.50000000  0.85672100  0.49999800  1
  C  C17  1  0.01047100  0.33356000  0.45753900  1
  C  C18  1  0.98952800  0.33356000  0.54245700  1
  C  C19  1  0.51047100  0.83356000  0.45753900  1
  C  C20  1  0.48952800  0.83356000  0.54245700  1
  C  C21  1  0.51807400  0.52174100  0.73586000  1
  C  C22  1  0.48192500  0.52174100  0.26413600  1
  C  C23  1  0.01807400  0.02174100  0.73586000  1
  C  C24  1  0.98192500  0.02174100  0.26413600  1
  C  C25  1  0.49345600  0.49420200  0.67682800  1
  C  C26  1  0.50654300  0.49420200  0.32316800  1
  C  C27  1  0.99345600  0.99420200  0.67682800  1
  C  C28  1  0.00654300  0.99420200  0.32316800  1
  C  C29  1  0.51566200  0.51990700  0.80102700  1
  C  C30  1  0.48433800  0.51990700  0.19896900  1
  C  C31  1  0.01566200  0.01990700  0.80102700  1
  C  C32  1  0.98433800  0.01990700  0.19896900  1
  C  C33  1  0.50492900  0.48308400  0.82157300  1
  C  C34  1  0.49507000  0.48308400  0.17842300  1
  C  C35  1  0.00492900  0.98308400  0.82157300  1
  C  C36  1  0.99507000  0.98308400  0.17842300  1
  C  C37  1  0.29671500  0.44868700  0.81391300  1
  C  C38  1  0.70328400  0.44868700  0.18608300  1
  C  C39  1  0.79671500  0.94868700  0.81391300  1
  C  C40  1  0.20328400  0.94868700  0.18608300  1
  C  C41  1  0.34260300  0.44723600  0.85800400  1
  C  C42  1  0.65739700  0.44723600  0.14199200  1
  C  C43  1  0.84260300  0.94723600  0.85800400  1
  C  C44  1  0.15739700  0.94723600  0.14199200  1
  C  C45  1  0.36676500  0.48426500  0.86407000  1
  C  C46  1  0.63323400  0.48426500  0.13592600  1
  C  C47  1  0.86676500  0.98426500  0.86407000  1
  C  C48  1  0.13323400  0.98426500  0.13592600  1
  C  C49  1  0.34440500  0.52243500  0.82448400  1
  C  C50  1  0.65559400  0.52243500  0.17551200  1
  C  C51  1  0.84440500  0.02243500  0.82448400  1
  C  C52  1  0.15559400  0.02243500  0.17551200  1
  C  C53  1  0.29856700  0.52376800  0.78044100  1
  C  C54  1  0.70143200  0.52376800  0.21955500  1
  C  C55  1  0.79856700  0.02376800  0.78044100  1
  C  C56  1  0.20143200  0.02376800  0.21955500  1
  C  C57  1  0.27449900  0.48724100  0.77603100  1
  C  C58  1  0.72550000  0.48724100  0.22396500  1
  C  C59  1  0.77449900  0.98724100  0.77603100  1
  C  C60  1  0.22550000  0.98724100  0.22396500  1
  C  C61  1  0.20333800  0.50175700  0.65511200  1
  C  C62  1  0.79666100  0.50175700  0.34488400  1
  C  C63  1  0.70333800  0.00175700  0.65511200  1
  C  C64  1  0.29666100  0.00175700  0.34488400  1
  C  C65  1  0.15751100  0.50202000  0.60829200  1
  C  C66  1  0.84248800  0.50202000  0.39170400  1
  C  C67  1  0.65751100  0.00202000  0.60829200  1
  C  C68  1  0.34248800  0.00202000  0.39170400  1
  C  C69  1  0.13327100  0.48959200  0.63550500  1
  C  C70  1  0.86672800  0.48959200  0.36449100  1
  C  C71  1  0.63327100  0.98959200  0.63550500  1
  C  C72  1  0.36672800  0.98959200  0.36449100  1
  C  C73  1  0.15549100  0.47742000  0.71030300  1
  C  C74  1  0.84450900  0.47742000  0.28969300  1
  C  C75  1  0.65549100  0.97742000  0.71030300  1
  C  C76  1  0.34450900  0.97742000  0.28969300  1
  C  C77  1  0.20143300  0.47808500  0.75801700  1
  C  C78  1  0.79856600  0.47808500  0.24198000  1
  C  C79  1  0.70143300  0.97808500  0.75801700  1
  C  C80  1  0.29856600  0.97808500  0.24198000  1
  C  C81  1  0.22570000  0.48939500  0.72976500  1
  C  C82  1  0.77429900  0.48939500  0.27023100  1
  C  C83  1  0.72570000  0.98939500  0.72976500  1
  C  C84  1  0.27429900  0.98939500  0.27023100  1
  C  C85  1  0.50000000  0.40581300  0.49999800  1
  C  C86  1  0.00000000  0.90581300  0.49999800  1
  C  C87  1  0.49634100  0.49239200  0.61247100  1
  C  C88  1  0.50365900  0.49239200  0.38752500  1
  C  C89  1  0.99634100  0.99239200  0.61247100  1
  C  C90  1  0.00365900  0.99239200  0.38752500  1
  C  C91  1  0.50000000  0.57461200  0.49999800  1
  C  C92  1  0.00000000  0.07461200  0.49999800  1
  C  C93  1  0.00000000  0.40553100  0.49999800  1
  C  C94  1  0.50000000  0.90553100  0.49999800  1
  C  C95  1  0.08441500  0.48980700  0.58580400  1
  C  C96  1  0.91558400  0.48980700  0.41419200  1
  C  C97  1  0.58441500  0.98980700  0.58580400  1
  C  C98  1  0.41558400  0.98980700  0.41419200  1
  C  C99  1  0.00000000  0.57440500  0.49999800  1
  C  C100  1  0.50000000  0.07440500  0.49999800  1
  C  C101  1  0.46440700  0.28783100  0.44087300  1
  C  C102  1  0.53559200  0.28783100  0.55912300  1
  C  C103  1  0.96440700  0.78783100  0.44087300  1
  C  C104  1  0.03559200  0.78783100  0.55912300  1
  C  C105  1  0.46429000  0.33372900  0.44101300  1
  C  C106  1  0.53570900  0.33372900  0.55898300  1
  C  C107  1  0.96429000  0.83372900  0.44101300  1
  C  C108  1  0.03570900  0.83372900  0.55898300  1
  C  C109  1  0.50000000  0.35697800  0.49999800  1
  C  C110  1  0.00000000  0.85697800  0.49999800  1
  C  C111  1  0.50000000  0.26455900  0.49999800  1
  C  C112  1  0.00000000  0.76455900  0.49999800  1
  C  C113  1  0.01529400  0.69238400  0.56550900  1
  C  C114  1  0.98470500  0.69238400  0.43448700  1
  C  C115  1  0.51529400  0.19238400  0.56550900  1
  C  C116  1  0.48470500  0.19238400  0.43448700  1
  C  C117  1  0.01510300  0.64648700  0.56546600  1
  C  C118  1  0.98489600  0.64648700  0.43453000  1
  C  C119  1  0.51510300  0.14648700  0.56546600  1
  C  C120  1  0.48489600  0.14648700  0.43453000  1
  C  C121  1  0.00000000  0.62323900  0.49999800  1
  C  C122  1  0.50000000  0.12323900  0.49999800  1
  C  C123  1  0.00000000  0.71565700  0.49999800  1
  C  C124  1  0.50000000  0.21565700  0.49999800  1
  C  C125  1  0.46145400  0.69242100  0.47514100  1
  C  C126  1  0.53854500  0.69242100  0.52485500  1
  C  C127  1  0.96145400  0.19242100  0.47514100  1
  C  C128  1  0.03854500  0.19242100  0.52485500  1
  C  C129  1  0.46141400  0.64656700  0.47520400  1
  C  C130  1  0.53858500  0.64656700  0.52479200  1
  C  C131  1  0.96141400  0.14656700  0.47520400  1
  C  C132  1  0.03858500  0.14656700  0.52479200  1
  C  C133  1  0.50000000  0.62337700  0.49999800  1
  C  C134  1  0.00000000  0.12337700  0.49999800  1
  C  C135  1  0.50000000  0.71551300  0.49999800  1
  C  C136  1  0.00000000  0.21551300  0.49999800  1
  C  C137  1  0.54335300  0.55902800  0.73379100  1
  C  C138  1  0.58767700  0.57174900  0.80269400  1
  C  C139  1  0.45664600  0.55902800  0.26620500  1
  C  C140  1  0.41232200  0.57174900  0.19730200  1
  C  C141  1  0.04335300  0.05902800  0.73379100  1
  C  C142  1  0.08767700  0.07174900  0.80269400  1
  C  C143  1  0.95664600  0.05902800  0.26620500  1
  C  C144  1  0.91232200  0.07174900  0.19730200  1
  C  C145  1  0.22269600  0.46798500  0.83808400  1
  C  C146  1  0.25632400  0.49866400  0.89871900  1
  C  C147  1  0.77730300  0.46798500  0.16191200  1
  C  C148  1  0.74367600  0.49866400  0.10127700  1
  C  C149  1  0.72269600  0.96798500  0.83808400  1
  C  C150  1  0.75632400  0.99866400  0.89871900  1
  C  C151  1  0.27730300  0.96798500  0.16191200  1
  C  C152  1  0.24367600  0.99866400  0.10127700  1
  C  C153  1  0.01757700  0.26516700  0.40488500  1
  C  C154  1  0.98462900  0.23323600  0.34611700  1
  C  C155  1  0.98242200  0.26516700  0.59511100  1
  C  C156  1  0.01537000  0.23323600  0.65387900  1
  C  C157  1  0.51757700  0.76516700  0.40488500  1
  C  C158  1  0.48462900  0.73323600  0.34611700  1
  C  C159  1  0.48242200  0.76516700  0.59511100  1
  C  C160  1  0.51537000  0.73323600  0.65387900  1
  O  O1  1  0.43704800  0.52011100  0.91790300  1
  O  O2  1  0.56295100  0.52011100  0.08209300  1
  O  O3  1  0.93704800  0.02011100  0.91790300  1
  O  O4  1  0.06295100  0.02011100  0.08209300  1
  O  O5  1  0.43608700  0.44673100  0.95076100  1
  O  O6  1  0.56391200  0.44673100  0.04923500  1
  O  O7  1  0.93608700  0.94673100  0.95076100  1
  O  O8  1  0.06391200  0.94673100  0.04923500  1
  O  O9  1  0.51467900  0.52011800  0.92761200  1
  O  O10  1  0.48532100  0.52011800  0.07238400  1
  O  O11  1  0.01467900  0.02011800  0.92761200  1
  O  O12  1  0.98532100  0.02011800  0.07238400  1
  O  O13  1  0.49018500  0.44667900  0.90222000  1
  O  O14  1  0.50981500  0.44667900  0.09777600  1
  O  O15  1  0.99018500  0.94667900  0.90222000  1
  O  O16  1  0.00981500  0.94667900  0.09777600  1
  O  O17  1  0.53619700  0.42675100  0.55442600  1
  O  O18  1  0.46380200  0.42675100  0.44557000  1
  O  O19  1  0.03619700  0.92675100  0.55442600  1
  O  O20  1  0.96380200  0.92675100  0.44557000  1
  O  O21  1  0.53431700  0.50286200  0.62282100  1
  O  O22  1  0.46568200  0.50286200  0.37717500  1
  O  O23  1  0.03431700  0.00286200  0.62282100  1
  O  O24  1  0.96568200  0.00286200  0.37717500  1
  O  O25  1  0.46108000  0.47803000  0.54751800  1
  O  O26  1  0.53891900  0.47803000  0.45247800  1
  O  O27  1  0.96108000  0.97803000  0.54751800  1
  O  O28  1  0.03891900  0.97803000  0.45247800  1
  O  O29  1  0.53701900  0.55369100  0.52101200  1
  O  O30  1  0.46298000  0.55369100  0.47898400  1
  O  O31  1  0.03701900  0.05369100  0.52101200  1
  O  O32  1  0.96298000  0.05369100  0.47898400  1
  O  O33  1  0.01321000  0.42646900  0.46285600  1
  O  O34  1  0.98678900  0.42646900  0.53714100  1
  O  O35  1  0.51321000  0.92646900  0.46285600  1
  O  O36  1  0.48678900  0.92646900  0.53714100  1
  O  O37  1  0.06438000  0.50224900  0.51489800  1
  O  O38  1  0.93561900  0.50224900  0.48509800  1
  O  O39  1  0.56438000  0.00224900  0.51489800  1
  O  O40  1  0.43561900  0.00224900  0.48509800  1
  O  O41  1  0.06252100  0.47763700  0.61415000  1
  O  O42  1  0.93747800  0.47763700  0.38584600  1
  O  O43  1  0.56252100  0.97763700  0.61415000  1
  O  O44  1  0.43747800  0.97763700  0.38584600  1
  O  O45  1  0.98861900  0.55346000  0.43784500  1
  O  O46  1  0.01138000  0.55346000  0.56215100  1
  O  O47  1  0.48861900  0.05346000  0.43784500  1
  O  O48  1  0.51138000  0.05346000  0.56215100  1
  O  O49  1  0.52689300  0.58174000  0.67714000  1
  O  O50  1  0.47310600  0.58174000  0.32285600  1
  O  O51  1  0.02689300  0.08174000  0.67714000  1
  O  O52  1  0.97310600  0.08174000  0.32285600  1
  O  O53  1  0.20956300  0.43634700  0.85517900  1
  O  O54  1  0.79043600  0.43634700  0.14481700  1
  O  O55  1  0.70956300  0.93634700  0.85517900  1
  O  O56  1  0.29043600  0.93634700  0.14481700  1
  O  O57  1  0.04967000  0.27603800  0.40565500  1
  O  O58  1  0.95032900  0.27603800  0.59434200  1
  O  O59  1  0.54967000  0.77603800  0.40565500  1
  O  O60  1  0.45032900  0.77603800  0.59434200  1
