# generated using pymatgen
data_ZnH15C18(NO2)3
_symmetry_space_group_name_H-M   'P 1'
_cell_length_a   14.22452900
_cell_length_b   8.60602200
_cell_length_c   13.39692500
_cell_angle_alpha   90.00000000
_cell_angle_beta   90.95901800
_cell_angle_gamma   90.00000000
_symmetry_Int_Tables_number   1
_chemical_formula_structural   ZnH15C18(NO2)3
_chemical_formula_sum   'Zn2 H30 C36 N6 O12'
_cell_volume   1639.77640859
_cell_formula_units_Z   2
loop_
 _symmetry_equiv_pos_site_id
 _symmetry_equiv_pos_as_xyz
  1  'x, y, z'
loop_
 _atom_site_type_symbol
 _atom_site_label
 _atom_site_symmetry_multiplicity
 _atom_site_fract_x
 _atom_site_fract_y
 _atom_site_fract_z
 _atom_site_occupancy
  Zn  Zn1  1  0.89591800  0.50058300  0.51087600  1
  Zn  Zn2  1  0.10408200  0.50058300  0.48912300  1
  H  H1  1  0.00020800  0.24867600  0.83654600  1
  H  H2  1  0.99979200  0.24867600  0.16345300  1
  H  H3  1  0.00023800  0.75245100  0.83654400  1
  H  H4  1  0.99976200  0.75245100  0.16345600  1
  H  H5  1  0.04320600  0.00055800  0.56704800  1
  H  H6  1  0.95679400  0.00055800  0.43295200  1
  H  H7  1  0.57963500  0.30601100  0.61093400  1
  H  H8  1  0.42036500  0.30601100  0.38906500  1
  H  H9  1  0.58420400  0.46368800  0.34112300  1
  H  H10  1  0.41579700  0.46368800  0.65887700  1
  H  H11  1  0.43338500  0.49529500  0.33725900  1
  H  H12  1  0.56661500  0.49529500  0.66274100  1
  H  H13  1  0.59194400  0.73170300  0.55357800  1
  H  H14  1  0.40805600  0.73170300  0.44642200  1
  H  H15  1  0.43294200  0.18181400  0.53101700  1
  H  H16  1  0.31344200  0.01264700  0.52722100  1
  H  H17  1  0.20875600  0.12917800  0.51222200  1
  H  H18  1  0.23268600  0.03115200  0.62907900  1
  H  H19  1  0.56705800  0.18181400  0.46898300  1
  H  H20  1  0.68655800  0.01264700  0.47277900  1
  H  H21  1  0.79124400  0.12917800  0.48777700  1
  H  H22  1  0.76731400  0.03115200  0.37092100  1
  H  H23  1  0.64639300  0.69170500  0.37145900  1
  H  H24  1  0.63383600  0.83284400  0.22877300  1
  H  H25  1  0.61824800  0.03194000  0.26770500  1
  H  H26  1  0.52211500  0.92814800  0.20952200  1
  H  H27  1  0.35360700  0.69170500  0.62854100  1
  H  H28  1  0.36616400  0.83284400  0.77122600  1
  H  H29  1  0.38175200  0.03194000  0.73229500  1
  H  H30  1  0.47788500  0.92814800  0.79047800  1
  C  C1  1  0.01943000  0.13987200  0.69495200  1
  C  C2  1  0.98057000  0.13987200  0.30504800  1
  C  C3  1  0.00699900  0.14005000  0.79679900  1
  C  C4  1  0.99300100  0.14005000  0.20320100  1
  C  C5  1  0.00523600  0.00056600  0.84812600  1
  C  C6  1  0.99476400  0.00056600  0.15187300  1
  C  C7  1  0.00701800  0.86108400  0.79679800  1
  C  C8  1  0.99298200  0.86108400  0.20320200  1
  C  C9  1  0.01945100  0.86127300  0.69495100  1
  C  C10  1  0.98054900  0.86127300  0.30504900  1
  C  C11  1  0.03093300  0.00057300  0.64597200  1
  C  C12  1  0.96906700  0.00057300  0.35402800  1
  C  C13  1  0.00116700  0.00056200  0.95506800  1
  C  C14  1  0.99883400  0.00056200  0.04493200  1
  C  C15  1  0.01339100  0.71870000  0.63538700  1
  C  C16  1  0.98660900  0.71870000  0.36461300  1
  C  C17  1  0.98664000  0.28245600  0.36460200  1
  C  C18  1  0.01336000  0.28245600  0.63539800  1
  C  C19  1  0.54831000  0.42193900  0.59719500  1
  C  C20  1  0.45169000  0.42193900  0.40280500  1
  C  C21  1  0.55821600  0.41141100  0.41066300  1
  C  C22  1  0.44178400  0.41141100  0.58933700  1
  C  C23  1  0.58878000  0.49959100  0.50426700  1
  C  C24  1  0.41122000  0.49959100  0.49573300  1
  C  C25  1  0.44604400  0.66732000  0.50567400  1
  C  C26  1  0.55395600  0.66732000  0.49432600  1
  C  C27  1  0.30840400  0.50022100  0.48601400  1
  C  C28  1  0.69159600  0.50022100  0.51398600  1
  C  C29  1  0.31568900  0.23362500  0.60350900  1
  C  C30  1  0.26497900  0.09289800  0.56559600  1
  C  C31  1  0.68431100  0.23362500  0.39649000  1
  C  C32  1  0.73502100  0.09289800  0.43440400  1
  C  C33  1  0.55115700  0.86372000  0.36050500  1
  C  C34  1  0.58376500  0.91723200  0.26081400  1
  C  C35  1  0.44884300  0.86372000  0.63949400  1
  C  C36  1  0.41623500  0.91723200  0.73918600  1
  N  N1  1  0.22708700  0.50081600  0.48057500  1
  N  N2  1  0.77291300  0.50081600  0.51942500  1
  N  N3  1  0.40841200  0.25281300  0.58573300  1
  N  N4  1  0.59158800  0.25281300  0.41426700  1
  N  N5  1  0.58193200  0.72587100  0.39735100  1
  N  N6  1  0.41806800  0.72587100  0.60264900  1
  O  O1  1  0.08995400  0.66881800  0.59247100  1
  O  O2  1  0.91004600  0.66881800  0.40752800  1
  O  O3  1  0.92938200  0.66306600  0.61400400  1
  O  O4  1  0.07061800  0.66306600  0.38599600  1
  O  O5  1  0.91015100  0.33238500  0.40753100  1
  O  O6  1  0.08984900  0.33238500  0.59246800  1
  O  O7  1  0.07058600  0.33813500  0.38598700  1
  O  O8  1  0.92941400  0.33813500  0.61401200  1
  O  O9  1  0.27282400  0.32893000  0.65241000  1
  O  O10  1  0.72717600  0.32893000  0.34759000  1
  O  O11  1  0.49453300  0.94253300  0.40491800  1
  O  O12  1  0.50546700  0.94253300  0.59508200  1
