# generated using pymatgen
data_V2H16C31O13
_symmetry_space_group_name_H-M   'P 1'
_cell_length_a   6.31650000
_cell_length_b   17.19297400
_cell_length_c   22.38637800
_cell_angle_alpha   90.32866000
_cell_angle_beta   90.77029000
_cell_angle_gamma   89.01053600
_symmetry_Int_Tables_number   1
_chemical_formula_structural   V2H16C31O13
_chemical_formula_sum   'V4 H32 C62 O26'
_cell_volume   2430.52865316
_cell_formula_units_Z   2
loop_
 _symmetry_equiv_pos_site_id
 _symmetry_equiv_pos_as_xyz
  1  'x, y, z'
loop_
 _atom_site_type_symbol
 _atom_site_label
 _atom_site_symmetry_multiplicity
 _atom_site_fract_x
 _atom_site_fract_y
 _atom_site_fract_z
 _atom_site_occupancy
  V  V1  1  0.20117100  0.74991500  0.75916800  1
  V  V2  1  0.82744000  0.25604400  0.24439700  1
  V  V3  1  0.70068900  0.75510400  0.74539000  1
  V  V4  1  0.32842300  0.25027000  0.25832100  1
  H  H1  1  0.69622100  0.15477800  0.56233900  1
  H  H2  1  0.28532100  0.84097000  0.43436300  1
  H  H3  1  0.90527700  0.12105600  0.38390500  1
  H  H4  1  0.11130200  0.88199500  0.61596300  1
  H  H5  1  0.69037800  0.11588800  0.66244900  1
  H  H6  1  0.30814800  0.88391900  0.33518900  1
  H  H7  1  0.78399200  0.13189400  0.46070900  1
  H  H8  1  0.19164800  0.86223200  0.53577100  1
  H  H9  1  0.71487000  0.33105800  0.92320100  1
  H  H10  1  0.14307400  0.64040800  0.06267900  1
  H  H11  1  0.62283200  0.37956200  0.10861200  1
  H  H12  1  0.34305200  0.61512900  0.88448700  1
  H  H13  1  0.63883900  0.35038500  0.02653200  1
  H  H14  1  0.19997400  0.61577600  0.95887900  1
  H  H15  1  0.39420000  0.03514100  0.23869700  1
  H  H16  1  0.15880400  0.98922400  0.20959000  1
  H  H17  1  0.54321700  0.92912900  0.25018000  1
  H  H18  1  0.86592900  0.01802500  0.78893700  1
  H  H19  1  0.62991100  0.96866400  0.76396900  1
  H  H20  1  0.70289700  0.11986900  0.78745000  1
  H  H21  1  0.38406800  0.47265700  0.28550200  1
  H  H22  1  0.13464500  0.51799900  0.26406500  1
  H  H23  1  0.49973300  0.57747300  0.30615600  1
  H  H24  1  0.87009500  0.48032500  0.73997500  1
  H  H25  1  0.64922100  0.53755200  0.71109100  1
  H  H26  1  0.47025500  0.43440100  0.69584000  1
  H  H27  1  0.90448600  0.35357400  0.84791400  1
  H  H28  1  0.80657300  0.36479400  0.77184100  1
  H  H29  1  0.49032500  0.31505000  0.83039300  1
  H  H30  1  0.99839400  0.62299200  0.14456300  1
  H  H31  1  0.23450100  0.68037600  0.15421600  1
  H  H32  1  0.99337600  0.65989500  0.23469200  1
  C  C1  1  0.49457100  0.62771000  0.78479000  1
  C  C2  1  0.52091300  0.37826700  0.21552600  1
  C  C3  1  0.46127600  0.83678600  0.83363700  1
  C  C4  1  0.56767800  0.17004000  0.16935700  1
  C  C5  1  0.95522200  0.87772600  0.71725600  1
  C  C6  1  0.06994700  0.12768900  0.28462800  1
  C  C7  1  0.99695200  0.66835600  0.67097100  1
  C  C8  1  0.03176600  0.33636200  0.33321200  1
  C  C9  1  0.99175400  0.61990200  0.61714100  1
  C  C10  1  0.03752400  0.38448300  0.38720600  1
  C  C11  1  0.99690200  0.57679300  0.57364200  1
  C  C12  1  0.03257100  0.42744900  0.43078800  1
  C  C13  1  0.00895500  0.52447200  0.52343700  1
  C  C14  1  0.02059100  0.47969800  0.48103600  1
  C  C15  1  0.94606600  0.94499800  0.67968500  1
  C  C16  1  0.07012500  0.05846900  0.32006100  1
  C  C17  1  0.78610000  0.06506800  0.65183000  1
  C  C18  1  0.21485800  0.93523100  0.34611500  1
  C  C19  1  0.82670200  0.00959900  0.69451100  1
  C  C20  1  0.18515900  0.99307500  0.30461200  1
  C  C21  1  0.02551700  0.93530700  0.62381500  1
  C  C22  1  0.98310700  0.06639300  0.37509900  1
  C  C23  1  0.97188600  0.98713400  0.57943900  1
  C  C24  1  0.02434200  0.01176700  0.41834600  1
  C  C25  1  0.85307600  0.05255000  0.59416300  1
  C  C26  1  0.14106300  0.94602100  0.40333300  1
  C  C27  1  0.02644600  0.97251000  0.52053600  1
  C  C28  1  0.96355200  0.02488600  0.47687700  1
  C  C29  1  0.84440700  0.09045500  0.49253100  1
  C  C30  1  0.13966300  0.90568400  0.50443800  1
  C  C31  1  0.79154700  0.10419800  0.55083200  1
  C  C32  1  0.19376200  0.89237800  0.44611800  1
  C  C33  1  0.49765700  0.55562000  0.81684300  1
  C  C34  1  0.48043000  0.44305900  0.17665900  1
  C  C35  1  0.63800900  0.42988200  0.83760400  1
  C  C36  1  0.28656000  0.55760200  0.15116200  1
  C  C37  1  0.60627100  0.49008000  0.79804900  1
  C  C38  1  0.36009800  0.50649800  0.19406100  1
  C  C39  1  0.41437200  0.56024800  0.87251000  1
  C  C40  1  0.53006000  0.43081300  0.11826700  1
  C  C41  1  0.45534600  0.50279500  0.91332300  1
  C  C42  1  0.44646400  0.47847200  0.07472700  1
  C  C43  1  0.57024000  0.43785700  0.89573200  1
  C  C44  1  0.32692900  0.54268200  0.09176500  1
  C  C45  1  0.40132100  0.51372100  0.97247600  1
  C  C46  1  0.47827600  0.46210400  0.01475900  1
  C  C47  1  0.58518200  0.39495700  0.99628400  1
  C  C48  1  0.27728500  0.57708000  0.99006500  1
  C  C49  1  0.62693900  0.38247700  0.93691800  1
  C  C50  1  0.24065200  0.59118100  0.04938400  1
  C  C51  1  0.48753100  0.88586500  0.88660000  1
  C  C52  1  0.54047100  0.12132200  0.11623200  1
  C  C53  1  0.50050500  0.92911900  0.92985700  1
  C  C54  1  0.52699500  0.07823000  0.07289100  1
  C  C55  1  0.51014400  0.98137700  0.98009400  1
  C  C56  1  0.51707700  0.02605200  0.02260800  1
  C  C57  1  0.28368000  0.98649600  0.24485200  1
  C  C58  1  0.73588800  0.01793100  0.75515600  1
  C  C59  1  0.30859300  0.51913800  0.25809900  1
  C  C60  1  0.69494200  0.48497600  0.73692800  1
  C  C61  1  0.76057200  0.35936100  0.81924900  1
  C  C62  1  0.15410600  0.62656600  0.16780500  1
  O  O1  1  0.58308400  0.77467900  0.82550200  1
  O  O2  1  0.44602600  0.23207500  0.17803000  1
  O  O3  1  0.38708100  0.68473500  0.81080800  1
  O  O4  1  0.64222600  0.32207500  0.19303400  1
  O  O5  1  0.16710200  0.65961200  0.70568100  1
  O  O6  1  0.86129900  0.34561600  0.29860400  1
  O  O7  1  0.28363200  0.84448500  0.80359500  1
  O  O8  1  0.74556000  0.16198900  0.19923100  1
  O  O9  1  0.07093600  0.81935900  0.69879900  1
  O  O10  1  0.95764600  0.18610500  0.30439300  1
  O  O11  1  0.66469600  0.64225700  0.75387800  1
  O  O12  1  0.36456300  0.36322000  0.25134500  1
  O  O13  1  0.47234800  0.76856100  0.70785800  1
  O  O14  1  0.55670300  0.23626800  0.29566100  1
  O  O15  1  0.78541000  0.86507500  0.74685700  1
  O  O16  1  0.24252200  0.14041000  0.25622100  1
  O  O17  1  0.87472900  0.73274000  0.67408200  1
  O  O18  1  0.15440700  0.27198400  0.32975100  1
  O  O19  1  0.97845700  0.73369200  0.79619300  1
  O  O20  1  0.05063900  0.27267300  0.20770500  1
  O  O21  1  0.39465200  0.91594200  0.24052400  1
  O  O22  1  0.62095600  0.08770100  0.75886700  1
  O  O23  1  0.38571600  0.59080300  0.27701500  1
  O  O24  1  0.61666600  0.41936000  0.70783700  1
  O  O25  1  0.63603700  0.29389500  0.82587800  1
  O  O26  1  0.12352200  0.62784800  0.22932600  1
