# generated using pymatgen
data_ZnH8C17(NO2)2
_symmetry_space_group_name_H-M   'P 1'
_cell_length_a   16.02166300
_cell_length_b   16.13166600
_cell_length_c   14.98768800
_cell_angle_alpha   90.00834800
_cell_angle_beta   89.98980300
_cell_angle_gamma   89.99429500
_symmetry_Int_Tables_number   1
_chemical_formula_structural   ZnH8C17(NO2)2
_chemical_formula_sum   'Zn2 H16 C34 N4 O8'
_cell_volume   3873.65951083
_cell_formula_units_Z   2
loop_
 _symmetry_equiv_pos_site_id
 _symmetry_equiv_pos_as_xyz
  1  'x, y, z'
loop_
 _atom_site_type_symbol
 _atom_site_label
 _atom_site_symmetry_multiplicity
 _atom_site_fract_x
 _atom_site_fract_y
 _atom_site_fract_z
 _atom_site_occupancy
  Zn  Zn1  1  0.50024000  0.50001000  0.60164700  1
  Zn  Zn2  1  0.49976000  0.49999000  0.39835300  1
  H  H1  1  0.04890300  0.36996200  0.43429100  1
  H  H2  1  0.95109700  0.63003800  0.56570900  1
  H  H3  1  0.95111600  0.49512000  0.34548500  1
  H  H4  1  0.04888400  0.50488000  0.65451500  1
  H  H5  1  0.50016300  0.07627900  0.64212100  1
  H  H6  1  0.49983700  0.92372100  0.35787900  1
  H  H7  1  0.49971400  0.92377000  0.64212800  1
  H  H8  1  0.50028600  0.07623000  0.35787200  1
  H  H9  1  0.40561900  0.40680600  0.08181600  1
  H  H10  1  0.59438100  0.59319400  0.91818400  1
  H  H11  1  0.40604000  0.40678500  0.91767500  1
  H  H12  1  0.59396000  0.59321500  0.08232500  1
  H  H13  1  0.98764800  0.33479100  0.61751400  1
  H  H14  1  0.90532600  0.33186900  0.54744900  1
  H  H15  1  0.01235200  0.66520900  0.38248600  1
  H  H16  1  0.09467400  0.66813100  0.45255100  1
  C  C1  1  0.50053100  0.33802500  0.49999600  1
  C  C2  1  0.49946900  0.66197600  0.50000400  1
  C  C3  1  0.33691300  0.49944900  0.50038200  1
  C  C4  1  0.66308800  0.50055100  0.49961800  1
  C  C5  1  0.97180300  0.43862200  0.54355800  1
  C  C6  1  0.02819700  0.56137800  0.45644100  1
  C  C7  1  0.02666500  0.42963200  0.46229600  1
  C  C8  1  0.97333500  0.57036800  0.53770400  1
  C  C9  1  0.24736500  0.49888200  0.50071600  1
  C  C10  1  0.75263500  0.50111800  0.49928400  1
  C  C11  1  0.02665100  0.50447100  0.58446200  1
  C  C12  1  0.97334900  0.49552900  0.41553800  1
  C  C13  1  0.08089300  0.49756900  0.50171200  1
  C  C14  1  0.91910800  0.50243100  0.49828800  1
  C  C15  1  0.17217300  0.49830900  0.50112200  1
  C  C16  1  0.82782800  0.50169100  0.49887800  1
  C  C17  1  0.49983400  0.95727700  0.57967800  1
  C  C18  1  0.50016600  0.04272300  0.42032200  1
  C  C19  1  0.49973100  0.91453700  0.50000400  1
  C  C20  1  0.50026900  0.08546300  0.49999600  1
  C  C21  1  0.49990300  0.95725000  0.42032600  1
  C  C22  1  0.50009800  0.04275000  0.57967400  1
  C  C23  1  0.49953600  0.82560200  0.50000700  1
  C  C24  1  0.50046400  0.17439800  0.49999300  1
  C  C25  1  0.50055300  0.24908600  0.49999300  1
  C  C26  1  0.49944700  0.75091400  0.50000700  1
  C  C27  1  0.44733000  0.44774100  0.95386000  1
  C  C28  1  0.55267000  0.55225900  0.04614000  1
  C  C29  1  0.50024700  0.49997800  0.90800900  1
  C  C30  1  0.49975400  0.50002300  0.09199100  1
  C  C31  1  0.55291400  0.55224100  0.95414300  1
  C  C32  1  0.44708600  0.44775900  0.04585700  1
  C  C33  1  0.50044200  0.49999300  0.81228000  1
  C  C34  1  0.49955800  0.50000700  0.18772000  1
  N  N1  1  0.49946400  0.49999600  0.26491200  1
  N  N2  1  0.50053700  0.50000400  0.73508800  1
  N  N3  1  0.93748400  0.36914200  0.59284400  1
  N  N4  1  0.06251600  0.63085800  0.40715600  1
  O  O1  1  0.50063900  0.37650100  0.57712000  1
  O  O2  1  0.49936100  0.62349900  0.42288000  1
  O  O3  1  0.50019100  0.37648800  0.42287800  1
  O  O4  1  0.49981000  0.62351200  0.57712200  1
  O  O5  1  0.37584900  0.49959600  0.57737600  1
  O  O6  1  0.62415200  0.50040400  0.42262400  1
  O  O7  1  0.37544600  0.49958500  0.42313500  1
  O  O8  1  0.62455500  0.50041500  0.57686500  1
