# generated using pymatgen
data_ZnH19C26(N3O2)2
_symmetry_space_group_name_H-M   'P 1'
_cell_length_a   19.28394700
_cell_length_b   19.30408100
_cell_length_c   9.34251400
_cell_angle_alpha   89.99339800
_cell_angle_beta   89.99140800
_cell_angle_gamma   90.00000000
_symmetry_Int_Tables_number   1
_chemical_formula_structural   ZnH19C26(N3O2)2
_chemical_formula_sum   'Zn2 H38 C52 N12 O8'
_cell_volume   3477.83368807
_cell_formula_units_Z   2
loop_
 _symmetry_equiv_pos_site_id
 _symmetry_equiv_pos_as_xyz
  1  'x, y, z'
loop_
 _atom_site_type_symbol
 _atom_site_label
 _atom_site_symmetry_multiplicity
 _atom_site_fract_x
 _atom_site_fract_y
 _atom_site_fract_z
 _atom_site_occupancy
  Zn  Zn1  1  0.49419100  0.50366800  0.66112300  1
  Zn  Zn2  1  0.50597100  0.49557700  0.33897600  1
  H  H1  1  0.28318100  0.55604600  0.69528600  1
  H  H2  1  0.71691400  0.44008100  0.30689000  1
  H  H3  1  0.15296500  0.48318300  0.27047600  1
  H  H4  1  0.84706700  0.51829700  0.72777200  1
  H  H5  1  0.27869500  0.48688800  0.26226100  1
  H  H6  1  0.72142100  0.51488000  0.73603800  1
  H  H7  1  0.55415600  0.27934700  0.70604100  1
  H  H8  1  0.44566000  0.71990400  0.29470000  1
  H  H9  1  0.55836800  0.15362900  0.69932000  1
  H  H10  1  0.44141300  0.84561700  0.30152600  1
  H  H11  1  0.43494900  0.15536200  0.31785100  1
  H  H12  1  0.56552500  0.84388100  0.68203300  1
  H  H13  1  0.43053100  0.28075900  0.32749600  1
  H  H14  1  0.56998900  0.71848100  0.67224700  1
  H  H15  1  0.73773600  0.68423200  0.33246300  1
  H  H16  1  0.26194200  0.31602700  0.66532500  1
  H  H17  1  0.63829900  0.64461000  0.46240500  1
  H  H18  1  0.36193600  0.35493700  0.53649900  1
  H  H19  1  0.55871500  0.67479500  0.22800100  1
  H  H20  1  0.44086000  0.32453900  0.77157600  1
  H  H21  1  0.65660200  0.59269400  0.95933700  1
  H  H22  1  0.34261300  0.40702700  0.03942800  1
  H  H23  1  0.74563200  0.66360500  0.07290700  1
  H  H24  1  0.25343700  0.33676400  0.92474200  1
  H  H25  1  0.62347000  0.47513500  0.99834700  1
  H  H26  1  0.37626200  0.52422700  0.00147800  1
  H  H27  1  0.15133400  0.66120200  0.69206500  1
  H  H28  1  0.21396300  0.63261100  0.82389100  1
  H  H29  1  0.12349200  0.63878200  0.87059200  1
  H  H30  1  0.15291100  0.45283200  0.80942900  1
  H  H31  1  0.12725700  0.51595800  0.94177700  1
  H  H32  1  0.21688900  0.51000600  0.88766700  1
  H  H33  1  0.80368500  0.52723700  0.18240000  1
  H  H34  1  0.81105600  0.45514000  0.05940600  1
  H  H35  1  0.88670200  0.50513400  0.10725200  1
  H  H36  1  0.85243900  0.33344700  0.32454400  1
  H  H37  1  0.87492300  0.35123000  0.14072800  1
  H  H38  1  0.78556800  0.35657900  0.19769400  1
  C  C1  1  0.48810900  0.36471400  0.52147100  1
  C  C2  1  0.51211300  0.63453500  0.47865100  1
  C  C3  1  0.36531700  0.51559000  0.48486700  1
  C  C4  1  0.63481900  0.48361400  0.51526500  1
  C  C5  1  0.25440700  0.54064400  0.60150500  1
  C  C6  1  0.74562000  0.45634000  0.40024700  1
  C  C7  1  0.18288800  0.53875600  0.60818700  1
  C  C8  1  0.81718300  0.45786500  0.39361600  1
  C  C9  1  0.14527000  0.51672000  0.48957600  1
  C  C10  1  0.85485300  0.48163300  0.51074400  1
  C  C11  1  0.18069800  0.49983500  0.36487500  1
  C  C12  1  0.81939900  0.50031600  0.63434500  1
  C  C13  1  0.25229400  0.50255500  0.35904500  1
  C  C14  1  0.74780800  0.49776700  0.64029100  1
  C  C15  1  0.28949600  0.52149000  0.47871100  1
  C  C16  1  0.71057800  0.47737400  0.52172000  1
  C  C17  1  0.93104200  0.48996800  0.50520900  1
  C  C18  1  0.06909200  0.50839300  0.49480300  1
  C  C19  1  0.52669500  0.25205200  0.62239200  1
  C  C20  1  0.47327400  0.74719800  0.37813500  1
  C  C21  1  0.52949200  0.18068200  0.61748600  1
  C  C22  1  0.47045800  0.81856600  0.38310600  1
  C  C23  1  0.49609200  0.14492800  0.50917300  1
  C  C24  1  0.50403900  0.85431800  0.49118200  1
  C  C25  1  0.46091000  0.18162600  0.40476800  1
  C  C26  1  0.53941900  0.81761800  0.59530000  1
  C  C27  1  0.45834400  0.25294800  0.40990300  1
  C  C28  1  0.54201700  0.74629800  0.59007900  1
  C  C29  1  0.48955300  0.28845900  0.52073800  1
  C  C30  1  0.51063700  0.71079200  0.47944300  1
  C  C31  1  0.50182000  0.93032900  0.49602500  1
  C  C32  1  0.49829700  0.06891600  0.50436600  1
  C  C33  1  0.63511100  0.64304800  0.34699400  1
  C  C34  1  0.36484000  0.35660200  0.65193400  1
  C  C35  1  0.57471800  0.62568800  0.27155100  1
  C  C36  1  0.42513000  0.37372800  0.72799300  1
  C  C37  1  0.59054900  0.59012700  0.14503400  1
  C  C38  1  0.40916700  0.40929700  0.85445600  1
  C  C39  1  0.64901100  0.60967100  0.06844200  1
  C  C40  1  0.35039800  0.39005400  0.93038000  1
  C  C41  1  0.69933400  0.64959000  0.13138700  1
  C  C42  1  0.29997900  0.35049900  0.86680500  1
  C  C43  1  0.69414600  0.66272500  0.27487100  1
  C  C44  1  0.30549200  0.33730800  0.72340300  1
  C  C45  1  0.56855400  0.48634900  0.99821400  1
  C  C46  1  0.43116500  0.51295200  0.00170500  1
  C  C47  1  0.45706200  0.45697500  0.92565100  1
  C  C48  1  0.54265500  0.54232500  0.07424800  1
  C  C49  1  0.16036200  0.62571800  0.78355900  1
  C  C50  1  0.16249500  0.50591900  0.85026800  1
  C  C51  1  0.83703200  0.48364500  0.14738800  1
  C  C52  1  0.84005400  0.36600000  0.23012100  1
  N  N1  1  0.03668100  0.47143300  0.39282400  1
  N  N2  1  0.96345100  0.52703100  0.60701800  1
  N  N3  1  0.96876000  0.46240900  0.39808000  1
  N  N4  1  0.03135800  0.53607100  0.60175400  1
  N  N5  1  0.46573200  0.03443400  0.39879600  1
  N  N6  1  0.53438600  0.96481100  0.60159600  1
  N  N7  1  0.46749100  0.96600300  0.39463100  1
  N  N8  1  0.53262400  0.03324200  0.60576500  1
  N  N9  1  0.52552200  0.44439600  0.92552200  1
  N  N10  1  0.47419800  0.55490400  0.07438700  1
  N  N11  1  0.14905200  0.55531800  0.73814700  1
  N  N12  1  0.85094300  0.43780200  0.26569500  1
  O  O1  1  0.48009400  0.39994300  0.64223500  1
  O  O2  1  0.52004900  0.59930400  0.35786200  1
  O  O3  1  0.49523000  0.39500800  0.39658000  1
  O  O4  1  0.50498400  0.60423100  0.60351900  1
  O  O5  1  0.39243200  0.51267300  0.61278800  1
  O  O6  1  0.60774700  0.48658900  0.38728000  1
  O  O7  1  0.40260700  0.51060900  0.36681600  1
  O  O8  1  0.59754200  0.48860200  0.63330200  1
