# generated using pymatgen
data_Fe2H20C40N4O17
_symmetry_space_group_name_H-M   'P 1'
_cell_length_a   9.39366600
_cell_length_b   16.51397800
_cell_length_c   15.91428900
_cell_angle_alpha   104.54820900
_cell_angle_beta   87.50742200
_cell_angle_gamma   76.36413400
_symmetry_Int_Tables_number   1
_chemical_formula_structural   Fe2H20C40N4O17
_chemical_formula_sum   'Fe2 H20 C40 N4 O17'
_cell_volume   2308.33860921
_cell_formula_units_Z   1
loop_
 _symmetry_equiv_pos_site_id
 _symmetry_equiv_pos_as_xyz
  1  'x, y, z'
loop_
 _atom_site_type_symbol
 _atom_site_label
 _atom_site_symmetry_multiplicity
 _atom_site_fract_x
 _atom_site_fract_y
 _atom_site_fract_z
 _atom_site_occupancy
  Fe  Fe1  1  0.49159300  0.00052000  0.32349800  1
  Fe  Fe2  1  0.50922100  0.99034900  0.68156200  1
  H  H1  1  0.63608500  0.01798900  0.95038900  1
  H  H2  1  0.30633000  0.05628600  0.92549200  1
  H  H3  1  0.22827700  0.10646900  0.06573300  1
  H  H4  1  0.74098200  0.90912800  0.94194900  1
  H  H5  1  0.69359500  0.94823700  0.07825000  1
  H  H6  1  0.33585200  0.94268400  0.92184800  1
  H  H7  1  0.35637900  0.00440400  0.06035200  1
  H  H8  1  0.97083600  0.99858000  0.71569700  1
  H  H9  1  0.03516300  0.98976300  0.28662700  1
  H  H10  1  0.22669300  0.27067700  0.43623600  1
  H  H11  1  0.12043400  0.43103500  0.69862900  1
  H  H12  1  0.24503600  0.31182200  0.75151100  1
  H  H13  1  0.88653200  0.56069500  0.30623200  1
  H  H14  1  0.76335300  0.68001500  0.25308400  1
  H  H15  1  0.77304400  0.71998800  0.56878300  1
  H  H16  1  0.75992300  0.14137500  0.04423000  1
  H  H17  1  0.74985900  0.16164600  0.16281000  1
  H  H18  1  0.49120400  0.24182600  0.17489200  1
  H  H19  1  0.61163900  0.28670900  0.11838500  1
  H  H20  1  0.50131800  0.22116300  0.05724700  1
  C  C1  1  0.97938200  0.00103300  0.78368700  1
  C  C2  1  0.86167000  0.99238400  0.83120100  1
  C  C3  1  0.86847800  0.99259700  0.91798600  1
  C  C4  1  0.74008100  0.97845700  0.96499200  1
  C  C5  1  0.73435500  0.00120500  0.06309200  1
  C  C6  1  0.11002800  0.00385300  0.81893000  1
  C  C7  1  0.11690900  0.00644500  0.90742200  1
  C  C8  1  0.99425200  0.00257300  0.95763500  1
  C  C9  1  0.00089000  0.00247000  0.05004600  1
  C  C10  1  0.87849700  0.99836700  0.10039400  1
  C  C11  1  0.88975000  0.99380500  0.18700900  1
  C  C12  1  0.25873800  0.00786900  0.94561400  1
  C  C13  1  0.24707100  0.03514800  0.04380600  1
  C  C14  1  0.12811400  0.01046000  0.08869000  1
  C  C15  1  0.13883900  0.00472700  0.17382300  1
  C  C16  1  0.02312500  0.99251300  0.22017800  1
  C  C17  1  0.76657600  0.99164900  0.24762900  1
  C  C18  1  0.62995600  0.84167100  0.34278600  1
  C  C19  1  0.26836600  0.01557100  0.21929000  1
  C  C20  1  0.35545800  0.12762900  0.47069900  1
  C  C21  1  0.64573500  0.86340800  0.53406900  1
  C  C22  1  0.73277900  0.97936500  0.78614300  1
  C  C23  1  0.37578700  0.14961300  0.66167400  1
  C  C24  1  0.23544100  0.00325800  0.75869700  1
  C  C25  1  0.30058300  0.21118400  0.53550400  1
  C  C26  1  0.23211200  0.28070700  0.50563900  1
  C  C27  1  0.16421100  0.35985000  0.56333500  1
  C  C28  1  0.17135500  0.36995200  0.65169100  1
  C  C29  1  0.24221000  0.30145700  0.68189800  1
  C  C30  1  0.30601300  0.22108900  0.62481300  1
  C  C31  1  0.92219500  0.55993400  0.47366400  1
  C  C32  1  0.08046500  0.43122800  0.53143300  1
  C  C33  1  0.83422100  0.62154700  0.35315200  1
  C  C34  1  0.76433800  0.69010900  0.32277900  1
  C  C35  1  0.69882400  0.77019700  0.37983400  1
  C  C36  1  0.70169200  0.77986000  0.46927900  1
  C  C37  1  0.76932700  0.71023300  0.49928500  1
  C  C38  1  0.83887600  0.63134000  0.44163600  1
  C  C39  1  0.68891500  0.14992200  0.10461300  1
  C  C40  1  0.56498700  0.23028000  0.11444100  1
  N  N1  1  0.00953100  0.50696200  0.58821900  1
  N  N2  1  0.93168200  0.57054400  0.55970700  1
  N  N3  1  0.99311600  0.48419900  0.41689400  1
  N  N4  1  0.07092600  0.42061800  0.44540300  1
  O  O1  1  0.62914000  0.00904000  0.23028700  1
  O  O2  1  0.65193400  0.83168000  0.25839800  1
  O  O3  1  0.79437300  0.97600400  0.32292400  1
  O  O4  1  0.54796800  0.91559500  0.39231100  1
  O  O5  1  0.32362100  0.96270000  0.26586300  1
  O  O6  1  0.32130200  0.08262400  0.22048600  1
  O  O7  1  0.45588100  0.11859800  0.40672200  1
  O  O8  1  0.29359100  0.06429300  0.47131800  1
  O  O9  1  0.54857100  0.87141700  0.59941800  1
  O  O10  1  0.70365600  0.92794200  0.53191300  1
  O  O11  1  0.67538400  0.03093800  0.73889100  1
  O  O12  1  0.68103900  0.91237000  0.78721400  1
  O  O13  1  0.20931700  0.02019000  0.68376900  1
  O  O14  1  0.45005000  0.07389700  0.61155100  1
  O  O15  1  0.37295600  0.98126500  0.77521800  1
  O  O16  1  0.36084900  0.16107400  0.74654100  1
  O  O17  1  0.62736300  0.07957900  0.10047400  1
