# generated using pymatgen
data_ZnH19C28NO7
_symmetry_space_group_name_H-M   'P 1'
_cell_length_a   16.58708300
_cell_length_b   17.43528500
_cell_length_c   17.78151100
_cell_angle_alpha   90.00715900
_cell_angle_beta   90.00050600
_cell_angle_gamma   86.29764500
_symmetry_Int_Tables_number   1
_chemical_formula_structural   ZnH19C28NO7
_chemical_formula_sum   'Zn2 H38 C56 N2 O14'
_cell_volume   5131.68976207
_cell_formula_units_Z   2
loop_
 _symmetry_equiv_pos_site_id
 _symmetry_equiv_pos_as_xyz
  1  'x, y, z'
loop_
 _atom_site_type_symbol
 _atom_site_label
 _atom_site_symmetry_multiplicity
 _atom_site_fract_x
 _atom_site_fract_y
 _atom_site_fract_z
 _atom_site_occupancy
  Zn  Zn1  1  0.59183600  0.49935500  0.50764000  1
  Zn  Zn2  1  0.40875800  0.49728800  0.50789900  1
  H  H1  1  0.40650000  0.25792300  0.56673900  1
  H  H2  1  0.59754100  0.73903000  0.56187900  1
  H  H3  1  0.40786100  0.00570200  0.51750700  1
  H  H4  1  0.59232300  0.99100000  0.51180100  1
  H  H5  1  0.63669600  0.10708400  0.45612700  1
  H  H6  1  0.35984500  0.88945200  0.46474500  1
  H  H7  1  0.59073500  0.87718600  0.57082700  1
  H  H8  1  0.41345800  0.11966800  0.57547400  1
  H  H9  1  0.61893500  0.54021800  0.74506100  1
  H  H10  1  0.37633500  0.54189400  0.27040900  1
  H  H11  1  0.38050600  0.46332300  0.74699400  1
  H  H12  1  0.62460000  0.46315300  0.26899700  1
  H  H13  1  0.87231700  0.42666100  0.41147300  1
  H  H14  1  0.12724900  0.58926300  0.58717900  1
  H  H15  1  0.72410600  0.42825000  0.41250800  1
  H  H16  1  0.27556400  0.58719900  0.58638200  1
  H  H17  1  0.71471400  0.57254100  0.60227700  1
  H  H18  1  0.28688400  0.40630500  0.42951200  1
  H  H19  1  0.86294300  0.57284600  0.60349500  1
  H  H20  1  0.13861300  0.40598500  0.42853100  1
  H  H21  1  0.25836900  0.80087500  0.50743000  1
  H  H22  1  0.23157400  0.71037100  0.46879900  1
  H  H23  1  0.23456200  0.79351400  0.40826900  1
  H  H24  1  0.74180900  0.19231200  0.48942300  1
  H  H25  1  0.76721100  0.28289900  0.45035700  1
  H  H26  1  0.75601000  0.20173900  0.38880800  1
  H  H27  1  0.71959900  0.48290700  0.82968200  1
  H  H28  1  0.75377400  0.51103300  0.92110000  1
  H  H29  1  0.75023000  0.57969500  0.84479500  1
  H  H30  1  0.28305800  0.48513800  0.18560500  1
  H  H31  1  0.24551900  0.51333600  0.09405700  1
  H  H32  1  0.24008800  0.58216400  0.17023500  1
  H  H33  1  0.35164700  0.35933800  0.82953400  1
  H  H34  1  0.25614600  0.41244400  0.84843800  1
  H  H35  1  0.30779700  0.35717500  0.92201800  1
  H  H36  1  0.66708600  0.35877600  0.18734800  1
  H  H37  1  0.75574900  0.41128200  0.16828300  1
  H  H38  1  0.71156400  0.35561900  0.09501200  1
  C  C1  1  0.50000400  0.49884000  0.36058400  1
  C  C2  1  0.50058300  0.49794300  0.65499300  1
  C  C3  1  0.51194600  0.34772700  0.50650900  1
  C  C4  1  0.48860300  0.64895200  0.50751300  1
  C  C5  1  0.51796200  0.26321400  0.50664800  1
  C  C6  1  0.48241800  0.73351400  0.50803000  1
  C  C7  1  0.45714900  0.22560800  0.54123500  1
  C  C8  1  0.54519800  0.77120000  0.53923400  1
  C  C9  1  0.46103600  0.14661700  0.54603200  1
  C  C10  1  0.54140100  0.85018600  0.54416800  1
  C  C11  1  0.52605700  0.10374700  0.51572300  1
  C  C12  1  0.47440800  0.89299900  0.51760100  1
  C  C13  1  0.58723900  0.14094500  0.48180100  1
  C  C14  1  0.41117700  0.85573900  0.48735900  1
  C  C15  1  0.58351200  0.22016400  0.47581200  1
  C  C16  1  0.41482700  0.77657500  0.48103000  1
  C  C17  1  0.53270800  0.01923400  0.51841100  1
  C  C18  1  0.46783600  0.97750400  0.52050000  1
  C  C19  1  0.56581100  0.52848900  0.85325500  1
  C  C20  1  0.43115300  0.52951000  0.16225400  1
  C  C21  1  0.56698000  0.52281400  0.77577300  1
  C  C22  1  0.43054600  0.52401000  0.23974400  1
  C  C23  1  0.50050500  0.49969700  0.73735700  1
  C  C24  1  0.49994300  0.50053700  0.27826900  1
  C  C25  1  0.43308700  0.48056800  0.77684200  1
  C  C26  1  0.56990600  0.48079000  0.23896300  1
  C  C27  1  0.43179000  0.48408600  0.85447500  1
  C  C28  1  0.57089400  0.48397100  0.16132500  1
  C  C29  1  0.49804400  0.50908900  0.89291000  1
  C  C30  1  0.50148800  0.50942500  0.12273400  1
  C  C31  1  0.49923200  0.50901700  0.97388600  1
  C  C32  1  0.50038500  0.50911400  0.04175800  1
  C  C33  1  0.83816200  0.45915500  0.45385700  1
  C  C34  1  0.16186200  0.54846200  0.55226200  1
  C  C35  1  0.75501500  0.46011200  0.45455800  1
  C  C36  1  0.24503300  0.54716000  0.55176600  1
  C  C37  1  0.74979600  0.54043400  0.56025000  1
  C  C38  1  0.25134000  0.44640100  0.46441800  1
  C  C39  1  0.83291200  0.54070700  0.56102500  1
  C  C40  1  0.16822000  0.44618800  0.46372000  1
  C  C41  1  0.87743700  0.49966900  0.50751300  1
  C  C42  1  0.12314200  0.49760600  0.50794700  1
  C  C43  1  0.96395600  0.49899300  0.50767800  1
  C  C44  1  0.03662000  0.49833800  0.50778000  1
  C  C45  1  0.34970800  0.74154900  0.43972800  1
  C  C46  1  0.26324200  0.76321000  0.45718300  1
  C  C47  1  0.64562200  0.25539300  0.43065000  1
  C  C48  1  0.73297800  0.23129900  0.44046000  1
  C  C49  1  0.63582300  0.55749900  0.89235700  1
  C  C50  1  0.71992500  0.53114000  0.87027600  1
  C  C51  1  0.35751000  0.55902200  0.12298500  1
  C  C52  1  0.27667700  0.53331100  0.14491900  1
  C  C53  1  0.35919600  0.46255800  0.89493300  1
  C  C54  1  0.31614400  0.39370900  0.87193300  1
  C  C55  1  0.64631600  0.46153400  0.12106700  1
  C  C56  1  0.69826200  0.39264000  0.14477000  1
  N  N1  1  0.71228200  0.50025900  0.50748300  1
  N  N2  1  0.28831000  0.49648500  0.50820400  1
  O  O1  1  0.56953900  0.49923600  0.39563900  1
  O  O2  1  0.43117300  0.49667800  0.61989300  1
  O  O3  1  0.43054800  0.49820900  0.39580700  1
  O  O4  1  0.56988400  0.49929000  0.61971100  1
  O  O5  1  0.57840400  0.38469400  0.50772300  1
  O  O6  1  0.42225900  0.61191000  0.50882500  1
  O  O7  1  0.43958500  0.38294200  0.50736600  1
  O  O8  1  0.56096200  0.61370300  0.50777700  1
  O  O9  1  0.36607600  0.69659600  0.38856300  1
  O  O10  1  0.62570300  0.30217900  0.38201000  1
  O  O11  1  0.62577100  0.60607800  0.94140300  1
  O  O12  1  0.36149900  0.60750500  0.07392400  1
  O  O13  1  0.33174300  0.50236200  0.94639500  1
  O  O14  1  0.66869900  0.50062900  0.06921400  1
