# generated using pymatgen
data_FeH12(C11O4)2
_symmetry_space_group_name_H-M   'P 1'
_cell_length_a   15.91435200
_cell_length_b   16.08089500
_cell_length_c   13.70219700
_cell_angle_alpha   88.50257800
_cell_angle_beta   97.56225700
_cell_angle_gamma   104.40945700
_symmetry_Int_Tables_number   1
_chemical_formula_structural   FeH12(C11O4)2
_chemical_formula_sum   'Fe2 H24 C44 O16'
_cell_volume   3366.69480672
_cell_formula_units_Z   2
loop_
 _symmetry_equiv_pos_site_id
 _symmetry_equiv_pos_as_xyz
  1  'x, y, z'
loop_
 _atom_site_type_symbol
 _atom_site_label
 _atom_site_symmetry_multiplicity
 _atom_site_fract_x
 _atom_site_fract_y
 _atom_site_fract_z
 _atom_site_occupancy
  Fe  Fe1  1  0.50751700  0.99860500  0.79013600  1
  Fe  Fe2  1  0.50818700  0.98367900  0.22576400  1
  H  H1  1  0.24070300  0.00373700  0.78759300  1
  H  H2  1  0.09558500  0.00373300  0.82713200  1
  H  H3  1  0.19082300  0.01916100  0.13208400  1
  H  H4  1  0.83626700  0.99958700  0.88883200  1
  H  H5  1  0.78131100  0.01453900  0.23142200  1
  H  H6  1  0.92954900  0.02633900  0.19381600  1
  H  H7  1  0.55421700  0.90975800  0.52372600  1
  H  H8  1  0.51690500  0.68688600  0.35548300  1
  H  H9  1  0.41507200  0.54410200  0.36686000  1
  H  H10  1  0.42849000  0.39661200  0.36418200  1
  H  H11  1  0.60645300  0.44382900  0.63049500  1
  H  H12  1  0.59413000  0.59169500  0.63161000  1
  H  H13  1  0.52906400  0.30720900  0.34835900  1
  H  H14  1  0.50855400  0.07748900  0.51712400  1
  H  H15  1  0.50404500  0.30720900  0.65589000  1
  H  H16  1  0.53208000  0.66961300  0.76997400  1
  H  H17  1  0.47692600  0.55973900  0.74545500  1
  H  H18  1  0.43040800  0.62270700  0.81881200  1
  H  H19  1  0.33494900  0.74305500  0.63009900  1
  H  H20  1  0.38322900  0.74406700  0.75833300  1
  H  H21  1  0.29288600  0.66163400  0.71428400  1
  H  H22  1  0.38433800  0.51701800  0.60769600  1
  H  H23  1  0.32067300  0.58533700  0.54163500  1
  H  H24  1  0.30066300  0.54182800  0.66094300  1
  C  C1  1  0.23050600  0.00629000  0.86379000  1
  C  C2  1  0.14900800  0.00714100  0.88565000  1
  C  C3  1  0.13571300  0.01346300  0.98184800  1
  C  C4  1  0.20366000  0.01692800  0.05683000  1
  C  C5  1  0.28619100  0.01517600  0.03583900  1
  C  C6  1  0.29967800  0.01207100  0.93763400  1
  C  C7  1  0.04997100  0.01413200  0.00300800  1
  C  C8  1  0.97727600  0.01385300  0.01908000  1
  C  C9  1  0.82234200  0.00267100  0.96353100  1
  C  C10  1  0.73760200  0.99646300  0.98316700  1
  C  C11  1  0.72292200  0.99919600  0.08132900  1
  C  C12  1  0.79259200  0.01249200  0.15553800  1
  C  C13  1  0.87594500  0.01856300  0.13477200  1
  C  C14  1  0.89063900  0.01214500  0.03913200  1
  C  C15  1  0.48969800  0.13761400  0.68208400  1
  C  C16  1  0.38545400  0.01786000  0.90698200  1
  C  C17  1  0.66797100  0.99310300  0.89914300  1
  C  C18  1  0.51259700  0.84682300  0.68840000  1
  C  C19  1  0.52048500  0.13598500  0.33534500  1
  C  C20  1  0.35522000  0.01172500  0.11803900  1
  C  C21  1  0.63589400  0.98381700  0.11215000  1
  C  C22  1  0.54535500  0.85990300  0.34630500  1
  C  C23  1  0.52691200  0.80315800  0.42986700  1
  C  C24  1  0.50971100  0.71561500  0.42333300  1
  C  C25  1  0.49155200  0.66563100  0.50563800  1
  C  C26  1  0.47693400  0.70319400  0.59223000  1
  C  C27  1  0.50812100  0.79345600  0.60099300  1
  C  C28  1  0.53292700  0.84061200  0.51945700  1
  C  C29  1  0.45820700  0.52278400  0.42426900  1
  C  C30  1  0.46618500  0.43925500  0.42257100  1
  C  C31  1  0.51767200  0.40934400  0.49782100  1
  C  C32  1  0.56396200  0.46510500  0.57235100  1
  C  C33  1  0.55676500  0.54875000  0.57334900  1
  C  C34  1  0.50135700  0.57720200  0.50142900  1
  C  C35  1  0.52364500  0.27405100  0.41773200  1
  C  C36  1  0.52020400  0.18713300  0.42243900  1
  C  C37  1  0.51304700  0.14552900  0.51132200  1
  C  C38  1  0.50877400  0.18873700  0.59469700  1
  C  C39  1  0.51179000  0.27501600  0.59062500  1
  C  C40  1  0.51940100  0.31830800  0.50207000  1
  C  C41  1  0.41509900  0.65109100  0.66266700  1
  C  C42  1  0.46684500  0.62459200  0.75482300  1
  C  C43  1  0.35394000  0.70354700  0.69273500  1
  C  C44  1  0.35248400  0.56980600  0.61443600  1
  O  O1  1  0.55407800  0.11364100  0.73592500  1
  O  O2  1  0.45199100  0.08229300  0.93677100  1
  O  O3  1  0.40983200  0.08985100  0.68209800  1
  O  O4  1  0.39166000  0.96589600  0.83766000  1
  O  O5  1  0.58673300  0.98700700  0.91363700  1
  O  O6  1  0.68841200  0.00245600  0.80910500  1
  O  O7  1  0.50013100  0.92402000  0.67266400  1
  O  O8  1  0.53768600  0.82340400  0.77769000  1
  O  O9  1  0.50328200  0.05206700  0.34445100  1
  O  O10  1  0.53630400  0.17233300  0.25059300  1
  O  O11  1  0.42393900  0.98451600  0.10325800  1
  O  O12  1  0.34475600  0.02953300  0.20784500  1
  O  O13  1  0.61458300  0.92491700  0.35829800  1
  O  O14  1  0.62128700  0.03532500  0.17715200  1
  O  O15  1  0.48035200  0.86568600  0.27876200  1
  O  O16  1  0.57883500  0.91025800  0.09067400  1
