# generated using pymatgen
data_Cu2H42C55(NO4)2
_symmetry_space_group_name_H-M   'P 1'
_cell_length_a   12.17889100
_cell_length_b   13.37186500
_cell_length_c   14.95289400
_cell_angle_alpha   78.69080000
_cell_angle_beta   102.33433100
_cell_angle_gamma   116.43487300
_symmetry_Int_Tables_number   1
_chemical_formula_structural   Cu2H42C55(NO4)2
_chemical_formula_sum   'Cu2 H42 C55 N2 O8'
_cell_volume   2115.94999460
_cell_formula_units_Z   1
loop_
 _symmetry_equiv_pos_site_id
 _symmetry_equiv_pos_as_xyz
  1  'x, y, z'
loop_
 _atom_site_type_symbol
 _atom_site_label
 _atom_site_symmetry_multiplicity
 _atom_site_fract_x
 _atom_site_fract_y
 _atom_site_fract_z
 _atom_site_occupancy
  Cu  Cu1  1  0.10035800  0.47614600  0.52502400  1
  Cu  Cu2  1  0.90521800  0.52687800  0.48859300  1
  H  H1  1  0.88555900  0.58966700  0.19257900  1
  H  H2  1  0.07460400  0.37599900  0.25918700  1
  H  H3  1  0.13054000  0.32141800  0.13880800  1
  H  H4  1  0.14390700  0.33541200  0.97567500  1
  H  H5  1  0.10018000  0.40512300  0.81943700  1
  H  H6  1  0.86779700  0.68493900  0.87731300  1
  H  H7  1  0.84444500  0.66059600  0.03653700  1
  H  H8  1  0.09444600  0.87554900  0.37968300  1
  H  H9  1  0.46367200  0.20703200  0.33212700  1
  H  H10  1  0.38228700  0.80376700  0.54297700  1
  H  H11  1  0.90836300  0.13288800  0.64166000  1
  H  H12  1  0.55465600  0.86730400  0.61951100  1
  H  H13  1  0.76673600  0.93935300  0.68293800  1
  H  H14  1  0.67206800  0.26799800  0.39389700  1
  H  H15  1  0.17897100  0.32509200  0.66858000  1
  H  H16  1  0.56357900  0.32531200  0.69467600  1
  H  H17  1  0.36372600  0.28934200  0.71495300  1
  H  H18  1  0.32990200  0.55311000  0.44621500  1
  H  H19  1  0.83396900  0.67243700  0.34752300  1
  H  H20  1  0.47686300  0.62981800  0.37201200  1
  H  H21  1  0.73576500  0.41833400  0.61665600  1
  H  H22  1  0.28353500  0.18495000  0.33804800  1
  H  H23  1  0.11834300  0.98888600  0.22345000  1
  H  H24  1  0.27304600  0.09105600  0.20579700  1
  H  H25  1  0.14962100  0.13547000  0.19120700  1
  H  H26  1  0.02103200  0.00904400  0.34251300  1
  H  H27  1  0.08719700  0.15879100  0.34152900  1
  H  H28  1  0.11939800  0.07399400  0.44403900  1
  H  H29  1  0.74615300  0.77079000  0.24196900  1
  H  H30  1  0.46175200  0.66267200  0.21018100  1
  H  H31  1  0.55822900  0.60513400  0.18273200  1
  H  H32  1  0.56683900  0.74063200  0.12719500  1
  H  H33  1  0.55229700  0.81867000  0.30534100  1
  H  H34  1  0.66251800  0.90633200  0.22789500  1
  H  H35  1  0.71642600  0.87795300  0.34821200  1
  H  H36  1  0.02467600  0.77675500  0.80090900  1
  H  H37  1  0.11971300  0.74365600  0.64464500  1
  H  H38  1  0.20700300  0.77314000  0.75772800  1
  H  H39  1  0.14549500  0.86828000  0.68893400  1
  H  H40  1  0.91102300  0.71958800  0.61246900  1
  H  H41  1  0.87413500  0.78229800  0.69064100  1
  H  H42  1  0.81546600  0.63129500  0.70069300  1
  C  C1  1  0.85740800  0.29075000  0.53046700  1
  C  C2  1  0.02523600  0.52348900  0.67808400  1
  C  C3  1  0.14775400  0.71135600  0.47811100  1
  C  C4  1  0.98358600  0.48431800  0.33530100  1
  C  C5  1  0.92812800  0.54385500  0.17173900  1
  C  C6  1  0.97955700  0.48234100  0.23696300  1
  C  C7  1  0.03511600  0.42553600  0.20898000  1
  C  C8  1  0.04104000  0.43203900  0.11662200  1
  C  C9  1  0.99523800  0.49829700  0.05214500  1
  C  C10  1  0.93824600  0.55342400  0.07996400  1
  C  C11  1  0.09491800  0.37399300  0.08886300  1
  C  C12  1  0.10284600  0.38226200  0.99693500  1
  C  C13  1  0.06122600  0.45191200  0.93285100  1
  C  C14  1  0.00827700  0.51077000  0.96032500  1
  C  C15  1  0.97125700  0.58407400  0.89673900  1
  C  C16  1  0.90856200  0.63479300  0.92517700  1
  C  C17  1  0.89218000  0.61925800  0.01589000  1
  C  C18  1  0.06837700  0.45911200  0.84092700  1
  C  C19  1  0.03347900  0.53285300  0.77634300  1
  C  C20  1  0.99657800  0.60523600  0.80613100  1
  C  C21  1  0.27213600  0.01651700  0.38883300  1
  C  C22  1  0.23290500  0.83049300  0.46247900  1
  C  C23  1  0.81398400  0.10112300  0.60694000  1
  C  C24  1  0.73401800  0.99233000  0.63091600  1
  C  C25  1  0.61126400  0.95141300  0.59259700  1
  C  C26  1  0.56618800  0.01749600  0.52494200  1
  C  C27  1  0.64907700  0.12706600  0.49914800  1
  C  C28  1  0.44066000  0.97780900  0.48361200  1
  C  C29  1  0.39908300  0.05051300  0.42170000  1
  C  C30  1  0.48641600  0.15358700  0.38956200  1
  C  C31  1  0.60902000  0.18982900  0.42613700  1
  C  C32  1  0.35581900  0.86651000  0.50105400  1
  C  C33  1  0.19098100  0.90567000  0.40889200  1
  C  C34  1  0.77211500  0.17055100  0.54341900  1
  C  C35  1  0.35825100  0.34709200  0.65429800  1
  C  C36  1  0.75555200  0.63423200  0.38481800  1
  C  C37  1  0.65492600  0.65931600  0.35322300  1
  C  C38  1  0.55358000  0.60865100  0.39963300  1
  C  C39  1  0.55277900  0.53284300  0.47812700  1
  C  C40  1  0.65776700  0.51114600  0.50817200  1
  C  C41  1  0.45018700  0.47751000  0.52733500  1
  C  C42  1  0.45557200  0.40230000  0.60431300  1
  C  C43  1  0.55899000  0.38282300  0.63365200  1
  C  C44  1  0.65849900  0.43684600  0.58711300  1
  C  C45  1  0.34189800  0.49464500  0.50349200  1
  C  C46  1  0.25434800  0.36674000  0.62817700  1
  C  C47  1  0.21895200  0.09603700  0.33255900  1
  C  C48  1  0.18775000  0.07630800  0.23182200  1
  C  C49  1  0.10412900  0.08257700  0.36761500  1
  C  C50  1  0.65672300  0.74035500  0.26801000  1
  C  C51  1  0.55391400  0.68334800  0.19249100  1
  C  C52  1  0.64582500  0.84199600  0.28891900  1
  C  C53  1  0.00999600  0.71810800  0.75218400  1
  C  C54  1  0.12759900  0.77845200  0.70775500  1
  C  C55  1  0.89531600  0.71167500  0.68429600  1
  N  N1  1  0.24684400  0.43809900  0.55288700  1
  N  N2  1  0.75786600  0.56281600  0.46158600  1
  O  O1  1  0.97690500  0.32030900  0.53926600  1
  O  O2  1  0.81146800  0.36488500  0.51531500  1
  O  O3  1  0.09841900  0.48918100  0.65262900  1
  O  O4  1  0.93841800  0.54262600  0.61991800  1
  O  O5  1  0.19562700  0.63798200  0.49884600  1
  O  O6  1  0.02829800  0.68257600  0.47193800  1
  O  O7  1  0.06960200  0.46295000  0.39332900  1
  O  O8  1  0.90600000  0.51295100  0.36108500  1
