# generated using pymatgen
data_CuH11C14(NO2)3
_symmetry_space_group_name_H-M   'P 1'
_cell_length_a   9.42142200
_cell_length_b   10.84986400
_cell_length_c   14.01311800
_cell_angle_alpha   89.99487800
_cell_angle_beta   85.30335100
_cell_angle_gamma   90.01945400
_symmetry_Int_Tables_number   1
_chemical_formula_structural   CuH11C14(NO2)3
_chemical_formula_sum   'Cu2 H22 C28 N6 O12'
_cell_volume   1427.62703888
_cell_formula_units_Z   2
loop_
 _symmetry_equiv_pos_site_id
 _symmetry_equiv_pos_as_xyz
  1  'x, y, z'
loop_
 _atom_site_type_symbol
 _atom_site_label
 _atom_site_symmetry_multiplicity
 _atom_site_fract_x
 _atom_site_fract_y
 _atom_site_fract_z
 _atom_site_occupancy
  Cu  Cu1  1  0.37090500  0.50531600  0.49710400  1
  Cu  Cu2  1  0.65527100  0.50890100  0.49532400  1
  H  H1  1  0.13640800  0.64706500  0.59717100  1
  H  H2  1  0.89048200  0.36262600  0.39891800  1
  H  H3  1  0.73543800  0.89457000  0.45578400  1
  H  H4  1  0.28906100  0.11982800  0.53269500  1
  H  H5  1  0.74003800  0.11738800  0.46391300  1
  H  H6  1  0.28536900  0.89689800  0.52639900  1
  H  H7  1  0.82983600  0.64527700  0.67924100  1
  H  H8  1  0.80000700  0.83807800  0.74182600  1
  H  H9  1  0.80833800  0.96127100  0.65495600  1
  H  H10  1  0.96692000  0.91620100  0.71041800  1
  H  H11  1  0.15165000  0.24380200  0.41359100  1
  H  H12  1  0.21026900  0.15207200  0.27036900  1
  H  H13  1  0.28479900  0.25515500  0.17876600  1
  H  H14  1  0.09640100  0.22019100  0.18700000  1
  H  H15  1  0.34905000  0.69537200  0.98455100  1
  H  H16  1  0.13034300  0.70007100  0.13094100  1
  H  H17  1  0.02315900  0.56970200  0.10010800  1
  H  H18  1  0.08342300  0.68015700  0.00903000  1
  H  H19  1  0.74879200  0.37778900  0.00711600  1
  H  H20  1  0.81412900  0.20296200  0.92246800  1
  H  H21  1  0.69236000  0.15195400  0.83762600  1
  H  H22  1  0.67229600  0.09659300  0.95967100  1
  C  C1  1  0.51003800  0.74403900  0.49108300  1
  C  C2  1  0.51603500  0.27024400  0.50093500  1
  C  C3  1  0.49231800  0.51404700  0.67981700  1
  C  C4  1  0.53383200  0.49957900  0.31243600  1
  C  C5  1  0.93569500  0.59095600  0.55012300  1
  C  C6  1  0.09058100  0.42432600  0.44188900  1
  C  C7  1  0.08233400  0.58578600  0.55131100  1
  C  C8  1  0.94407200  0.42796000  0.44179400  1
  C  C9  1  0.54317200  0.48994100  0.20981900  1
  C  C10  1  0.48238600  0.51984200  0.78242000  1
  C  C11  1  0.55141800  0.46512600  0.02155900  1
  C  C12  1  0.46421400  0.53160500  0.97143500  1
  C  C13  1  0.47486200  0.52541600  0.86855100  1
  C  C14  1  0.54768900  0.47977100  0.12389700  1
  C  C15  1  0.63704600  0.94300400  0.47412200  1
  C  C16  1  0.38810400  0.07140500  0.51582300  1
  C  C17  1  0.63972100  0.06995900  0.47849500  1
  C  C18  1  0.38568300  0.94436300  0.51203000  1
  C  C19  1  0.51522000  0.13499700  0.49948500  1
  C  C20  1  0.51034800  0.87932500  0.49157200  1
  C  C21  1  0.90297000  0.79295200  0.60332200  1
  C  C22  1  0.86714800  0.88220200  0.68271800  1
  C  C23  1  0.16146800  0.34422800  0.29335700  1
  C  C24  1  0.18986400  0.23613300  0.22864500  1
  C  C25  1  0.24353300  0.55748200  0.05226800  1
  C  C26  1  0.11188600  0.63164500  0.07447600  1
  C  C27  1  0.60417300  0.28182300  0.94023300  1
  C  C28  1  0.70213000  0.17708900  0.91352200  1
  N  N1  1  0.15834600  0.50239300  0.49784900  1
  N  N2  1  0.86785200  0.51189400  0.49472500  1
  N  N3  1  0.85714600  0.67506700  0.61049200  1
  N  N4  1  0.16716400  0.33237400  0.38869400  1
  N  N5  1  0.36532000  0.61327900  0.01877500  1
  N  N6  1  0.65567100  0.38786100  0.97433700  1
  O  O1  1  0.38822100  0.68481000  0.49621100  1
  O  O2  1  0.63821300  0.32936100  0.49584700  1
  O  O3  1  0.63279600  0.68742700  0.48811000  1
  O  O4  1  0.39312900  0.32681400  0.50461600  1
  O  O5  1  0.37485500  0.50709300  0.63624100  1
  O  O6  1  0.65146800  0.49976200  0.35630900  1
  O  O7  1  0.61908500  0.50967900  0.63451200  1
  O  O8  1  0.40713600  0.49631400  0.35808400  1
  O  O9  1  0.97147200  0.82811600  0.53079600  1
  O  O10  1  0.13464600  0.44424500  0.25956100  1
  O  O11  1  0.23967600  0.44586700  0.06178000  1
  O  O12  1  0.47688800  0.26988500  0.93272600  1
