# generated using pymatgen
data_ZnH15C17N3O4
_symmetry_space_group_name_H-M   'P 1'
_cell_length_a   14.23264600
_cell_length_b   8.54861700
_cell_length_c   14.97246400
_cell_angle_alpha   90.00000000
_cell_angle_beta   90.96705800
_cell_angle_gamma   90.00000000
_symmetry_Int_Tables_number   1
_chemical_formula_structural   ZnH15C17N3O4
_chemical_formula_sum   'Zn2 H30 C34 N6 O8'
_cell_volume   1821.43182933
_cell_formula_units_Z   2
loop_
 _symmetry_equiv_pos_site_id
 _symmetry_equiv_pos_as_xyz
  1  'x, y, z'
loop_
 _atom_site_type_symbol
 _atom_site_label
 _atom_site_symmetry_multiplicity
 _atom_site_fract_x
 _atom_site_fract_y
 _atom_site_fract_z
 _atom_site_occupancy
  Zn  Zn1  1  0.89583100  0.50437700  0.50895900  1
  Zn  Zn2  1  0.10416900  0.50437700  0.49104100  1
  H  H1  1  0.04251900  0.00439600  0.56117100  1
  H  H2  1  0.95748000  0.00439600  0.43882900  1
  H  H3  1  0.99774000  0.25525500  0.80074300  1
  H  H4  1  0.00226000  0.25525500  0.19925700  1
  H  H5  1  0.99778300  0.75345100  0.80072500  1
  H  H6  1  0.00221700  0.75345100  0.19927500  1
  H  H7  1  0.57770100  0.28197200  0.58314800  1
  H  H8  1  0.42229900  0.28197200  0.41685200  1
  H  H9  1  0.57839500  0.48255200  0.36023600  1
  H  H10  1  0.42160500  0.48255200  0.63976300  1
  H  H11  1  0.42197500  0.46082100  0.35387500  1
  H  H12  1  0.57802500  0.46082100  0.64612500  1
  H  H13  1  0.57377600  0.71202800  0.56829100  1
  H  H14  1  0.42622400  0.71202800  0.43170900  1
  H  H15  1  0.58319000  0.72139000  0.44838300  1
  H  H16  1  0.41680900  0.72139000  0.55161700  1
  H  H17  1  0.43854700  0.15728100  0.55253900  1
  H  H18  1  0.39450700  0.26209500  0.74314700  1
  H  H19  1  0.50979700  0.20269800  0.70863400  1
  H  H20  1  0.41487500  0.06552600  0.70395200  1
  H  H21  1  0.26687400  0.32799500  0.62461600  1
  H  H22  1  0.27769500  0.11952700  0.62511900  1
  H  H23  1  0.27894600  0.21526500  0.52008500  1
  H  H24  1  0.56145300  0.15728100  0.44746100  1
  H  H25  1  0.60549300  0.26209500  0.25685300  1
  H  H26  1  0.49020200  0.20269800  0.29136700  1
  H  H27  1  0.58512500  0.06552600  0.29604900  1
  H  H28  1  0.73312600  0.32799500  0.37538400  1
  H  H29  1  0.72230400  0.11952700  0.37488100  1
  H  H30  1  0.72105400  0.21526500  0.47991500  1
  C  C1  1  0.01822400  0.14389000  0.67550800  1
  C  C2  1  0.98177500  0.14389000  0.32449200  1
  C  C3  1  0.00490400  0.14473400  0.76650500  1
  C  C4  1  0.99509500  0.14473400  0.23349500  1
  C  C5  1  0.00288900  0.00435200  0.81294500  1
  C  C6  1  0.99711100  0.00435200  0.18705500  1
  C  C7  1  0.00493200  0.86398300  0.76649400  1
  C  C8  1  0.99506700  0.86398300  0.23350600  1
  C  C9  1  0.01825000  0.86485800  0.67549600  1
  C  C10  1  0.98174900  0.86485800  0.32450400  1
  C  C11  1  0.03023200  0.00438300  0.63184000  1
  C  C12  1  0.96976800  0.00438300  0.36816000  1
  C  C13  1  0.00061800  0.00434500  0.08931300  1
  C  C14  1  0.99938100  0.00434500  0.91068700  1
  C  C15  1  0.01251100  0.72279000  0.62158200  1
  C  C16  1  0.98748800  0.72279000  0.37841700  1
  C  C17  1  0.98750700  0.28598100  0.37838600  1
  C  C18  1  0.01249200  0.28598100  0.62161400  1
  C  C19  1  0.55123600  0.40359100  0.58428600  1
  C  C20  1  0.44876300  0.40359100  0.41571400  1
  C  C21  1  0.55589500  0.40819700  0.41666500  1
  C  C22  1  0.44410400  0.40819700  0.58333500  1
  C  C23  1  0.58908900  0.48836700  0.50378000  1
  C  C24  1  0.41091100  0.48836700  0.49622000  1
  C  C25  1  0.44718600  0.65481500  0.49546300  1
  C  C26  1  0.55281400  0.65481500  0.50453600  1
  C  C27  1  0.30836300  0.49783300  0.48879300  1
  C  C28  1  0.69163600  0.49783300  0.51120600  1
  C  C29  1  0.40701500  0.24106500  0.59976600  1
  C  C30  1  0.43360000  0.19031700  0.69450700  1
  C  C31  1  0.30084100  0.22771600  0.59111000  1
  C  C32  1  0.59298500  0.24106500  0.40023400  1
  C  C33  1  0.56639900  0.19031700  0.30549300  1
  C  C34  1  0.69915900  0.22771600  0.40889000  1
  N  N1  1  0.99988200  0.86829400  0.95585000  1
  N  N2  1  0.00011800  0.86829400  0.04414900  1
  N  N3  1  0.00011800  0.14039400  0.04414900  1
  N  N4  1  0.99988100  0.14039400  0.95585100  1
  N  N5  1  0.22716500  0.50445100  0.48421200  1
  N  N6  1  0.77283400  0.50445100  0.51578800  1
  O  O1  1  0.08939000  0.67353500  0.58348000  1
  O  O2  1  0.91061000  0.67353500  0.41652000  1
  O  O3  1  0.92859200  0.66782600  0.60146300  1
  O  O4  1  0.07140800  0.66782600  0.39853600  1
  O  O5  1  0.91075700  0.33516300  0.41658800  1
  O  O6  1  0.08924200  0.33516300  0.58341200  1
  O  O7  1  0.07132100  0.34106100  0.39849200  1
  O  O8  1  0.92867900  0.34106100  0.60150800  1
