# generated using pymatgen
data_ZnH12C23(NO)4
_symmetry_space_group_name_H-M   'P 1'
_cell_length_a   8.51214500
_cell_length_b   10.90097900
_cell_length_c   17.53902000
_cell_angle_alpha   90.00000000
_cell_angle_beta   93.70559000
_cell_angle_gamma   90.00000000
_symmetry_Int_Tables_number   1
_chemical_formula_structural   ZnH12C23(NO)4
_chemical_formula_sum   'Zn2 H24 C46 N8 O8'
_cell_volume   1624.05568838
_cell_formula_units_Z   2
loop_
 _symmetry_equiv_pos_site_id
 _symmetry_equiv_pos_as_xyz
  1  'x, y, z'
loop_
 _atom_site_type_symbol
 _atom_site_label
 _atom_site_symmetry_multiplicity
 _atom_site_fract_x
 _atom_site_fract_y
 _atom_site_fract_z
 _atom_site_occupancy
  Zn  Zn1  1  0.47556300  0.00719200  0.01500500  1
  Zn  Zn2  1  0.49529600  0.99568800  0.18535700  1
  H  H1  1  0.59684900  0.38898000  0.10695100  1
  H  H2  1  0.59482900  0.61056900  0.10280400  1
  H  H3  1  0.24314000  0.59443200  0.10807300  1
  H  H4  1  0.23984000  0.41035400  0.08544800  1
  H  H5  1  0.98999000  0.08876900  0.12488000  1
  H  H6  1  0.97505400  0.91406400  0.07600200  1
  H  H7  1  0.49374300  0.19969500  0.90930400  1
  H  H8  1  0.43784100  0.82091300  0.91069100  1
  H  H9  1  0.56234300  0.41263000  0.66976800  1
  H  H10  1  0.38863500  0.59369000  0.66828300  1
  H  H11  1  0.57513500  0.41057500  0.53600000  1
  H  H12  1  0.40297300  0.58837700  0.53541700  1
  H  H13  1  0.62320500  0.33313200  0.83656700  1
  H  H14  1  0.42351200  0.35229300  0.82525600  1
  H  H15  1  0.52465400  0.60629800  0.77171300  1
  H  H16  1  0.56237700  0.68738300  0.84745900  1
  H  H17  1  0.67155100  0.36362500  0.42499000  1
  H  H18  1  0.47115000  0.38747300  0.41669100  1
  H  H19  1  0.34574300  0.62442900  0.41308200  1
  H  H20  1  0.54513400  0.60367400  0.43073000  1
  H  H21  1  0.38423300  0.73279500  0.28140600  1
  H  H22  1  0.58893200  0.71985100  0.29500300  1
  H  H23  1  0.61437400  0.25692100  0.28339500  1
  H  H24  1  0.41063900  0.26351300  0.29175400  1
  C  C1  1  0.98923300  0.43704700  0.10031600  1
  C  C2  1  0.98846200  0.56565700  0.09950500  1
  C  C3  1  0.84748100  0.37347700  0.10381700  1
  C  C4  1  0.84541500  0.62794900  0.09994000  1
  C  C5  1  0.70733100  0.43708200  0.10431700  1
  C  C6  1  0.70634300  0.56330000  0.10256600  1
  C  C7  1  0.84293300  0.75511900  0.09575000  1
  C  C8  1  0.84804000  0.24617100  0.10844400  1
  C  C9  1  0.97950600  0.81729000  0.08578500  1
  C  C10  1  0.98860600  0.18548500  0.11475200  1
  C  C11  1  0.12181800  0.75944600  0.09235900  1
  C  C12  1  0.12651200  0.24468400  0.10384200  1
  C  C13  1  0.12767800  0.63405000  0.10061400  1
  C  C14  1  0.12796700  0.36988700  0.09533400  1
  C  C15  1  0.26362300  0.83542400  0.09525300  1
  C  C16  1  0.26841800  0.17035300  0.10144400  1
  C  C17  1  0.70614600  0.16939100  0.10516300  1
  C  C18  1  0.70091600  0.83032700  0.09860200  1
  C  C19  1  0.48260000  0.11593100  0.87672000  1
  C  C20  1  0.45369200  0.90277900  0.87762600  1
  C  C21  1  0.51209300  0.22241800  0.75814700  1
  C  C22  1  0.45963700  0.78575700  0.76095600  1
  C  C23  1  0.48974100  0.11497400  0.79793700  1
  C  C24  1  0.46307000  0.89743100  0.79907200  1
  C  C25  1  0.47844700  0.00489200  0.75880100  1
  C  C26  1  0.54728800  0.32571800  0.64074200  1
  C  C27  1  0.42207900  0.67738300  0.64090600  1
  C  C28  1  0.52186400  0.21892700  0.67986100  1
  C  C29  1  0.45230700  0.78449600  0.68133400  1
  C  C30  1  0.50712600  0.10927500  0.64052200  1
  C  C31  1  0.47123600  0.89230800  0.64118600  1
  C  C32  1  0.55462700  0.32387200  0.56303400  1
  C  C33  1  0.42677600  0.67524300  0.56302100  1
  C  C34  1  0.53568500  0.21491200  0.52270000  1
  C  C35  1  0.45811300  0.78092000  0.52299300  1
  C  C36  1  0.48634500  0.00202600  0.68022200  1
  C  C37  1  0.51361800  0.10711500  0.56170300  1
  C  C38  1  0.47591200  0.89033500  0.56207000  1
  C  C39  1  0.49821000  0.99757000  0.52209200  1
  C  C40  1  0.53818600  0.21430200  0.44387400  1
  C  C41  1  0.46888200  0.77705900  0.44442100  1
  C  C42  1  0.51966700  0.10442800  0.40302400  1
  C  C43  1  0.49093100  0.88485500  0.40326300  1
  C  C44  1  0.50337600  0.99550600  0.44286300  1
  C  C45  1  0.51414600  0.10091500  0.32310900  1
  C  C46  1  0.49834000  0.88562400  0.32341500  1
  N  N1  1  0.46527200  0.01052100  0.91483500  1
  N  N2  1  0.50612000  0.99272500  0.28577400  1
  N  N3  1  0.52613200  0.33713200  0.79709100  1
  N  N4  1  0.47430400  0.67403400  0.80408200  1
  N  N5  1  0.56253100  0.32740200  0.40577700  1
  N  N6  1  0.45732800  0.66137100  0.40679700  1
  N  N7  1  0.49318300  0.77607500  0.27885700  1
  N  N8  1  0.50707500  0.21025800  0.27840600  1
  O  O1  1  0.32112600  0.87311300  0.16251500  1
  O  O2  1  0.32478300  0.12225300  0.16598000  1
  O  O3  1  0.31155700  0.87792400  0.03067600  1
  O  O4  1  0.31535200  0.13769500  0.03444500  1
  O  O5  1  0.64930500  0.13060500  0.03802300  1
  O  O6  1  0.64547400  0.87973200  0.03430000  1
  O  O7  1  0.65923200  0.12529100  0.16933700  1
  O  O8  1  0.65499700  0.86428900  0.16573600  1
