# generated using pymatgen
data_Fe2H19C52ClO16
_symmetry_space_group_name_H-M   'P 1'
_cell_length_a   17.79574600
_cell_length_b   16.85957300
_cell_length_c   11.09457600
_cell_angle_alpha   108.60899600
_cell_angle_beta   82.57549800
_cell_angle_gamma   109.30050100
_symmetry_Int_Tables_number   1
_chemical_formula_structural   Fe2H19C52ClO16
_chemical_formula_sum   'Fe2 H19 C52 Cl1 O16'
_cell_volume   2976.31382030
_cell_formula_units_Z   1
loop_
 _symmetry_equiv_pos_site_id
 _symmetry_equiv_pos_as_xyz
  1  'x, y, z'
loop_
 _atom_site_type_symbol
 _atom_site_label
 _atom_site_symmetry_multiplicity
 _atom_site_fract_x
 _atom_site_fract_y
 _atom_site_fract_z
 _atom_site_occupancy
  Fe  Fe1  1  0.50994700  0.00787300  0.23629100  1
  Fe  Fe2  1  0.49282700  0.99385500  0.76109700  1
  H  H1  1  0.26405400  0.05530900  0.30658400  1
  H  H2  1  0.13675000  0.06827900  0.37404700  1
  H  H3  1  0.21719200  0.92437300  0.75767300  1
  H  H4  1  0.00810200  0.06067500  0.33254600  1
  H  H5  1  0.09125200  0.91459100  0.70934500  1
  H  H6  1  0.90809300  0.07941200  0.29041300  1
  H  H7  1  0.99924400  0.94910800  0.66816900  1
  H  H8  1  0.78288900  0.06909200  0.24099300  1
  H  H9  1  0.87354200  0.94204000  0.62293100  1
  H  H10  1  0.50698300  0.27338100  0.41313200  1
  H  H11  1  0.50465400  0.43986300  0.79370700  1
  H  H12  1  0.50495900  0.32234900  0.87359000  1
  H  H13  1  0.49140900  0.55945200  0.20424800  1
  H  H14  1  0.49181100  0.67695600  0.12391500  1
  H  H15  1  0.49120400  0.72708500  0.58448200  1
  H  H16  1  0.58393500  0.53895500  0.67963500  1
  H  H17  1  0.57861000  0.65279500  0.59532400  1
  H  H18  1  0.41286100  0.46086300  0.31852600  1
  H  H19  1  0.41837000  0.34700500  0.40269500  1
  C  C1  1  0.24821700  0.03685800  0.20837900  1
  C  C2  1  0.12066300  0.05098200  0.27620900  1
  C  C3  1  0.30408100  0.02106200  0.11414900  1
  C  C4  1  0.28566300  0.99966900  0.98733800  1
  C  C5  1  0.17401100  0.03247300  0.17934500  1
  C  C6  1  0.15271300  0.00801800  0.05483500  1
  C  C7  1  0.20753300  0.98804000  0.95854900  1
  C  C8  1  0.18163700  0.95244000  0.83520100  1
  C  C9  1  0.04626500  0.04752600  0.25040200  1
  C  C10  1  0.02342000  0.02590100  0.12547000  1
  C  C11  1  0.07681000  0.00366100  0.02728400  1
  C  C12  1  0.05469100  0.97669600  0.90179300  1
  C  C13  1  0.10676900  0.94653300  0.80735100  1
  C  C14  1  0.89446900  0.05046700  0.19143900  1
  C  C15  1  0.94801800  0.02367800  0.09696800  1
  C  C16  1  0.92632600  0.99777500  0.97112200  1
  C  C17  1  0.98021800  0.97664900  0.87346000  1
  C  C18  1  0.95927400  0.95880800  0.74890500  1
  C  C19  1  0.81956600  0.04373100  0.16290700  1
  C  C20  1  0.79490200  0.01090000  0.03892100  1
  C  C21  1  0.85050200  0.99349400  0.94261500  1
  C  C22  1  0.83019600  0.97195600  0.81756300  1
  C  C23  1  0.71697500  0.99943600  0.01017700  1
  C  C24  1  0.69906300  0.98107300  0.88413600  1
  C  C25  1  0.88558400  0.95636000  0.72166600  1
  C  C26  1  0.75537100  0.96819300  0.78925800  1
  C  C27  1  0.65250000  0.99913100  0.10917600  1
  C  C28  1  0.49748800  0.84231700  0.25323200  1
  C  C29  1  0.38315600  0.03380100  0.15440100  1
  C  C30  1  0.49652200  0.13113200  0.46258200  1
  C  C31  1  0.50296200  0.86948000  0.53465100  1
  C  C32  1  0.61956800  0.96852700  0.84511100  1
  C  C33  1  0.50129500  0.15765900  0.74343700  1
  C  C34  1  0.34989100  0.99876800  0.88767900  1
  C  C35  1  0.50360300  0.21572900  0.55873900  1
  C  C36  1  0.50631300  0.28438900  0.51459800  1
  C  C37  1  0.50558300  0.36490800  0.59725500  1
  C  C38  1  0.50601900  0.37773300  0.72648600  1
  C  C39  1  0.50512500  0.31008600  0.77187500  1
  C  C40  1  0.50303800  0.22798100  0.68936700  1
  C  C41  1  0.54531800  0.52119100  0.60139700  1
  C  C42  1  0.54208600  0.58599600  0.55334500  1
  C  C43  1  0.49499600  0.56533800  0.45082400  1
  C  C44  1  0.45149000  0.47866200  0.39675900  1
  C  C45  1  0.45478400  0.41384800  0.44474600  1
  C  C46  1  0.50185900  0.43452500  0.54726800  1
  C  C47  1  0.49063000  0.62182600  0.27133400  1
  C  C48  1  0.49193600  0.68948300  0.22565200  1
  C  C49  1  0.49501200  0.77196900  0.30782700  1
  C  C50  1  0.49483800  0.78456300  0.43858400  1
  C  C51  1  0.49154300  0.71582200  0.48299200  1
  C  C52  1  0.49148000  0.63495400  0.40059100  1
  Cl  Cl1  1  0.72710000  0.94240300  0.63209200  1
  O  O1  1  0.59064900  0.02213100  0.09789500  1
  O  O2  1  0.50196500  0.82754100  0.12939200  1
  O  O3  1  0.65283700  0.96775400  0.20310200  1
  O  O4  1  0.49664700  0.92023600  0.32735300  1
  O  O5  1  0.40275100  0.96614100  0.15876700  1
  O  O6  1  0.43141700  0.11384200  0.19852300  1
  O  O7  1  0.54624800  0.12698500  0.36414300  1
  O  O8  1  0.43256600  0.06394800  0.46199300  1
  O  O9  1  0.45481900  0.87415400  0.63502500  1
  O  O10  1  0.56653500  0.93658000  0.53289700  1
  O  O11  1  0.60126100  0.03546200  0.83470100  1
  O  O12  1  0.56866500  0.88909100  0.81103800  1
  O  O13  1  0.34737400  0.02538100  0.78972200  1
  O  O14  1  0.50467200  0.08066600  0.66917300  1
  O  O15  1  0.41405500  0.98094300  0.90243700  1
  O  O16  1  0.49555500  0.17172900  0.86714300  1
