# generated using pymatgen
data_Fe2H43C96S8N4O16F5
_symmetry_space_group_name_H-M   'P 1'
_cell_length_a   13.95148500
_cell_length_b   18.85865900
_cell_length_c   24.38775600
_cell_angle_alpha   90.21641700
_cell_angle_beta   90.00638600
_cell_angle_gamma   104.27960500
_symmetry_Int_Tables_number   1
_chemical_formula_structural   Fe2H43C96S8N4O16F5
_chemical_formula_sum   'Fe2 H43 C96 S8 N4 O16 F5'
_cell_volume   6218.27520624
_cell_formula_units_Z   1
loop_
 _symmetry_equiv_pos_site_id
 _symmetry_equiv_pos_as_xyz
  1  'x, y, z'
loop_
 _atom_site_type_symbol
 _atom_site_label
 _atom_site_symmetry_multiplicity
 _atom_site_fract_x
 _atom_site_fract_y
 _atom_site_fract_z
 _atom_site_occupancy
  Fe  Fe1  1  0.50703100  0.00453800  0.82592900  1
  Fe  Fe2  1  0.55017100  0.01154100  0.16831100  1
  H  H1  1  0.28194700  0.07279100  0.15286200  1
  H  H2  1  0.11856200  0.09866900  0.15624300  1
  H  H3  1  0.93287500  0.04691200  0.18293700  1
  H  H4  1  0.71484200  0.03123800  0.01541400  1
  H  H5  1  0.76586400  0.92298800  0.83915900  1
  H  H6  1  0.93405300  0.90104700  0.83272200  1
  H  H7  1  0.99691300  0.06424500  0.01334600  1
  H  H8  1  0.05322100  0.92389700  0.97651800  1
  H  H9  1  0.01232600  0.51740800  0.59257400  1
  H  H10  1  0.97582900  0.53672200  0.39496500  1
  H  H11  1  0.81662400  0.22459100  0.56685600  1
  H  H12  1  0.63467000  0.30432500  0.41204600  1
  H  H13  1  0.36642500  0.70886400  0.40353200  1
  H  H14  1  0.23904100  0.80922000  0.57081000  1
  H  H15  1  0.63969900  0.25208700  0.78652700  1
  H  H16  1  0.29101600  0.64545300  0.71106600  1
  H  H17  1  0.39242300  0.72575400  0.78399300  1
  H  H18  1  0.21677600  0.85858800  0.21713100  1
  H  H19  1  0.12545000  0.75760100  0.27926100  1
  H  H20  1  0.84559000  0.36836700  0.25542900  1
  H  H21  1  0.12278600  0.72991500  0.50342100  1
  H  H22  1  0.26656900  0.62532300  0.47526000  1
  H  H23  1  0.89835600  0.31715200  0.49660600  1
  H  H24  1  0.08477800  0.85554200  0.77747200  1
  H  H25  1  0.06218600  0.87028800  0.67853100  1
  H  H26  1  0.12833900  0.10166400  0.69951700  1
  H  H27  1  0.15101700  0.08699500  0.79846400  1
  H  H28  1  0.89294600  0.37811700  0.75977100  1
  H  H29  1  0.92145400  0.50431100  0.79431100  1
  H  H30  1  0.62732000  0.50738800  0.74955400  1
  H  H31  1  0.59874300  0.38117000  0.71509100  1
  H  H32  1  0.76362500  0.37931700  0.15391600  1
  H  H33  1  0.84563500  0.39708500  0.06423400  1
  H  H34  1  0.93149000  0.19721000  0.08349500  1
  H  H35  1  0.84960200  0.17906200  0.17343900  1
  H  H36  1  0.75134000  0.52010400  0.48796700  1
  H  H37  1  0.65330600  0.54739600  0.56461600  1
  H  H38  1  0.52847500  0.31976300  0.58801100  1
  H  H39  1  0.62739300  0.29139100  0.51200200  1
  H  H40  1  0.20935200  0.82148400  0.97152200  1
  H  H41  1  0.31626400  0.73617900  0.96910500  1
  H  H42  1  0.56881600  0.91353700  0.99146600  1
  H  H43  1  0.46334700  0.00029000  0.98920400  1
  C  C1  1  0.30375100  0.01550300  0.07740900  1
  C  C2  1  0.25857300  0.05479200  0.11176300  1
  C  C3  1  0.17156200  0.05760000  0.08727000  1
  C  C4  1  0.24497600  0.99988900  0.03048100  1
  C  C5  1  0.10109700  0.07900600  0.11472400  1
  C  C6  1  0.99603300  0.05854500  0.10022900  1
  C  C7  1  0.92242900  0.04426700  0.13898700  1
  C  C8  1  0.83390700  0.02683200  0.11109500  1
  C  C9  1  0.85743300  0.03179500  0.05554000  1
  C  C10  1  0.78733500  0.02139200  0.00931200  1
  C  C11  1  0.80783200  0.99312600  0.96177800  1
  C  C12  1  0.74499900  0.97581800  0.91718200  1
  C  C13  1  0.79106200  0.94038500  0.88010700  1
  C  C14  1  0.88172100  0.94086500  0.90217900  1
  C  C15  1  0.95239000  0.92102500  0.87404100  1
  C  C16  1  0.05721300  0.94059800  0.89001300  1
  C  C17  1  0.13291900  0.96175000  0.85296300  1
  C  C18  1  0.22078700  0.97627600  0.88215400  1
  C  C19  1  0.19376900  0.96246900  0.93701500  1
  C  C20  1  0.26084600  0.96509800  0.98417700  1
  C  C21  1  0.44077200  0.87626800  0.77157600  1
  C  C22  1  0.31904600  0.99661900  0.85541800  1
  C  C23  1  0.65512000  0.99826600  0.90309800  1
  C  C24  1  0.61763000  0.10533700  0.75588100  1
  C  C25  1  0.41608900  0.91710700  0.22913000  1
  C  C26  1  0.39380800  0.99673800  0.09537800  1
  C  C27  1  0.73878400  0.01229400  0.14016600  1
  C  C28  1  0.63165300  0.14757700  0.20691700  1
  C  C29  1  0.12828000  0.63376600  0.55213800  1
  C  C30  1  0.15152000  0.70730600  0.53863800  1
  C  C31  1  0.23237900  0.64471800  0.44051000  1
  C  C32  1  0.13137500  0.62680300  0.43048400  1
  C  C33  1  0.06052200  0.58088600  0.46397300  1
  C  C34  1  0.06707900  0.57836300  0.52100100  1
  C  C35  1  0.98467800  0.53082900  0.43827300  1
  C  C36  1  0.92237000  0.47288800  0.46573600  1
  C  C37  1  0.93619100  0.46599600  0.52229200  1
  C  C38  1  0.00515900  0.52084600  0.54884500  1
  C  C39  1  0.85049100  0.42523400  0.43369800  1
  C  C40  1  0.75514700  0.38661100  0.44855000  1
  C  C41  1  0.87615000  0.33305800  0.53632000  1
  C  C42  1  0.89030100  0.40474800  0.55357900  1
  C  C43  1  0.83333800  0.28254000  0.57544100  1
  C  C44  1  0.81258800  0.31349900  0.62429000  1
  C  C45  1  0.76501900  0.34114900  0.36166800  1
  C  C46  1  0.70971600  0.33723500  0.40878900  1
  C  C47  1  0.28703700  0.68879300  0.40087700  1
  C  C48  1  0.22976800  0.70568700  0.35918300  1
  C  C49  1  0.23747700  0.71171400  0.61909500  1
  C  C50  1  0.21345700  0.75070100  0.57576400  1
  C  C51  1  0.76140600  0.27107300  0.66738700  1
  C  C52  1  0.73432000  0.30185000  0.31422600  1
  C  C53  1  0.26650200  0.75465600  0.31717000  1
  C  C54  1  0.29914700  0.74332900  0.66155900  1
  C  C55  1  0.66365200  0.17300300  0.72669600  1
  C  C56  1  0.67082200  0.24186900  0.74756500  1
  C  C57  1  0.72652900  0.29673800  0.71538200  1
  C  C58  1  0.31884700  0.70373800  0.70579300  1
  C  C59  1  0.37435200  0.74693000  0.74524400  1
  C  C60  1  0.39926200  0.81986400  0.73153500  1
  C  C61  1  0.35483800  0.85139400  0.25495200  1
  C  C62  1  0.25419700  0.83194500  0.24646400  1
  C  C63  1  0.20498200  0.77713900  0.28034200  1
  C  C64  1  0.78650800  0.32026400  0.26278300  1
  C  C65  1  0.75320500  0.26872000  0.22314900  1
  C  C66  1  0.67809800  0.21052800  0.24114300  1
  C  C67  1  0.11928600  0.97036700  0.79406800  1
  C  C68  1  0.09421600  0.90962500  0.76038000  1
  C  C69  1  0.08160200  0.91789200  0.70489900  1
  C  C70  1  0.09384500  0.98686700  0.68303800  1
  C  C71  1  0.11874800  0.04759300  0.71665700  1
  C  C72  1  0.13147500  0.03936600  0.77213200  1
  C  C73  1  0.74501800  0.37269300  0.73380100  1
  C  C74  1  0.83490300  0.40677500  0.75702500  1
  C  C75  1  0.85079800  0.47744900  0.77652400  1
  C  C76  1  0.77644000  0.51375500  0.77352700  1
  C  C77  1  0.68591300  0.47916600  0.75144700  1
  C  C78  1  0.66995400  0.40845700  0.73201300  1
  C  C79  1  0.79871400  0.27689700  0.16868000  1
  C  C80  1  0.79974800  0.33880500  0.13840900  1
  C  C81  1  0.84578700  0.34887400  0.08803000  1
  C  C82  1  0.89246200  0.29768400  0.06814800  1
  C  C83  1  0.89355200  0.23666100  0.09881000  1
  C  C84  1  0.84712400  0.22634600  0.14911700  1
  C  C85  1  0.69811100  0.40366400  0.49541500  1
  C  C86  1  0.70416600  0.47552900  0.51029100  1
  C  C87  1  0.64823800  0.49116100  0.55317600  1
  C  C88  1  0.58537300  0.43526800  0.58120300  1
  C  C89  1  0.57792500  0.36365300  0.56609900  1
  C  C90  1  0.63342000  0.34787000  0.52305800  1
  C  C91  1  0.32875100  0.91644300  0.98209500  1
  C  C92  1  0.28855100  0.84232000  0.97508900  1
  C  C93  1  0.34846900  0.79416300  0.97397800  1
  C  C94  1  0.44916100  0.81979200  0.98009500  1
  C  C95  1  0.48994300  0.89372400  0.98604600  1
  C  C96  1  0.43035100  0.94225800  0.98547500  1
  S  S1  1  0.85405700  0.41174700  0.62373500  1
  S  S2  1  0.88044100  0.40705500  0.36438600  1
  S  S3  1  0.10071400  0.66192500  0.36612800  1
  S  S4  1  0.17878900  0.61608200  0.61681800  1
  S  S5  1  0.72718700  0.17267300  0.66298300  1
  S  S6  1  0.35580400  0.83958800  0.66574100  1
  S  S7  1  0.39541900  0.80004400  0.30826300  1
  S  S8  1  0.63896600  0.21872600  0.31082700  1
  N  N1  1  0.16340200  0.02586800  0.03725600  1
  N  N2  1  0.95692300  0.05145800  0.04957500  1
  N  N3  1  0.89209800  0.97209200  0.95221200  1
  N  N4  1  0.09402200  0.94104100  0.94107200  1
  O  O1  1  0.46906400  0.94534400  0.75721300  1
  O  O2  1  0.44183500  0.85832300  0.82342700  1
  O  O3  1  0.40316000  0.00770400  0.88227800  1
  O  O4  1  0.32282100  0.99747400  0.80175900  1
  O  O5  1  0.64224900  0.04491000  0.74211900  1
  O  O6  1  0.59569600  0.95706200  0.86760400  1
  O  O7  1  0.55313400  0.10442700  0.79558000  1
  O  O8  1  0.64659900  0.06448200  0.91452500  1
  O  O9  1  0.50508900  0.91945700  0.20997900  1
  O  O10  1  0.39406300  0.92795400  0.10312000  1
  O  O11  1  0.37623300  0.97190300  0.21929800  1
  O  O12  1  0.46046800  0.04876000  0.11949600  1
  O  O13  1  0.65303700  0.99702000  0.11478200  1
  O  O14  1  0.74045400  0.02113100  0.19354200  1
  O  O15  1  0.58853600  0.08462300  0.22937900  1
  O  O16  1  0.63627400  0.15247800  0.15330500  1
  F  F1  1  0.08143200  0.99497800  0.62851700  1
  F  F2  1  0.79202700  0.58317500  0.79274900  1
  F  F3  1  0.93819400  0.30773100  0.01876100  1
  F  F4  1  0.53029300  0.45075700  0.62324600  1
  F  F5  1  0.50805100  0.77240500  0.98016300  1
