# generated using pymatgen
data_ZnH8C13SNO4
_symmetry_space_group_name_H-M   'P 1'
_cell_length_a   12.34571300
_cell_length_b   8.55919100
_cell_length_c   10.72923100
_cell_angle_alpha   90.00000000
_cell_angle_beta   92.50540800
_cell_angle_gamma   90.00000000
_symmetry_Int_Tables_number   1
_chemical_formula_structural   ZnH8C13SNO4
_chemical_formula_sum   'Zn2 H16 C26 S2 N2 O8'
_cell_volume   1132.66674458
_cell_formula_units_Z   2
loop_
 _symmetry_equiv_pos_site_id
 _symmetry_equiv_pos_as_xyz
  1  'x, y, z'
loop_
 _atom_site_type_symbol
 _atom_site_label
 _atom_site_symmetry_multiplicity
 _atom_site_fract_x
 _atom_site_fract_y
 _atom_site_fract_z
 _atom_site_occupancy
  Zn  Zn1  1  0.11916900  0.53517200  0.48172800  1
  Zn  Zn2  1  0.88083200  0.53517200  0.51827200  1
  H  H1  1  0.00430400  0.42171600  0.88533700  1
  H  H2  1  0.92525000  0.66579300  0.09260600  1
  H  H3  1  0.99569600  0.42171600  0.11466300  1
  H  H4  1  0.07475000  0.66579300  0.90739400  1
  H  H5  1  0.11342400  0.31877900  0.06342800  1
  H  H6  1  0.92947600  0.68395200  0.88770000  1
  H  H7  1  0.88657600  0.31877900  0.93657300  1
  H  H8  1  0.07052500  0.68395200  0.11230000  1
  H  H9  1  0.06512500  0.03665000  0.58532100  1
  H  H10  1  0.93487500  0.03665000  0.41467900  1
  H  H11  1  0.52061700  0.28417400  0.19565800  1
  H  H12  1  0.46439500  0.27651500  0.34783900  1
  H  H13  1  0.61034800  0.27994300  0.33424400  1
  H  H14  1  0.47937800  0.28417400  0.80434300  1
  H  H15  1  0.53560900  0.27651600  0.65216600  1
  H  H16  1  0.38965400  0.27994300  0.66575200  1
  C  C1  1  0.05246100  0.03589400  0.68426600  1
  C  C2  1  0.94753900  0.03589400  0.31573500  1
  C  C3  1  0.03574500  0.17491500  0.74488700  1
  C  C4  1  0.96287600  0.89582900  0.25603500  1
  C  C5  1  0.96425500  0.17491500  0.25511400  1
  C  C6  1  0.03712400  0.89582900  0.74396500  1
  C  C7  1  0.01041500  0.17240100  0.86943600  1
  C  C8  1  0.98154800  0.89330800  0.13027600  1
  C  C9  1  0.98958600  0.17240100  0.13056400  1
  C  C10  1  0.01845300  0.89330800  0.86972400  1
  C  C11  1  0.97627000  0.31676600  0.93401600  1
  C  C12  1  0.99607300  0.73864900  0.07050400  1
  C  C13  1  0.02373100  0.31676600  0.06598400  1
  C  C14  1  0.00392700  0.73864900  0.92949600  1
  C  C15  1  0.00953400  0.03213900  0.93356700  1
  C  C16  1  0.99046600  0.03213900  0.06643300  1
  C  C17  1  0.53113800  0.53516500  0.55217000  1
  C  C18  1  0.46886200  0.53516500  0.44783100  1
  C  C19  1  0.35278300  0.53517400  0.45449700  1
  C  C20  1  0.64721800  0.53517400  0.54550300  1
  C  C21  1  0.02512700  0.31608900  0.66821000  1
  C  C22  1  0.97441600  0.75428700  0.33192400  1
  C  C23  1  0.97487300  0.31608900  0.33179000  1
  C  C24  1  0.02558500  0.75428700  0.66807700  1
  C  C25  1  0.53177400  0.32337600  0.29389900  1
  C  C26  1  0.46822600  0.32337600  0.70610100  1
  S  S1  1  0.52944400  0.53517000  0.29937800  1
  S  S2  1  0.47055600  0.53517000  0.70062300  1
  N  N1  1  0.74049500  0.53518000  0.53876600  1
  N  N2  1  0.25950600  0.53518000  0.46123400  1
  O  O1  1  0.92681800  0.36696700  0.64067500  1
  O  O2  1  0.07305400  0.70381900  0.35964800  1
  O  O3  1  0.07318300  0.36696700  0.35932500  1
  O  O4  1  0.92694600  0.70381900  0.64035200  1
  O  O5  1  0.11158000  0.37118100  0.61599900  1
  O  O6  1  0.88822600  0.69870900  0.38376200  1
  O  O7  1  0.88842000  0.37118100  0.38400100  1
  O  O8  1  0.11177500  0.69870900  0.61623800  1
