# generated using pymatgen
data_Cu3H22C40(SO6)2
_symmetry_space_group_name_H-M   'P 1'
_cell_length_a   21.65659000
_cell_length_b   21.60279900
_cell_length_c   22.01599200
_cell_angle_alpha   60.64846400
_cell_angle_beta   119.44076300
_cell_angle_gamma   89.95908600
_symmetry_Int_Tables_number   1
_chemical_formula_structural   Cu3H22C40(SO6)2
_chemical_formula_sum   'Cu6 H44 C80 S4 O24'
_cell_volume   7411.70315958
_cell_formula_units_Z   2
loop_
 _symmetry_equiv_pos_site_id
 _symmetry_equiv_pos_as_xyz
  1  'x, y, z'
loop_
 _atom_site_type_symbol
 _atom_site_label
 _atom_site_symmetry_multiplicity
 _atom_site_fract_x
 _atom_site_fract_y
 _atom_site_fract_z
 _atom_site_occupancy
  Cu  Cu1  1  0.50448000  0.44654000  0.50362900  1
  Cu  Cu2  1  0.50104600  0.57602700  0.49044800  1
  Cu  Cu3  1  0.06948900  0.00996900  0.49107600  1
  Cu  Cu4  1  0.95098000  0.00804200  0.49969400  1
  Cu  Cu5  1  0.96464500  0.53620500  0.42854500  1
  Cu  Cu6  1  0.05625300  0.46534400  0.59528700  1
  H  H1  1  0.38506200  0.76614900  0.04786200  1
  H  H2  1  0.33683200  0.70699900  0.94846500  1
  H  H3  1  0.24048800  0.87052200  0.93921200  1
  H  H4  1  0.19973500  0.76751000  0.04344200  1
  H  H5  1  0.65762200  0.60571800  0.41119000  1
  H  H6  1  0.71414300  0.37559000  0.65739700  1
  H  H7  1  0.81889100  0.26228000  0.76513400  1
  H  H8  1  0.92961600  0.24949600  0.76200700  1
  H  H9  1  0.93612200  0.35070700  0.65320800  1
  H  H10  1  0.77206100  0.59990500  0.41673400  1
  H  H11  1  0.63555800  0.37360000  0.94549400  1
  H  H12  1  0.67870200  0.21616200  0.05537400  1
  H  H13  1  0.78553400  0.36549500  0.04524500  1
  H  H14  1  0.81276500  0.35179200  0.93850100  1
  H  H15  1  0.85569200  0.19446700  0.04826600  1
  H  H16  1  0.70599200  0.20252000  0.94874800  1
  H  H17  1  0.35531200  0.40718900  0.58432000  1
  H  H18  1  0.28602500  0.65415200  0.34862500  1
  H  H19  1  0.18346400  0.76720400  0.26117300  1
  H  H20  1  0.08367500  0.76925800  0.28397100  1
  H  H21  1  0.08508400  0.65756600  0.39196500  1
  H  H22  1  0.24742600  0.40450500  0.59236000  1
  H  H23  1  0.74491600  0.92635800  0.24815400  1
  H  H24  1  0.74025600  0.79951800  0.29058400  1
  H  H25  1  0.85261700  0.69408300  0.40066100  1
  H  H26  1  0.10601400  0.65975000  0.58543100  1
  H  H27  1  0.03170600  0.24330000  0.42036000  1
  H  H28  1  0.04979700  0.05332400  0.66666667  1
  H  H29  1  0.04622200  0.04920200  0.77607300  1
  H  H30  1  0.03133500  0.16268000  0.77428800  1
  H  H31  1  0.02226400  0.27843100  0.66569100  1
  H  H32  1  0.02931300  0.35329000  0.42420100  1
  H  H33  1  0.21586300  0.72872900  0.57774200  1
  H  H34  1  0.22124100  0.81875900  0.56194100  1
  H  H35  1  0.13994400  0.81412400  0.48416400  1
  H  H36  1  0.88252300  0.03312400  0.18725000  1
  H  H37  1  0.87721300  0.93949300  0.22361400  1
  H  H38  1  0.96052300  0.95429800  0.28801700  1
  H  H39  1  0.13549800  0.60491300  0.91345400  1
  H  H40  1  0.18053800  0.67142800  0.87913900  1
  H  H41  1  0.08085700  0.69479800  0.81254800  1
  H  H42  1  0.21177700  0.52686800  0.08763300  1
  H  H43  1  0.23911400  0.59046100  0.11912600  1
  H  H44  1  0.29865000  0.49502600  0.18733100  1
  C  C1  1  0.62823500  0.50135600  0.51177500  1
  C  C2  1  0.43072100  0.58273300  0.33589800  1
  C  C3  1  0.37788000  0.52043900  0.48398700  1
  C  C4  1  0.57500900  0.43987400  0.65810300  1
  C  C5  1  0.30630700  0.72079000  0.97077300  1
  C  C6  1  0.33174800  0.75357500  0.02342000  1
  C  C7  1  0.38897500  0.62257100  0.24567400  1
  C  C8  1  0.14350700  0.86280900  0.74601700  1
  C  C9  1  0.28326700  0.66615600  0.02629200  1
  C  C10  1  0.30843600  0.69902400  0.07756300  1
  C  C11  1  0.20598300  0.72198200  0.96846100  1
  C  C12  1  0.22880400  0.77666700  0.91444500  1
  C  C13  1  0.23070300  0.75451900  0.02111200  1
  C  C14  1  0.25364400  0.80971800  0.96596600  1
  C  C15  1  0.35310500  0.65667000  0.16982000  1
  C  C16  1  0.18265300  0.82297300  0.82203500  1
  C  C17  1  0.76103700  0.37251500  0.65252100  1
  C  C18  1  0.82097800  0.30786200  0.71518600  1
  C  C19  1  0.88303100  0.30091200  0.71371500  1
  C  C20  1  0.88656500  0.35968100  0.65158000  1
  C  C21  1  0.82775300  0.42661800  0.58932200  1
  C  C22  1  0.76258900  0.43141900  0.58740800  1
  C  C23  1  0.70048600  0.49557700  0.52169100  1
  C  C24  1  0.70545800  0.55561900  0.46203000  1
  C  C25  1  0.77007800  0.55170700  0.46469200  1
  C  C26  1  0.83167900  0.48793200  0.52751900  1
  C  C27  1  0.70834700  0.24759200  0.02748900  1
  C  C28  1  0.68618400  0.33239800  0.97011600  1
  C  C29  1  0.61836600  0.40003900  0.74826400  1
  C  C30  1  0.87716000  0.15853900  0.24553800  1
  C  C31  1  0.72470100  0.23883200  0.97192500  1
  C  C32  1  0.70343200  0.32277000  0.91621500  1
  C  C33  1  0.80508500  0.23575100  0.02357000  1
  C  C34  1  0.78797000  0.24527200  0.07759900  1
  C  C35  1  0.78306300  0.32043800  0.96634500  1
  C  C36  1  0.76678500  0.32921200  0.02203500  1
  C  C37  1  0.65614800  0.36571800  0.82410300  1
  C  C38  1  0.83674000  0.19900000  0.16971600  1
  C  C39  1  0.24414200  0.65227500  0.36197200  1
  C  C40  1  0.18515100  0.71691400  0.31062700  1
  C  C41  1  0.12904500  0.71792100  0.32295400  1
  C  C42  1  0.12983800  0.65338500  0.38398100  1
  C  C43  1  0.18738700  0.58670000  0.43405400  1
  C  C44  1  0.24755300  0.58734300  0.42646000  1
  C  C45  1  0.30906000  0.52256700  0.48191600  1
  C  C46  1  0.30785200  0.45761400  0.54076700  1
  C  C47  1  0.24744100  0.45638500  0.54641600  1
  C  C48  1  0.18676800  0.52003200  0.49317100  1
  C  C49  1  0.99541000  0.90206200  0.47307700  1
  C  C50  1  0.09561800  0.91256600  0.65570700  1
  C  C51  1  0.02641800  0.11395700  0.52034700  1
  C  C52  1  0.92524400  0.10736300  0.33553500  1
  C  C53  1  0.99536100  0.62710500  0.49568500  1
  C  C54  1  0.89788400  0.48951500  0.52382100  1
  C  C55  1  0.02268900  0.37376500  0.52870400  1
  C  C56  1  0.12242400  0.51350500  0.49951400  1
  C  C57  1  0.86059500  0.89065800  0.34414300  1
  C  C58  1  0.79485400  0.87891600  0.30135500  1
  C  C59  1  0.79240200  0.80815700  0.32389400  1
  C  C60  1  0.85713200  0.74875100  0.38558700  1
  C  C61  1  0.92463900  0.75914900  0.42839700  1
  C  C62  1  0.92578100  0.82964000  0.41394500  1
  C  C63  1  0.99197900  0.83607400  0.46853600  1
  C  C64  1  0.05557900  0.77351600  0.53066700  1
  C  C65  1  0.05495300  0.70674800  0.53812500  1
  C  C66  1  0.99048200  0.69895300  0.48727900  1
  C  C67  1  0.04222600  0.10493000  0.66256000  1
  C  C68  1  0.04126000  0.10158400  0.72597300  1
  C  C69  1  0.03332600  0.16492800  0.72516600  1
  C  C70  1  0.02883100  0.23118700  0.66261100  1
  C  C71  1  0.03204600  0.23555300  0.59909000  1
  C  C72  1  0.03552600  0.17199000  0.59746700  1
  C  C73  1  0.03352300  0.17554900  0.53169000  1
  C  C74  1  0.03317200  0.24035100  0.47152400  1
  C  C75  1  0.03062600  0.30293400  0.47321300  1
  C  C76  1  0.02928100  0.30215900  0.53565300  1
  C  C77  1  0.18347300  0.78487700  0.55267000  1
  C  C78  1  0.89871800  0.97715900  0.24384600  1
  C  C79  1  0.12976100  0.66529300  0.87898200  1
  C  C80  1  0.25992400  0.54271200  0.12049100  1
  S  S1  1  0.13949900  0.77514800  0.60756300  1
  S  S2  1  0.85808300  0.98620300  0.29530300  1
  S  S3  1  0.11600200  0.70541700  0.92900400  1
  S  S4  1  0.30946100  0.56656000  0.06923700  1
  O  O1  1  0.60002800  0.44679400  0.51571800  1
  O  O2  1  0.59370600  0.56203600  0.49688900  1
  O  O3  1  0.45257900  0.50929100  0.38101700  1
  O  O4  1  0.44384300  0.62170600  0.36898900  1
  O  O5  1  0.41170400  0.46061400  0.49691800  1
  O  O6  1  0.40583200  0.57531500  0.47916200  1
  O  O7  1  0.56132500  0.40083900  0.62505800  1
  O  O8  1  0.55338100  0.51330500  0.61310300  1
  O  O9  1  0.04804200  0.93146900  0.47108500  1
  O  O10  1  0.94905000  0.92579900  0.48489800  1
  O  O11  1  0.12638700  0.93885200  0.61350100  1
  O  O12  1  0.02317800  0.93216700  0.61993900  1
  O  O13  1  0.07115500  0.09235600  0.50555000  1
  O  O14  1  0.97265400  0.08598700  0.52053900  1
  O  O15  1  0.99742400  0.08570800  0.37076900  1
  O  O16  1  0.89439400  0.07985000  0.37744200  1
  O  O17  1  0.96272800  0.62733100  0.42706500  1
  O  O18  1  0.03702500  0.56549700  0.57186200  1
  O  O19  1  0.88578400  0.52614000  0.44870900  1
  O  O20  1  0.96540000  0.45940500  0.59349100  1
  O  O21  1  0.98370900  0.43580100  0.45253000  1
  O  O22  1  0.05822900  0.37413700  0.59690000  1
  O  O23  1  0.05528800  0.54231000  0.43007300  1
  O  O24  1  0.13502800  0.47582100  0.57490700  1
