# generated using pymatgen
data_ZnH13C27NO4
_symmetry_space_group_name_H-M   'P 1'
_cell_length_a   8.53258800
_cell_length_b   11.07457300
_cell_length_c   17.54941300
_cell_angle_alpha   90.83972800
_cell_angle_beta   90.07965400
_cell_angle_gamma   102.57388300
_symmetry_Int_Tables_number   1
_chemical_formula_structural   ZnH13C27NO4
_chemical_formula_sum   'Zn2 H26 C54 N2 O8'
_cell_volume   1618.36289307
_cell_formula_units_Z   2
loop_
 _symmetry_equiv_pos_site_id
 _symmetry_equiv_pos_as_xyz
  1  'x, y, z'
loop_
 _atom_site_type_symbol
 _atom_site_label
 _atom_site_symmetry_multiplicity
 _atom_site_fract_x
 _atom_site_fract_y
 _atom_site_fract_z
 _atom_site_occupancy
  Zn  Zn1  1  0.50325800  0.50816100  0.91532100  1
  Zn  Zn2  1  0.49473900  0.49159200  0.08468800  1
  H  H1  1  0.97395000  0.41284300  0.97114200  1
  H  H2  1  0.02404500  0.58690900  0.02887000  1
  H  H3  1  0.63130400  0.08057000  0.00927800  1
  H  H4  1  0.36668900  0.91918100  0.99072900  1
  H  H5  1  0.28136000  0.11070300  0.99019500  1
  H  H6  1  0.71663300  0.88904700  0.00981100  1
  H  H7  1  0.61247100  0.81298100  0.68954300  1
  H  H8  1  0.38382400  0.18694700  0.31055800  1
  H  H9  1  0.57863100  0.80869000  0.44201500  1
  H  H10  1  0.42151200  0.19132500  0.55786700  1
  H  H11  1  0.61412200  0.81357600  0.55557400  1
  H  H12  1  0.38180800  0.18652800  0.44456800  1
  H  H13  1  0.44096000  0.32191200  0.81155900  1
  H  H14  1  0.55763700  0.67782900  0.18840100  1
  H  H15  1  0.57397800  0.70738900  0.80743100  1
  H  H16  1  0.42339000  0.29239400  0.19263900  1
  H  H17  1  0.35017700  0.78091400  0.23793400  1
  H  H18  1  0.38358600  0.98102300  0.17434800  1
  H  H19  1  0.62195800  0.14601300  0.20120100  1
  H  H20  1  0.82580800  0.11125900  0.29254900  1
  H  H21  1  0.79369400  0.91096000  0.35566000  1
  H  H22  1  0.20655100  0.08825400  0.64409300  1
  H  H23  1  0.17529600  0.88808500  0.70728200  1
  H  H24  1  0.37913200  0.85414100  0.79887100  1
  H  H25  1  0.61678600  0.01974800  0.82581900  1
  H  H26  1  0.64935000  0.21972900  0.76215000  1
  C  C1  1  0.07015500  0.25466900  0.98779500  1
  C  C2  1  0.92784100  0.74508300  0.01221300  1
  C  C3  1  0.94683600  0.31525900  0.98116900  1
  C  C4  1  0.05115900  0.68449300  0.01884200  1
  C  C5  1  0.79046300  0.25514900  0.99205400  1
  C  C6  1  0.20753200  0.74460200  0.00795500  1
  C  C7  1  0.75466400  0.12886100  0.00194900  1
  C  C8  1  0.24332900  0.87089000  0.99805900  1
  C  C9  1  0.87706500  0.06441100  0.00016400  1
  C  C10  1  0.12092900  0.93534000  0.99984200  1
  C  C11  1  0.03575300  0.12742900  0.99496800  1
  C  C12  1  0.96224000  0.87232300  0.00503900  1
  C  C13  1  0.84069900  0.93706400  0.00499200  1
  C  C14  1  0.15729400  0.06268600  0.99501400  1
  C  C15  1  0.76520600  0.66873100  0.00801900  1
  C  C16  1  0.23279100  0.33102100  0.99198900  1
  C  C17  1  0.66930000  0.33029500  0.99541700  1
  C  C18  1  0.32869500  0.66945700  0.00459200  1
  C  C19  1  0.54545500  0.61998500  0.77673800  1
  C  C20  1  0.45219900  0.37982000  0.22330300  1
  C  C21  1  0.47458000  0.40433800  0.77826800  1
  C  C22  1  0.52381900  0.59544500  0.22171400  1
  C  C23  1  0.50945900  0.50595100  0.65852600  1
  C  C24  1  0.48862900  0.49394600  0.34148500  1
  C  C25  1  0.54497900  0.61702700  0.69803000  1
  C  C26  1  0.45263500  0.38284500  0.30201100  1
  C  C27  1  0.58149600  0.72550900  0.65899700  1
  C  C28  1  0.41544000  0.27441500  0.34107600  1
  C  C29  1  0.47835200  0.39816600  0.69942800  1
  C  C30  1  0.52017400  0.60169400  0.30055300  1
  C  C31  1  0.53154300  0.60996300  0.45951800  1
  C  C32  1  0.46677700  0.39000100  0.54048200  1
  C  C33  1  0.45947300  0.38680000  0.46067700  1
  C  C34  1  0.53834800  0.61317700  0.53934500  1
  C  C35  1  0.49328300  0.49692800  0.42083200  1
  C  C36  1  0.50480200  0.50302400  0.57917900  1
  C  C37  1  0.55839200  0.71776500  0.41707400  1
  C  C38  1  0.44076500  0.28217500  0.58287600  1
  C  C39  1  0.55131400  0.71412600  0.33887600  1
  C  C40  1  0.44785000  0.28576600  0.66107200  1
  C  C41  1  0.57995300  0.72419600  0.58079400  1
  C  C42  1  0.41699100  0.27579700  0.41927800  1
  C  C43  1  0.57223500  0.83191700  0.29915200  1
  C  C44  1  0.45599600  0.85272100  0.24918700  1
  C  C45  1  0.47419500  0.96526000  0.21380800  1
  C  C46  1  0.60753500  0.05785600  0.22899900  1
  C  C47  1  0.72186200  0.03833200  0.28016600  1
  C  C48  1  0.70362800  0.92587600  0.31562900  1
  C  C49  1  0.42757200  0.16799300  0.70076400  1
  C  C50  1  0.29665700  0.07367000  0.68420300  1
  C  C51  1  0.27890000  0.96129000  0.71971200  1
  C  C52  1  0.39323700  0.94221500  0.77100900  1
  C  C53  1  0.52615800  0.03516200  0.78625900  1
  C  C54  1  0.54388100  0.14762500  0.75083100  1
  N  N1  1  0.50841500  0.51399000  0.81548200  1
  N  N2  1  0.48958600  0.48577100  0.18452700  1
  O  O1  1  0.70078300  0.61854000  0.07094400  1
  O  O2  1  0.29721800  0.38120800  0.92906200  1
  O  O3  1  0.70292000  0.63754900  0.94016300  1
  O  O4  1  0.29507200  0.36220700  0.05984700  1
  O  O5  1  0.63565000  0.38069400  0.93201700  1
  O  O6  1  0.36235200  0.61906300  0.06799100  1
  O  O7  1  0.62195300  0.36158300  0.06271000  1
  O  O8  1  0.37603700  0.63816500  0.93730000  1
