# generated using pymatgen
data_Cu3H48(C7O2)8
_symmetry_space_group_name_H-M   'P 1'
_cell_length_a   30.13617700
_cell_length_b   30.13617700
_cell_length_c   35.18972700
_cell_angle_alpha   90.00000000
_cell_angle_beta   90.00000000
_cell_angle_gamma   90.00000000
_symmetry_Int_Tables_number   1
_chemical_formula_structural   Cu3H48(C7O2)8
_chemical_formula_sum   'Cu12 H192 C224 O64'
_cell_volume   31958.92875169
_cell_formula_units_Z   4
loop_
 _symmetry_equiv_pos_site_id
 _symmetry_equiv_pos_as_xyz
  1  'x, y, z'
loop_
 _atom_site_type_symbol
 _atom_site_label
 _atom_site_symmetry_multiplicity
 _atom_site_fract_x
 _atom_site_fract_y
 _atom_site_fract_z
 _atom_site_occupancy
  Cu  Cu1  1  0.00000000  0.45683500  0.50000000  1
  Cu  Cu2  1  0.50000000  0.50000000  0.53704700  1
  Cu  Cu3  1  0.00000000  0.00000000  0.96295300  1
  Cu  Cu4  1  0.00000000  0.00000000  0.03704700  1
  Cu  Cu5  1  0.45683500  0.00000000  0.50000000  1
  Cu  Cu6  1  0.00000000  0.54316500  0.50000000  1
  Cu  Cu7  1  0.54316500  0.00000000  0.50000000  1
  Cu  Cu8  1  0.50000000  0.95683500  0.00000000  1
  Cu  Cu9  1  0.95683500  0.50000000  0.00000000  1
  Cu  Cu10  1  0.50000000  0.04316500  0.00000000  1
  Cu  Cu11  1  0.04316500  0.50000000  0.00000000  1
  Cu  Cu12  1  0.50000000  0.50000000  0.46295300  1
  H  H1  1  0.06653200  0.52363200  0.18795700  1
  H  H2  1  0.02363200  0.43346800  0.68795700  1
  H  H3  1  0.82334600  0.28895500  0.51721400  1
  H  H4  1  0.87465800  0.30787400  0.49606200  1
  H  H5  1  0.38635200  0.10244200  0.50375400  1
  H  H6  1  0.40474700  0.15451800  0.48438600  1
  H  H7  1  0.34792600  0.14163700  0.55622500  1
  H  H8  1  0.36564600  0.19440400  0.53709900  1
  H  H9  1  0.32595700  0.17807700  0.47677700  1
  H  H10  1  0.28895500  0.17665400  0.51721400  1
  H  H11  1  0.30787400  0.12534200  0.49606300  1
  H  H12  1  0.10244200  0.38635200  0.49624600  1
  H  H13  1  0.43346800  0.97636800  0.68795700  1
  H  H14  1  0.15451800  0.40474700  0.51561400  1
  H  H15  1  0.14163700  0.34792600  0.44377500  1
  H  H16  1  0.19440400  0.36564600  0.46290100  1
  H  H17  1  0.17807700  0.32595700  0.52322300  1
  H  H18  1  0.17665400  0.28895500  0.48278600  1
  H  H19  1  0.12534200  0.30787400  0.50393800  1
  H  H20  1  0.61364800  0.10244200  0.49624600  1
  H  H21  1  0.59525300  0.15451800  0.51561400  1
  H  H22  1  0.65207400  0.14163700  0.44377500  1
  H  H23  1  0.63435400  0.19440400  0.46290100  1
  H  H24  1  0.97636800  0.56653200  0.68795700  1
  H  H25  1  0.67404300  0.17807700  0.52322300  1
  H  H26  1  0.71104500  0.17665400  0.48278600  1
  H  H27  1  0.69212600  0.12534200  0.50393700  1
  H  H28  1  0.89755800  0.61364800  0.49624600  1
  H  H29  1  0.84548200  0.59525300  0.51561400  1
  H  H30  1  0.85836300  0.65207400  0.44377500  1
  H  H31  1  0.80559600  0.63435400  0.46290100  1
  H  H32  1  0.82192300  0.67404300  0.52322300  1
  H  H33  1  0.82334600  0.71104500  0.48278600  1
  H  H34  1  0.87465800  0.69212600  0.50393800  1
  H  H35  1  0.56653200  0.97636800  0.31204300  1
  H  H36  1  0.38635200  0.89755800  0.49624600  1
  H  H37  1  0.40474700  0.84548200  0.51561400  1
  H  H38  1  0.34792600  0.85836300  0.44377500  1
  H  H39  1  0.36564600  0.80559600  0.46290100  1
  H  H40  1  0.32595700  0.82192300  0.52322300  1
  H  H41  1  0.28895500  0.82334600  0.48278600  1
  H  H42  1  0.30787400  0.87465800  0.50393800  1
  H  H43  1  0.60244200  0.11364800  0.00375400  1
  H  H44  1  0.65451800  0.09525300  0.98438500  1
  H  H45  1  0.64163700  0.15207400  0.05622500  1
  H  H46  1  0.02363200  0.56653200  0.31204300  1
  H  H47  1  0.69440400  0.13435400  0.03709900  1
  H  H48  1  0.67807700  0.17404300  0.97677600  1
  H  H49  1  0.67665400  0.21104500  0.01721300  1
  H  H50  1  0.62534200  0.19212600  0.99606200  1
  H  H51  1  0.11364800  0.39755800  0.00375400  1
  H  H52  1  0.09525300  0.34548200  0.98438600  1
  H  H53  1  0.15207400  0.35836300  0.05622500  1
  H  H54  1  0.13435400  0.30559600  0.03709900  1
  H  H55  1  0.17404300  0.32192300  0.97677700  1
  H  H56  1  0.21104500  0.32334600  0.01721400  1
  H  H57  1  0.43346800  0.02363200  0.31204300  1
  H  H58  1  0.19212600  0.37465800  0.99606200  1
  H  H59  1  0.39755700  0.88635200  0.00375400  1
  H  H60  1  0.34548200  0.90474600  0.98438600  1
  H  H61  1  0.35836300  0.84792600  0.05622500  1
  H  H62  1  0.30559600  0.86564600  0.03710000  1
  H  H63  1  0.32192300  0.82595700  0.97677700  1
  H  H64  1  0.32334600  0.78895500  0.01721500  1
  H  H65  1  0.37465700  0.80787400  0.99606300  1
  H  H66  1  0.88635200  0.60244200  0.00375400  1
  H  H67  1  0.90474600  0.65451800  0.98438600  1
  H  H68  1  0.97636800  0.43346800  0.31204300  1
  H  H69  1  0.84792600  0.64163700  0.05622500  1
  H  H70  1  0.86564600  0.69440400  0.03710000  1
  H  H71  1  0.82595700  0.67807700  0.97677700  1
  H  H72  1  0.78895500  0.67665400  0.01721400  1
  H  H73  1  0.80787400  0.62534200  0.99606300  1
  H  H74  1  0.60244200  0.88635200  0.99624600  1
  H  H75  1  0.65451800  0.90474700  0.01561500  1
  H  H76  1  0.64163700  0.84792600  0.94377500  1
  H  H77  1  0.69440400  0.86564600  0.96290100  1
  H  H78  1  0.67807700  0.82595700  0.02322400  1
  H  H79  1  0.06699800  0.52380100  0.11865500  1
  H  H80  1  0.67665400  0.78895500  0.98278700  1
  H  H81  1  0.62534200  0.80787400  0.00393800  1
  H  H82  1  0.11364800  0.60244200  0.99624600  1
  H  H83  1  0.09525400  0.65451800  0.01561400  1
  H  H84  1  0.15207400  0.64163700  0.94377500  1
  H  H85  1  0.13435400  0.69440400  0.96290000  1
  H  H86  1  0.17404300  0.67807700  0.02322300  1
  H  H87  1  0.21104500  0.67665400  0.98278600  1
  H  H88  1  0.19212600  0.62534200  0.00393700  1
  H  H89  1  0.39755700  0.11364800  0.99624600  1
  H  H90  1  0.52380100  0.93300200  0.11865500  1
  H  H91  1  0.34548200  0.09525400  0.01561400  1
  H  H92  1  0.35836300  0.15207400  0.94377500  1
  H  H93  1  0.30559600  0.13435400  0.96290000  1
  H  H94  1  0.32192300  0.17404300  0.02322300  1
  H  H95  1  0.32334600  0.21104500  0.98278500  1
  H  H96  1  0.37465700  0.19212600  0.00393700  1
  H  H97  1  0.88635200  0.39755800  0.99624600  1
  H  H98  1  0.90474700  0.34548200  0.01561400  1
  H  H99  1  0.84792600  0.35836300  0.94377500  1
  H  H100  1  0.86564600  0.30559600  0.96290100  1
  H  H101  1  0.93300200  0.47619900  0.11865500  1
  H  H102  1  0.82595700  0.32192300  0.02322300  1
  H  H103  1  0.78895500  0.32334600  0.98278600  1
  H  H104  1  0.80787400  0.37465800  0.00393800  1
  H  H105  1  0.52363200  0.93346800  0.18795700  1
  H  H106  1  0.47619900  0.06699800  0.11865500  1
  H  H107  1  0.06699800  0.47619900  0.88134500  1
  H  H108  1  0.52380100  0.06699800  0.88134500  1
  H  H109  1  0.93300200  0.52380100  0.88134500  1
  H  H110  1  0.47619900  0.93300200  0.88134500  1
  H  H111  1  0.56699800  0.02380100  0.61865500  1
  H  H112  1  0.02380100  0.43300200  0.61865500  1
  H  H113  1  0.43300200  0.97619900  0.61865500  1
  H  H114  1  0.97619900  0.56699800  0.61865500  1
  H  H115  1  0.56699800  0.97619900  0.38134500  1
  H  H116  1  0.93346800  0.47636800  0.18795700  1
  H  H117  1  0.02380100  0.56699800  0.38134500  1
  H  H118  1  0.43300200  0.02380100  0.38134500  1
  H  H119  1  0.97619900  0.43300200  0.38134500  1
  H  H120  1  0.22075700  0.55912600  0.53298600  1
  H  H121  1  0.55912600  0.77924300  0.53298600  1
  H  H122  1  0.77924300  0.44087400  0.53298600  1
  H  H123  1  0.44087400  0.22075700  0.53298600  1
  H  H124  1  0.22075700  0.44087400  0.46701400  1
  H  H125  1  0.55912600  0.22075700  0.46701400  1
  H  H126  1  0.77924300  0.55912600  0.46701400  1
  H  H127  1  0.47636800  0.06653200  0.18795700  1
  H  H128  1  0.44087400  0.77924300  0.46701400  1
  H  H129  1  0.72075700  0.05912600  0.03298600  1
  H  H130  1  0.05912600  0.27924300  0.03298600  1
  H  H131  1  0.27924300  0.94087400  0.03298600  1
  H  H132  1  0.94087400  0.72075700  0.03298600  1
  H  H133  1  0.72075700  0.94087400  0.96701400  1
  H  H134  1  0.05912600  0.72075700  0.96701400  1
  H  H135  1  0.27924300  0.05912600  0.96701400  1
  H  H136  1  0.94087400  0.27924300  0.96701400  1
  H  H137  1  0.28098800  0.48043700  0.44159000  1
  H  H138  1  0.06653200  0.47636800  0.81204300  1
  H  H139  1  0.48043700  0.71901200  0.44159000  1
  H  H140  1  0.71901200  0.51956300  0.44159000  1
  H  H141  1  0.51956300  0.28098800  0.44159000  1
  H  H142  1  0.28098800  0.51956300  0.55841000  1
  H  H143  1  0.48043700  0.28098800  0.55841000  1
  H  H144  1  0.71901200  0.48043700  0.55841000  1
  H  H145  1  0.51956300  0.71901200  0.55841000  1
  H  H146  1  0.78098800  0.98043700  0.94159000  1
  H  H147  1  0.98043700  0.21901200  0.94159000  1
  H  H148  1  0.21901200  0.01956300  0.94159000  1
  H  H149  1  0.52363200  0.06653200  0.81204300  1
  H  H150  1  0.01956300  0.78098800  0.94159000  1
  H  H151  1  0.78098800  0.01956300  0.05841000  1
  H  H152  1  0.98043700  0.78098800  0.05841000  1
  H  H153  1  0.21901200  0.98043700  0.05841000  1
  H  H154  1  0.01956300  0.21901200  0.05841000  1
  H  H155  1  0.36122600  0.47973600  0.44170800  1
  H  H156  1  0.47973600  0.63877400  0.44170800  1
  H  H157  1  0.63877400  0.52026400  0.44170800  1
  H  H158  1  0.52026400  0.36122600  0.44170800  1
  H  H159  1  0.36122600  0.52026400  0.55829200  1
  H  H160  1  0.93346800  0.52363200  0.81204300  1
  H  H161  1  0.47973600  0.36122600  0.55829200  1
  H  H162  1  0.63877400  0.47973600  0.55829200  1
  H  H163  1  0.52026400  0.63877400  0.55829200  1
  H  H164  1  0.86122600  0.97973600  0.94170800  1
  H  H165  1  0.97973600  0.13877400  0.94170800  1
  H  H166  1  0.13877400  0.02026400  0.94170800  1
  H  H167  1  0.02026400  0.86122600  0.94170800  1
  H  H168  1  0.86122600  0.02026400  0.05829200  1
  H  H169  1  0.97973600  0.86122600  0.05829200  1
  H  H170  1  0.13877400  0.97973600  0.05829200  1
  H  H171  1  0.47636800  0.93346800  0.81204300  1
  H  H172  1  0.02026400  0.13877400  0.05829200  1
  H  H173  1  0.10244200  0.61364800  0.50375400  1
  H  H174  1  0.15451800  0.59525300  0.48438600  1
  H  H175  1  0.14163700  0.65207400  0.55622500  1
  H  H176  1  0.19440400  0.63435400  0.53709900  1
  H  H177  1  0.17807700  0.67404300  0.47677700  1
  H  H178  1  0.17665400  0.71104500  0.51721400  1
  H  H179  1  0.12534200  0.69212600  0.49606200  1
  H  H180  1  0.61364800  0.89755800  0.50375400  1
  H  H181  1  0.59525300  0.84548200  0.48438600  1
  H  H182  1  0.56653200  0.02363200  0.68795700  1
  H  H183  1  0.65207400  0.85836300  0.55622500  1
  H  H184  1  0.63435400  0.80559600  0.53709900  1
  H  H185  1  0.67404300  0.82192300  0.47677600  1
  H  H186  1  0.71104500  0.82334600  0.51721400  1
  H  H187  1  0.69212600  0.87465800  0.49606200  1
  H  H188  1  0.89755800  0.38635200  0.50375400  1
  H  H189  1  0.84548200  0.40474700  0.48438600  1
  H  H190  1  0.85836300  0.34792600  0.55622500  1
  H  H191  1  0.80559600  0.36564600  0.53709900  1
  H  H192  1  0.82192300  0.32595700  0.47677700  1
  C  C1  1  0.08439900  0.50000000  0.50000000  1
  C  C2  1  0.50000000  0.00000000  0.42806600  1
  C  C3  1  0.96590400  0.65735500  0.01755900  1
  C  C4  1  0.65735500  0.96590400  0.98244100  1
  C  C5  1  0.03409600  0.65735500  0.98244100  1
  C  C6  1  0.34264500  0.03409600  0.98244100  1
  C  C7  1  0.96590400  0.34264500  0.98244100  1
  C  C8  1  0.13362800  0.50000000  0.50000000  1
  C  C9  1  0.50000000  0.86637200  0.50000000  1
  C  C10  1  0.86637200  0.50000000  0.50000000  1
  C  C11  1  0.50000000  0.13362800  0.50000000  1
  C  C12  1  0.63362800  0.00000000  0.00000000  1
  C  C13  1  0.00000000  0.50000000  0.57193400  1
  C  C14  1  0.00000000  0.36637200  0.00000000  1
  C  C15  1  0.36637200  0.00000000  0.00000000  1
  C  C16  1  0.00000000  0.63362800  0.00000000  1
  C  C17  1  0.22631700  0.50000000  0.50000000  1
  C  C18  1  0.50000000  0.77368300  0.50000000  1
  C  C19  1  0.77368300  0.50000000  0.50000000  1
  C  C20  1  0.50000000  0.22631700  0.50000000  1
  C  C21  1  0.72631700  0.00000000  0.00000000  1
  C  C22  1  0.00000000  0.27368300  0.00000000  1
  C  C23  1  0.27368300  0.00000000  0.00000000  1
  C  C24  1  0.50000000  0.00000000  0.57193400  1
  C  C25  1  0.00000000  0.72631700  0.00000000  1
  C  C26  1  0.29828000  0.48857100  0.46756600  1
  C  C27  1  0.48857100  0.70172000  0.46756600  1
  C  C28  1  0.70172000  0.51142900  0.46756600  1
  C  C29  1  0.51142900  0.29828000  0.46756600  1
  C  C30  1  0.29828000  0.51142900  0.53243400  1
  C  C31  1  0.48857100  0.29828000  0.53243400  1
  C  C32  1  0.70172000  0.48857100  0.53243400  1
  C  C33  1  0.51142900  0.70172000  0.53243400  1
  C  C34  1  0.79828000  0.98857100  0.96756600  1
  C  C35  1  0.50000000  0.00000000  0.92806600  1
  C  C36  1  0.98857100  0.20172000  0.96756600  1
  C  C37  1  0.20172000  0.01142800  0.96756600  1
  C  C38  1  0.01142800  0.79828000  0.96756600  1
  C  C39  1  0.79828000  0.01142900  0.03243400  1
  C  C40  1  0.98857200  0.79828000  0.03243400  1
  C  C41  1  0.20172000  0.98857200  0.03243400  1
  C  C42  1  0.01142900  0.20172000  0.03243400  1
  C  C43  1  0.34401000  0.48856600  0.46755100  1
  C  C44  1  0.48856600  0.65599000  0.46755100  1
  C  C45  1  0.65599000  0.51143400  0.46755100  1
  C  C46  1  0.00000000  0.50000000  0.92806600  1
  C  C47  1  0.51143400  0.34401000  0.46755100  1
  C  C48  1  0.34401000  0.51143400  0.53244900  1
  C  C49  1  0.48856600  0.34401000  0.53244900  1
  C  C50  1  0.65599000  0.48856600  0.53244900  1
  C  C51  1  0.51143500  0.65599000  0.53244900  1
  C  C52  1  0.84401000  0.98856500  0.96755100  1
  C  C53  1  0.98856600  0.15599000  0.96755100  1
  C  C54  1  0.15599000  0.01143400  0.96755100  1
  C  C55  1  0.01143400  0.84401000  0.96755100  1
  C  C56  1  0.84401000  0.01143500  0.03244900  1
  C  C57  1  0.50000000  0.00000000  0.07193400  1
  C  C58  1  0.98856600  0.84401000  0.03244900  1
  C  C59  1  0.15599000  0.98856600  0.03244900  1
  C  C60  1  0.01143400  0.15599000  0.03244900  1
  C  C61  1  0.36715900  0.50000000  0.50000000  1
  C  C62  1  0.50000000  0.63284100  0.50000000  1
  C  C63  1  0.63284100  0.50000000  0.50000000  1
  C  C64  1  0.50000000  0.36716000  0.50000000  1
  C  C65  1  0.86715900  0.00000000  0.00000000  1
  C  C66  1  0.00000000  0.13284000  0.00000000  1
  C  C67  1  0.13284100  0.00000000  0.00000000  1
  C  C68  1  0.00000000  0.50000000  0.07193400  1
  C  C69  1  0.00000000  0.86715900  0.00000000  1
  C  C70  1  0.27506600  0.50000000  0.50000000  1
  C  C71  1  0.50000000  0.72493400  0.50000000  1
  C  C72  1  0.72493400  0.50000000  0.50000000  1
  C  C73  1  0.50000000  0.27506600  0.50000000  1
  C  C74  1  0.77506600  0.00000000  0.00000000  1
  C  C75  1  0.00000000  0.22493400  0.00000000  1
  C  C76  1  0.22493400  0.00000000  0.00000000  1
  C  C77  1  0.00000000  0.77506600  0.00000000  1
  C  C78  1  0.50000000  0.58420400  0.50000000  1
  C  C79  1  0.03728300  0.51324000  0.17256800  1
  C  C80  1  0.58420400  0.50000000  0.50000000  1
  C  C81  1  0.50000000  0.41579600  0.50000000  1
  C  C82  1  0.41579600  0.50000000  0.50000000  1
  C  C83  1  0.00000000  0.08420400  0.00000000  1
  C  C84  1  0.08420400  0.00000000  0.00000000  1
  C  C85  1  0.00000000  0.91579600  0.00000000  1
  C  C86  1  0.91579600  0.00000000  0.00000000  1
  C  C87  1  0.13695000  0.60414200  0.51100100  1
  C  C88  1  0.15974000  0.64322200  0.52985700  1
  C  C89  1  0.15992100  0.68266900  0.50317100  1
  C  C90  1  0.51324000  0.96271600  0.17256800  1
  C  C91  1  0.60414200  0.86305000  0.51100000  1
  C  C92  1  0.64322200  0.84026000  0.52985700  1
  C  C93  1  0.68266900  0.84007900  0.50317100  1
  C  C94  1  0.86305000  0.39585800  0.51100100  1
  C  C95  1  0.84026000  0.35677800  0.52985700  1
  C  C96  1  0.84007900  0.31733100  0.50317100  1
  C  C97  1  0.39585800  0.13695000  0.51100100  1
  C  C98  1  0.35677800  0.15974000  0.52985700  1
  C  C99  1  0.31733100  0.15992100  0.50317100  1
  C  C100  1  0.13695000  0.39585800  0.48899900  1
  C  C101  1  0.96271700  0.48676000  0.17256800  1
  C  C102  1  0.15974000  0.35677800  0.47014300  1
  C  C103  1  0.15992100  0.31733100  0.49682900  1
  C  C104  1  0.60414200  0.13695000  0.48899900  1
  C  C105  1  0.64322200  0.15974000  0.47014300  1
  C  C106  1  0.68266900  0.15992100  0.49682900  1
  C  C107  1  0.86305000  0.60414200  0.48899900  1
  C  C108  1  0.84026000  0.64322200  0.47014300  1
  C  C109  1  0.84007900  0.68266900  0.49682900  1
  C  C110  1  0.39585800  0.86305000  0.48900000  1
  C  C111  1  0.35677800  0.84026000  0.47014300  1
  C  C112  1  0.50000000  0.91560100  0.50000000  1
  C  C113  1  0.48676000  0.03728300  0.17256800  1
  C  C114  1  0.31733100  0.84007900  0.49682900  1
  C  C115  1  0.63695000  0.10414200  0.01100000  1
  C  C116  1  0.65974000  0.14322200  0.02985700  1
  C  C117  1  0.65992100  0.18266900  0.00317000  1
  C  C118  1  0.10414200  0.36305000  0.01100000  1
  C  C119  1  0.14322200  0.34026000  0.02985700  1
  C  C120  1  0.18266900  0.34007900  0.00317100  1
  C  C121  1  0.36305000  0.89585800  0.01100100  1
  C  C122  1  0.34026000  0.85677800  0.02985800  1
  C  C123  1  0.34007900  0.81733100  0.00317200  1
  C  C124  1  0.03728300  0.48676000  0.82743200  1
  C  C125  1  0.89585800  0.63695000  0.01100100  1
  C  C126  1  0.85677800  0.65974000  0.02985800  1
  C  C127  1  0.81733100  0.65992100  0.00317100  1
  C  C128  1  0.63695000  0.89585800  0.98900000  1
  C  C129  1  0.65974000  0.85677800  0.97014300  1
  C  C130  1  0.65992100  0.81733100  0.99683000  1
  C  C131  1  0.10414200  0.63695000  0.98899900  1
  C  C132  1  0.14322200  0.65974000  0.97014200  1
  C  C133  1  0.18266900  0.65992100  0.99682900  1
  C  C134  1  0.36305000  0.10414200  0.98899900  1
  C  C135  1  0.51324000  0.03728400  0.82743200  1
  C  C136  1  0.34026000  0.14322200  0.97014200  1
  C  C137  1  0.34007900  0.18266900  0.99682800  1
  C  C138  1  0.89585800  0.36305000  0.98899900  1
  C  C139  1  0.85677800  0.34026000  0.97014300  1
  C  C140  1  0.81733100  0.34007900  0.99682900  1
  C  C141  1  0.96271700  0.51324000  0.82743200  1
  C  C142  1  0.48676000  0.96271700  0.82743200  1
  C  C143  1  0.53728300  0.01324000  0.67256800  1
  C  C144  1  0.01324000  0.46271700  0.67256800  1
  C  C145  1  0.46271700  0.98676000  0.67256800  1
  C  C146  1  0.98676000  0.53728300  0.67256800  1
  C  C147  1  0.53728300  0.98676000  0.32743200  1
  C  C148  1  0.91560100  0.50000000  0.50000000  1
  C  C149  1  0.01324000  0.53728300  0.32743200  1
  C  C150  1  0.46271700  0.01324000  0.32743200  1
  C  C151  1  0.98676000  0.46271700  0.32743200  1
  C  C152  1  0.03737000  0.51326600  0.13339700  1
  C  C153  1  0.51326600  0.96263000  0.13339700  1
  C  C154  1  0.96263000  0.48673400  0.13339700  1
  C  C155  1  0.48673400  0.03737000  0.13339700  1
  C  C156  1  0.03737000  0.48673400  0.86660300  1
  C  C157  1  0.51326600  0.03737000  0.86660300  1
  C  C158  1  0.96263000  0.51326600  0.86660300  1
  C  C159  1  0.50000000  0.08439900  0.50000000  1
  C  C160  1  0.48673400  0.96263000  0.86660300  1
  C  C161  1  0.53737000  0.01326600  0.63339700  1
  C  C162  1  0.01326600  0.46263000  0.63339700  1
  C  C163  1  0.46263000  0.98673400  0.63339700  1
  C  C164  1  0.98673400  0.53737000  0.63339700  1
  C  C165  1  0.53737000  0.98673400  0.36660300  1
  C  C166  1  0.01326600  0.53737000  0.36660300  1
  C  C167  1  0.46263000  0.01326600  0.36660300  1
  C  C168  1  0.98673400  0.46263000  0.36660300  1
  C  C169  1  0.00000000  0.50000000  0.11358100  1
  C  C170  1  0.58439900  0.00000000  0.00000000  1
  C  C171  1  0.50000000  0.00000000  0.11358100  1
  C  C172  1  0.00000000  0.50000000  0.88641900  1
  C  C173  1  0.50000000  0.00000000  0.88641900  1
  C  C174  1  0.50000000  0.00000000  0.61358100  1
  C  C175  1  0.00000000  0.50000000  0.61358100  1
  C  C176  1  0.50000000  0.00000000  0.38641900  1
  C  C177  1  0.00000000  0.50000000  0.38641900  1
  C  C178  1  0.00000000  0.50000000  0.19214100  1
  C  C179  1  0.50000000  0.00000000  0.19214100  1
  C  C180  1  0.00000000  0.50000000  0.80785900  1
  C  C181  1  0.00000000  0.41560100  0.00000000  1
  C  C182  1  0.50000000  0.00000000  0.80785900  1
  C  C183  1  0.50000000  0.00000000  0.69214100  1
  C  C184  1  0.00000000  0.50000000  0.69214100  1
  C  C185  1  0.50000000  0.00000000  0.30785900  1
  C  C186  1  0.00000000  0.50000000  0.30785900  1
  C  C187  1  0.00000000  0.50000000  0.23288800  1
  C  C188  1  0.50000000  0.00000000  0.23288800  1
  C  C189  1  0.00000000  0.50000000  0.76711200  1
  C  C190  1  0.50000000  0.00000000  0.76711200  1
  C  C191  1  0.50000000  0.00000000  0.73288800  1
  C  C192  1  0.41560100  0.00000000  0.00000000  1
  C  C193  1  0.00000000  0.50000000  0.73288800  1
  C  C194  1  0.50000000  0.00000000  0.26711200  1
  C  C195  1  0.00000000  0.50000000  0.26711200  1
  C  C196  1  0.20315400  0.53283500  0.51861100  1
  C  C197  1  0.53283500  0.79684600  0.51861100  1
  C  C198  1  0.79684600  0.46716500  0.51861100  1
  C  C199  1  0.46716500  0.20315400  0.51861100  1
  C  C200  1  0.20315400  0.46716500  0.48138900  1
  C  C201  1  0.53283500  0.20315400  0.48138900  1
  C  C202  1  0.79684600  0.53283500  0.48138900  1
  C  C203  1  0.00000000  0.58439900  0.00000000  1
  C  C204  1  0.46716500  0.79684600  0.48138900  1
  C  C205  1  0.70315400  0.03283500  0.01861100  1
  C  C206  1  0.03283500  0.29684600  0.01861100  1
  C  C207  1  0.29684600  0.96716500  0.01861100  1
  C  C208  1  0.96716500  0.70315400  0.01861100  1
  C  C209  1  0.70315400  0.96716500  0.98138900  1
  C  C210  1  0.03283500  0.70315400  0.98138900  1
  C  C211  1  0.29684600  0.03283500  0.98138900  1
  C  C212  1  0.96716500  0.29684600  0.98138900  1
  C  C213  1  0.15735500  0.53409600  0.51755900  1
  C  C214  1  0.00000000  0.50000000  0.42806600  1
  C  C215  1  0.53409600  0.84264500  0.51755900  1
  C  C216  1  0.84264500  0.46590400  0.51755900  1
  C  C217  1  0.46590400  0.15735500  0.51755900  1
  C  C218  1  0.15735500  0.46590400  0.48244100  1
  C  C219  1  0.53409600  0.15735500  0.48244100  1
  C  C220  1  0.84264500  0.53409600  0.48244100  1
  C  C221  1  0.46590400  0.84264500  0.48244100  1
  C  C222  1  0.65735500  0.03409600  0.01755900  1
  C  C223  1  0.03409600  0.34264500  0.01755900  1
  C  C224  1  0.34264500  0.96590400  0.01755900  1
  O  O1  1  0.06317400  0.46368600  0.48935000  1
  O  O2  1  0.96368600  0.43682600  0.98935000  1
  O  O3  1  0.43682600  0.03631400  0.98935000  1
  O  O4  1  0.03631400  0.56317400  0.98935000  1
  O  O5  1  0.56317400  0.03631400  0.01065000  1
  O  O6  1  0.96368600  0.56317400  0.01065000  1
  O  O7  1  0.43682600  0.96368600  0.01065000  1
  O  O8  1  0.03631400  0.43682600  0.01065000  1
  O  O9  1  0.98742900  0.46357100  0.44594100  1
  O  O10  1  0.46357100  0.01257100  0.44594100  1
  O  O11  1  0.01257100  0.53642900  0.44594100  1
  O  O12  1  0.46368600  0.93682600  0.48935000  1
  O  O13  1  0.53642900  0.98742900  0.44594100  1
  O  O14  1  0.98742900  0.53642900  0.55405900  1
  O  O15  1  0.46357100  0.98742900  0.55405900  1
  O  O16  1  0.01257100  0.46357100  0.55405900  1
  O  O17  1  0.53642900  0.01257100  0.55405900  1
  O  O18  1  0.48742900  0.96357100  0.94594100  1
  O  O19  1  0.96357100  0.51257100  0.94594100  1
  O  O20  1  0.51257100  0.03642900  0.94594100  1
  O  O21  1  0.03642900  0.48742900  0.94594100  1
  O  O22  1  0.48742900  0.03642900  0.05405900  1
  O  O23  1  0.93682600  0.53631400  0.48935000  1
  O  O24  1  0.96357100  0.48742900  0.05405900  1
  O  O25  1  0.51257100  0.96357100  0.05405900  1
  O  O26  1  0.03642900  0.51257100  0.05405900  1
  O  O27  1  0.48764500  0.56333800  0.46872900  1
  O  O28  1  0.56333800  0.51235500  0.46872900  1
  O  O29  1  0.51235500  0.43666200  0.46872900  1
  O  O30  1  0.43666200  0.48764500  0.46872900  1
  O  O31  1  0.48764500  0.43666200  0.53127100  1
  O  O32  1  0.56333800  0.48764500  0.53127100  1
  O  O33  1  0.51235500  0.56333800  0.53127100  1
  O  O34  1  0.53631400  0.06317400  0.48935000  1
  O  O35  1  0.43666200  0.51235500  0.53127100  1
  O  O36  1  0.98764500  0.06333800  0.96872900  1
  O  O37  1  0.06333800  0.01235500  0.96872900  1
  O  O38  1  0.01235500  0.93666200  0.96872900  1
  O  O39  1  0.93666200  0.98764500  0.96872900  1
  O  O40  1  0.98764500  0.93666200  0.03127100  1
  O  O41  1  0.06333800  0.98764500  0.03127100  1
  O  O42  1  0.01235500  0.06333800  0.03127100  1
  O  O43  1  0.93666200  0.01235500  0.03127100  1
  O  O44  1  0.13620200  0.56805900  0.53605000  1
  O  O45  1  0.06317400  0.53631400  0.51065000  1
  O  O46  1  0.56805900  0.86379800  0.53605000  1
  O  O47  1  0.86379800  0.43194100  0.53605000  1
  O  O48  1  0.43194100  0.13620200  0.53605000  1
  O  O49  1  0.13620200  0.43194100  0.46395000  1
  O  O50  1  0.56805900  0.13620200  0.46395000  1
  O  O51  1  0.86379800  0.56805900  0.46395000  1
  O  O52  1  0.43194100  0.86379800  0.46395000  1
  O  O53  1  0.63620200  0.06805900  0.03605000  1
  O  O54  1  0.06805900  0.36379800  0.03605000  1
  O  O55  1  0.36379800  0.93194100  0.03605000  1
  O  O56  1  0.46368600  0.06317400  0.51065000  1
  O  O57  1  0.93194100  0.63620200  0.03605000  1
  O  O58  1  0.63620200  0.93194100  0.96395000  1
  O  O59  1  0.06805900  0.63620200  0.96395000  1
  O  O60  1  0.36379800  0.06805900  0.96395000  1
  O  O61  1  0.93194100  0.36379800  0.96395000  1
  O  O62  1  0.93682600  0.46368600  0.51065000  1
  O  O63  1  0.53631400  0.93682600  0.51065000  1
  O  O64  1  0.56317400  0.96368600  0.98935000  1
