# generated using pymatgen
data_Zn2H15C37N5O12
_symmetry_space_group_name_H-M   'P 1'
_cell_length_a   18.98135500
_cell_length_b   8.54068700
_cell_length_c   9.28470500
_cell_angle_alpha   90.00000000
_cell_angle_beta   101.82607100
_cell_angle_gamma   90.00000000
_symmetry_Int_Tables_number   1
_chemical_formula_structural   Zn2H15C37N5O12
_chemical_formula_sum   'Zn2 H15 C37 N5 O12'
_cell_volume   1473.23034829
_cell_formula_units_Z   1
loop_
 _symmetry_equiv_pos_site_id
 _symmetry_equiv_pos_as_xyz
  1  'x, y, z'
loop_
 _atom_site_type_symbol
 _atom_site_label
 _atom_site_symmetry_multiplicity
 _atom_site_fract_x
 _atom_site_fract_y
 _atom_site_fract_z
 _atom_site_occupancy
  Zn  Zn1  1  0.50070600  0.49980700  0.83881300  1
  Zn  Zn2  1  0.49907200  0.50016800  0.15976400  1
  H  H1  1  0.97335500  0.25768600  0.28278100  1
  H  H2  1  0.90067100  0.74395800  0.73265100  1
  H  H3  1  0.09913200  0.25631200  0.26619200  1
  H  H4  1  0.02642400  0.74263600  0.71602900  1
  H  H5  1  0.26205400  0.74973800  0.97265400  1
  H  H6  1  0.26113900  0.25075300  0.96603800  1
  H  H7  1  0.73770900  0.25026400  0.02629200  1
  H  H8  1  0.73864900  0.74924500  0.03270800  1
  H  H9  1  0.44701400  0.00013900  0.91211400  1
  H  H10  1  0.55277400  0.99977300  0.08669100  1
  H  H11  1  0.38759700  0.50219500  0.58831000  1
  H  H12  1  0.66171800  0.60565900  0.69431900  1
  H  H13  1  0.66011100  0.38459600  0.69330200  1
  H  H14  1  0.65976500  0.60609400  0.43019800  1
  H  H15  1  0.65821200  0.38505600  0.42935500  1
  C  C1  1  0.84355200  0.91101200  0.92166600  1
  C  C2  1  0.86924700  0.09153000  0.11557100  1
  C  C3  1  0.94109300  0.09272200  0.10689400  1
  C  C4  1  0.91515900  0.90900700  0.91090100  1
  C  C5  1  0.96410400  0.00047900  0.00416600  1
  C  C6  1  0.99014800  0.18437600  0.20108600  1
  C  C7  1  0.93808400  0.81669400  0.80717000  1
  C  C8  1  0.06171500  0.18357200  0.19168100  1
  C  C9  1  0.00964300  0.81591200  0.79775100  1
  C  C10  1  0.08464500  0.09121700  0.08797400  1
  C  C11  1  0.05869900  0.90752100  0.89196700  1
  C  C12  1  0.03569400  0.99976700  0.99470200  1
  C  C13  1  0.15625700  0.08913900  0.07722600  1
  C  C14  1  0.13054200  0.90865200  0.88329700  1
  C  C15  1  0.28777600  0.85967900  0.95729100  1
  C  C16  1  0.28775200  0.14025900  0.95783100  1
  C  C17  1  0.35786600  0.86026100  0.93780000  1
  C  C18  1  0.35786600  0.13976000  0.93836100  1
  C  C19  1  0.39146500  0.00007400  0.92272500  1
  C  C20  1  0.25166000  0.99984500  0.96228500  1
  C  C21  1  0.71200600  0.14030700  0.04164900  1
  C  C22  1  0.71204900  0.85974400  0.04101700  1
  C  C23  1  0.64191200  0.13967100  0.06107400  1
  C  C24  1  0.64193700  0.86024100  0.06051100  1
  C  C25  1  0.60833300  0.99987900  0.07617900  1
  C  C26  1  0.74814200  0.00017800  0.03665300  1
  C  C27  1  0.40171100  0.71853700  0.95642700  1
  C  C28  1  0.40161500  0.28162900  0.95648900  1
  C  C29  1  0.59815500  0.71846600  0.04224500  1
  C  C30  1  0.59804300  0.28130400  0.04230600  1
  C  C31  1  0.55921900  0.49889000  0.45187700  1
  C  C32  1  0.43652900  0.50134700  0.39922800  1
  C  C33  1  0.43781000  0.50124800  0.55057200  1
  C  C34  1  0.56035600  0.49865100  0.59369700  1
  C  C35  1  0.63984300  0.49594400  0.63862700  1
  C  C36  1  0.63853200  0.49621300  0.46865200  1
  C  C37  1  0.36858800  0.50244900  0.29724500  1
  N  N1  1  0.82177900  0.00104800  0.02376700  1
  N  N2  1  0.17802100  0.99905900  0.97514200  1
  N  N3  1  0.49856700  0.50016100  0.34882700  1
  N  N4  1  0.50091700  0.49983900  0.64976600  1
  N  N5  1  0.31381000  0.50340500  0.21501600  1
  O  O1  1  0.79509500  0.82645500  0.82730700  1
  O  O2  1  0.84687700  0.17716500  0.21902200  1
  O  O3  1  0.20472700  0.17365800  0.17159100  1
  O  O4  1  0.15290100  0.82301200  0.77983400  1
  O  O5  1  0.42565800  0.66867300  0.09114300  1
  O  O6  1  0.42555000  0.33189000  0.09109100  1
  O  O7  1  0.42467400  0.66369800  0.84233400  1
  O  O8  1  0.42463700  0.33599200  0.84228800  1
  O  O9  1  0.57416700  0.66855300  0.90741200  1
  O  O10  1  0.57410100  0.33091700  0.90735300  1
  O  O11  1  0.57505300  0.66425500  0.15654100  1
  O  O12  1  0.57498400  0.33593900  0.15650000  1
