# generated using pymatgen
data_Cu3H20C48(NO5)4
_symmetry_space_group_name_H-M   'P 1'
_cell_length_a   38.55328100
_cell_length_b   38.55328100
_cell_length_c   28.75500000
_cell_angle_alpha   90.00000000
_cell_angle_beta   90.00000000
_cell_angle_gamma   90.00000000
_symmetry_Int_Tables_number   1
_chemical_formula_structural   Cu3H20C48(NO5)4
_chemical_formula_sum   'Cu12 H80 C192 N16 O80'
_cell_volume   42740.15170850
_cell_formula_units_Z   4
loop_
 _symmetry_equiv_pos_site_id
 _symmetry_equiv_pos_as_xyz
  1  'x, y, z'
loop_
 _atom_site_type_symbol
 _atom_site_label
 _atom_site_symmetry_multiplicity
 _atom_site_fract_x
 _atom_site_fract_y
 _atom_site_fract_z
 _atom_site_occupancy
  Cu  Cu1  1  0.50000000  0.03393300  0.50000000  1
  Cu  Cu2  1  0.96606700  0.50000000  0.50000000  1
  Cu  Cu3  1  0.50000000  0.96606700  0.50000000  1
  Cu  Cu4  1  0.03393300  0.50000000  0.50000000  1
  Cu  Cu5  1  0.00000000  0.53393300  0.00000000  1
  Cu  Cu6  1  0.46606700  0.00000000  0.00000000  1
  Cu  Cu7  1  0.00000000  0.46606700  0.00000000  1
  Cu  Cu8  1  0.53393300  0.00000000  0.00000000  1
  Cu  Cu9  1  0.00000000  0.00000000  0.54555000  1
  Cu  Cu10  1  0.00000000  0.00000000  0.45445000  1
  Cu  Cu11  1  0.50000000  0.50000000  0.04555000  1
  Cu  Cu12  1  0.50000000  0.50000000  0.95445000  1
  H  H1  1  0.89167800  0.00036000  0.42561100  1
  H  H2  1  0.99964000  0.89167800  0.42561100  1
  H  H3  1  0.10832300  0.99964000  0.42561100  1
  H  H4  1  0.00036000  0.10832300  0.42561100  1
  H  H5  1  0.10832300  0.00036000  0.57438900  1
  H  H6  1  0.00036000  0.89167800  0.57438900  1
  H  H7  1  0.89167800  0.99964000  0.57438900  1
  H  H8  1  0.99964000  0.10832300  0.57438900  1
  H  H9  1  0.39167800  0.50036000  0.92561100  1
  H  H10  1  0.49964000  0.39167800  0.92561100  1
  H  H11  1  0.60832200  0.49964000  0.92561100  1
  H  H12  1  0.50036000  0.60832300  0.92561100  1
  H  H13  1  0.60832200  0.50036000  0.07438900  1
  H  H14  1  0.50036000  0.39167800  0.07438900  1
  H  H15  1  0.39167700  0.49964000  0.07438900  1
  H  H16  1  0.49964000  0.60832300  0.07438900  1
  H  H17  1  0.82848900  0.00112200  0.42585900  1
  H  H18  1  0.99887900  0.82848900  0.42585900  1
  H  H19  1  0.17151200  0.99887900  0.42585900  1
  H  H20  1  0.00112200  0.17151200  0.42585900  1
  H  H21  1  0.17151200  0.00112200  0.57414100  1
  H  H22  1  0.00112200  0.82848900  0.57414000  1
  H  H23  1  0.82848900  0.99887900  0.57414000  1
  H  H24  1  0.99887900  0.17151200  0.57414000  1
  H  H25  1  0.32848900  0.50112100  0.92585900  1
  H  H26  1  0.49887900  0.32848900  0.92585900  1
  H  H27  1  0.67151200  0.49887900  0.92585900  1
  H  H28  1  0.50112200  0.67151200  0.92585900  1
  H  H29  1  0.67151200  0.50112100  0.07414000  1
  H  H30  1  0.50112100  0.32848900  0.07414000  1
  H  H31  1  0.32848900  0.49887900  0.07414000  1
  H  H32  1  0.49887900  0.67151200  0.07414000  1
  H  H33  1  0.71833800  0.04518600  0.54249400  1
  H  H34  1  0.95481400  0.71833800  0.54249400  1
  H  H35  1  0.28166300  0.95481400  0.54249400  1
  H  H36  1  0.04518600  0.28166300  0.54249400  1
  H  H37  1  0.28166300  0.04518600  0.45750600  1
  H  H38  1  0.04518600  0.71833800  0.45750600  1
  H  H39  1  0.71833800  0.95481400  0.45750600  1
  H  H40  1  0.95481400  0.28166300  0.45750600  1
  H  H41  1  0.21833800  0.54518600  0.04249400  1
  H  H42  1  0.45481400  0.21833700  0.04249400  1
  H  H43  1  0.78166300  0.45481400  0.04249400  1
  H  H44  1  0.54518600  0.78166300  0.04249400  1
  H  H45  1  0.78166300  0.54518600  0.95750600  1
  H  H46  1  0.54518600  0.21833700  0.95750600  1
  H  H47  1  0.21833800  0.45481400  0.95750600  1
  H  H48  1  0.45481400  0.78166300  0.95750600  1
  H  H49  1  0.67087100  0.94447700  0.50256100  1
  H  H50  1  0.05552300  0.67087100  0.50256100  1
  H  H51  1  0.32912900  0.05552300  0.50256100  1
  H  H52  1  0.94447800  0.32912900  0.50256100  1
  H  H53  1  0.32912900  0.94447800  0.49743900  1
  H  H54  1  0.94447800  0.67087100  0.49743900  1
  H  H55  1  0.67087100  0.05552300  0.49743900  1
  H  H56  1  0.05552300  0.32912900  0.49743900  1
  H  H57  1  0.17087100  0.44447800  0.00256100  1
  H  H58  1  0.55552300  0.17087100  0.00256100  1
  H  H59  1  0.82912900  0.55552300  0.00256100  1
  H  H60  1  0.44447800  0.82912900  0.00256100  1
  H  H61  1  0.82912900  0.44447800  0.99743900  1
  H  H62  1  0.44447800  0.17087100  0.99743900  1
  H  H63  1  0.17087100  0.55552300  0.99743900  1
  H  H64  1  0.55552300  0.82912900  0.99743900  1
  H  H65  1  0.60821800  0.94458500  0.50088000  1
  H  H66  1  0.05541500  0.60821800  0.50088000  1
  H  H67  1  0.39178200  0.05541600  0.50088000  1
  H  H68  1  0.94458500  0.39178200  0.50088000  1
  H  H69  1  0.39178200  0.94458500  0.49912000  1
  H  H70  1  0.94458500  0.60821800  0.49912000  1
  H  H71  1  0.60821800  0.05541500  0.49912000  1
  H  H72  1  0.05541600  0.39178200  0.49912000  1
  H  H73  1  0.10821800  0.44458500  0.00088000  1
  H  H74  1  0.55541500  0.10821800  0.00088000  1
  H  H75  1  0.89178200  0.55541500  0.00088000  1
  H  H76  1  0.44458500  0.89178200  0.00088000  1
  H  H77  1  0.89178200  0.44458500  0.99912000  1
  H  H78  1  0.44458500  0.10821800  0.99912000  1
  H  H79  1  0.10821800  0.55541500  0.99912000  1
  H  H80  1  0.55541500  0.89178200  0.99912000  1
  C  C1  1  0.56578700  0.00000000  0.50000000  1
  C  C2  1  0.00000000  0.56578700  0.50000000  1
  C  C3  1  0.43421300  0.00000000  0.50000000  1
  C  C4  1  0.00000000  0.43421300  0.50000000  1
  C  C5  1  0.06578700  0.50000000  0.00000000  1
  C  C6  1  0.50000000  0.06578700  0.00000000  1
  C  C7  1  0.93421300  0.50000000  0.00000000  1
  C  C8  1  0.50000000  0.93421300  0.00000000  1
  C  C9  1  0.50000000  0.00000000  0.58810200  1
  C  C10  1  0.00000000  0.50000000  0.58810200  1
  C  C11  1  0.50000000  0.00000000  0.41189800  1
  C  C12  1  0.00000000  0.50000000  0.41189800  1
  C  C13  1  0.00000000  0.50000000  0.08810200  1
  C  C14  1  0.50000000  0.00000000  0.08810200  1
  C  C15  1  0.00000000  0.50000000  0.91189700  1
  C  C16  1  0.50000000  0.00000000  0.91189800  1
  C  C17  1  0.50000000  0.00000000  0.63800700  1
  C  C18  1  0.00000000  0.50000000  0.63800700  1
  C  C19  1  0.50000000  0.00000000  0.36199300  1
  C  C20  1  0.00000000  0.50000000  0.36199200  1
  C  C21  1  0.00000000  0.50000000  0.13800700  1
  C  C22  1  0.50000000  0.00000000  0.13800700  1
  C  C23  1  0.00000000  0.50000000  0.86199200  1
  C  C24  1  0.50000000  0.00000000  0.86199200  1
  C  C25  1  0.50000000  0.00000000  0.67992100  1
  C  C26  1  0.00000000  0.50000000  0.67992100  1
  C  C27  1  0.50000000  0.00000000  0.32007900  1
  C  C28  1  0.00000000  0.50000000  0.32007900  1
  C  C29  1  0.00000000  0.50000000  0.17992100  1
  C  C30  1  0.50000000  0.00000000  0.17992100  1
  C  C31  1  0.00000000  0.50000000  0.82007900  1
  C  C32  1  0.50000000  0.00000000  0.82007900  1
  C  C33  1  0.50000000  0.00000000  0.72904200  1
  C  C34  1  0.00000000  0.50000000  0.72904100  1
  C  C35  1  0.50000000  0.00000000  0.27095800  1
  C  C36  1  0.00000000  0.50000000  0.27095800  1
  C  C37  1  0.00000000  0.50000000  0.22904200  1
  C  C38  1  0.50000000  0.00000000  0.22904200  1
  C  C39  1  0.00000000  0.50000000  0.77095800  1
  C  C40  1  0.50000000  0.00000000  0.77095800  1
  C  C41  1  0.87809700  0.00001700  0.45847700  1
  C  C42  1  0.99998400  0.87809700  0.45847700  1
  C  C43  1  0.12190400  0.99998400  0.45847700  1
  C  C44  1  0.00001700  0.12190400  0.45847700  1
  C  C45  1  0.12190400  0.00001700  0.54152300  1
  C  C46  1  0.00001700  0.87809700  0.54152300  1
  C  C47  1  0.87809700  0.99998400  0.54152300  1
  C  C48  1  0.99998400  0.12190400  0.54152300  1
  C  C49  1  0.37809700  0.50001700  0.95847700  1
  C  C50  1  0.49998400  0.37809700  0.95847600  1
  C  C51  1  0.62190400  0.49998400  0.95847600  1
  C  C52  1  0.50001700  0.62190300  0.95847700  1
  C  C53  1  0.62190400  0.50001700  0.04152300  1
  C  C54  1  0.50001700  0.37809700  0.04152300  1
  C  C55  1  0.37809700  0.49998400  0.04152300  1
  C  C56  1  0.49998400  0.62190300  0.04152300  1
  C  C57  1  0.84235700  0.00045200  0.45851600  1
  C  C58  1  0.99954800  0.84235700  0.45851600  1
  C  C59  1  0.15764400  0.99954800  0.45851600  1
  C  C60  1  0.00045200  0.15764400  0.45851600  1
  C  C61  1  0.15764400  0.00045200  0.54148400  1
  C  C62  1  0.00045200  0.84235700  0.54148400  1
  C  C63  1  0.84235700  0.99954800  0.54148400  1
  C  C64  1  0.99954800  0.15764400  0.54148400  1
  C  C65  1  0.34235700  0.50045200  0.95851600  1
  C  C66  1  0.49954800  0.34235700  0.95851600  1
  C  C67  1  0.65764400  0.49954800  0.95851600  1
  C  C68  1  0.50045200  0.65764400  0.95851600  1
  C  C69  1  0.65764400  0.50045200  0.04148300  1
  C  C70  1  0.50045200  0.34235700  0.04148300  1
  C  C71  1  0.34235700  0.49954800  0.04148300  1
  C  C72  1  0.49954800  0.65764400  0.04148300  1
  C  C73  1  0.82432700  0.00000000  0.50000000  1
  C  C74  1  0.00000000  0.82432700  0.50000000  1
  C  C75  1  0.17567300  0.00000000  0.50000000  1
  C  C76  1  0.00000000  0.17567300  0.50000000  1
  C  C77  1  0.32432700  0.50000000  0.00000000  1
  C  C78  1  0.50000000  0.32432700  0.00000000  1
  C  C79  1  0.67567300  0.50000000  0.00000000  1
  C  C80  1  0.50000000  0.67567300  0.00000000  1
  C  C81  1  0.89613300  0.00000000  0.50000000  1
  C  C82  1  0.00000000  0.89613300  0.50000000  1
  C  C83  1  0.10386700  0.00000000  0.50000000  1
  C  C84  1  0.00000000  0.10386700  0.50000000  1
  C  C85  1  0.39613300  0.50000000  0.00000000  1
  C  C86  1  0.50000000  0.39613300  0.00000000  1
  C  C87  1  0.60386700  0.50000000  0.00000000  1
  C  C88  1  0.50000000  0.60386700  0.00000000  1
  C  C89  1  0.76800100  0.02623500  0.52256200  1
  C  C90  1  0.97376500  0.76800100  0.52256200  1
  C  C91  1  0.23199900  0.97376500  0.52256200  1
  C  C92  1  0.02623500  0.23199900  0.52256200  1
  C  C93  1  0.23199900  0.02623500  0.47743800  1
  C  C94  1  0.02623500  0.76800100  0.47743800  1
  C  C95  1  0.76800100  0.97376500  0.47743800  1
  C  C96  1  0.97376500  0.23199900  0.47743800  1
  C  C97  1  0.26800100  0.52623500  0.02256200  1
  C  C98  1  0.47376500  0.26800100  0.02256200  1
  C  C99  1  0.73199900  0.47376500  0.02256200  1
  C  C100  1  0.52623500  0.73199900  0.02256200  1
  C  C101  1  0.73199900  0.52623500  0.97743800  1
  C  C102  1  0.52623500  0.26800100  0.97743800  1
  C  C103  1  0.26800100  0.47376500  0.97743800  1
  C  C104  1  0.47376500  0.73199900  0.97743800  1
  C  C105  1  0.73219200  0.02536400  0.52360100  1
  C  C106  1  0.97463600  0.73219200  0.52360100  1
  C  C107  1  0.26780900  0.97463600  0.52360100  1
  C  C108  1  0.02536400  0.26780900  0.52360100  1
  C  C109  1  0.26780900  0.02536400  0.47639900  1
  C  C110  1  0.02536400  0.73219200  0.47639900  1
  C  C111  1  0.73219200  0.97463600  0.47639900  1
  C  C112  1  0.97463600  0.26780900  0.47639900  1
  C  C113  1  0.23219100  0.52536400  0.02360100  1
  C  C114  1  0.47463600  0.23219100  0.02360100  1
  C  C115  1  0.76780900  0.47463600  0.02360100  1
  C  C116  1  0.52536400  0.76780900  0.02360100  1
  C  C117  1  0.76780900  0.52536400  0.97639900  1
  C  C118  1  0.52536400  0.23219100  0.97639900  1
  C  C119  1  0.23219100  0.47463600  0.97639900  1
  C  C120  1  0.47463600  0.76780900  0.97639900  1
  C  C121  1  0.71404000  0.00000000  0.50000000  1
  C  C122  1  0.00000000  0.71404000  0.50000000  1
  C  C123  1  0.28596000  0.00000000  0.50000000  1
  C  C124  1  0.00000000  0.28596000  0.50000000  1
  C  C125  1  0.21404000  0.50000000  0.00000000  1
  C  C126  1  0.50000000  0.21404000  0.00000000  1
  C  C127  1  0.78596000  0.50000000  0.00000000  1
  C  C128  1  0.50000000  0.78596000  0.00000000  1
  C  C129  1  0.78624300  0.00000000  0.50000000  1
  C  C130  1  0.00000000  0.78624300  0.50000000  1
  C  C131  1  0.21375700  0.00000000  0.50000000  1
  C  C132  1  0.00000000  0.21375700  0.50000000  1
  C  C133  1  0.28624300  0.50000000  0.00000000  1
  C  C134  1  0.50000000  0.28624300  0.00000000  1
  C  C135  1  0.71375700  0.50000000  0.00000000  1
  C  C136  1  0.50000000  0.71375700  0.00000000  1
  C  C137  1  0.65755300  0.96907900  0.50065100  1
  C  C138  1  0.03092100  0.65755300  0.50065100  1
  C  C139  1  0.34244700  0.03092100  0.50065100  1
  C  C140  1  0.96907900  0.34244700  0.50065100  1
  C  C141  1  0.34244700  0.96907900  0.49934900  1
  C  C142  1  0.96907900  0.65755300  0.49934900  1
  C  C143  1  0.65755300  0.03092100  0.49934900  1
  C  C144  1  0.03092100  0.34244700  0.49934900  1
  C  C145  1  0.15755300  0.46907900  0.00065100  1
  C  C146  1  0.53092100  0.15755300  0.00065100  1
  C  C147  1  0.84244700  0.53092100  0.00065100  1
  C  C148  1  0.46907900  0.84244700  0.00065100  1
  C  C149  1  0.84244700  0.46907900  0.99934900  1
  C  C150  1  0.46907900  0.15755300  0.99934900  1
  C  C151  1  0.15755300  0.53092100  0.99934900  1
  C  C152  1  0.53092100  0.84244700  0.99934900  1
  C  C153  1  0.62180600  0.96909000  0.50011100  1
  C  C154  1  0.03091000  0.62180600  0.50011100  1
  C  C155  1  0.37819400  0.03091000  0.50011100  1
  C  C156  1  0.96909000  0.37819400  0.50011100  1
  C  C157  1  0.37819400  0.96909000  0.49988900  1
  C  C158  1  0.96909000  0.62180600  0.49988900  1
  C  C159  1  0.62180600  0.03091000  0.49988900  1
  C  C160  1  0.03091000  0.37819400  0.49988900  1
  C  C161  1  0.12180600  0.46909000  0.00011100  1
  C  C162  1  0.53091000  0.12180600  0.00011100  1
  C  C163  1  0.87819400  0.53091000  0.00011100  1
  C  C164  1  0.46909000  0.87819400  0.00011100  1
  C  C165  1  0.87819400  0.46909000  0.99988900  1
  C  C166  1  0.46909000  0.12180600  0.99988900  1
  C  C167  1  0.12180600  0.53091000  0.99988900  1
  C  C168  1  0.53091000  0.87819400  0.99988900  1
  C  C169  1  0.60375500  0.00000000  0.50000000  1
  C  C170  1  0.00000000  0.60375500  0.50000000  1
  C  C171  1  0.39624500  0.00000000  0.50000000  1
  C  C172  1  0.00000000  0.39624500  0.50000000  1
  C  C173  1  0.10375500  0.50000000  0.00000000  1
  C  C174  1  0.50000000  0.10375500  0.00000000  1
  C  C175  1  0.89624500  0.50000000  0.00000000  1
  C  C176  1  0.50000000  0.89624500  0.00000000  1
  C  C177  1  0.67580600  0.00000000  0.50000000  1
  C  C178  1  0.00000000  0.67580600  0.50000000  1
  C  C179  1  0.32419500  0.00000000  0.50000000  1
  C  C180  1  0.00000000  0.32419500  0.50000000  1
  C  C181  1  0.17580600  0.50000000  0.00000000  1
  C  C182  1  0.50000000  0.17580600  0.00000000  1
  C  C183  1  0.82419500  0.50000000  0.00000000  1
  C  C184  1  0.50000000  0.82419500  0.00000000  1
  C  C185  1  0.00000000  0.93409800  0.50000000  1
  C  C186  1  0.06590300  0.00000000  0.50000000  1
  C  C187  1  0.00000000  0.06590300  0.50000000  1
  C  C188  1  0.93409800  0.00000000  0.50000000  1
  C  C189  1  0.50000000  0.43409800  0.00000000  1
  C  C190  1  0.56590300  0.50000000  0.00000000  1
  C  C191  1  0.50000000  0.56590300  0.00000000  1
  C  C192  1  0.43409800  0.50000000  0.00000000  1
  N  N1  1  0.78544600  0.05492300  0.54376400  1
  N  N2  1  0.94507800  0.78544600  0.54376400  1
  N  N3  1  0.21455400  0.94507800  0.54376400  1
  N  N4  1  0.05492300  0.21455400  0.54376400  1
  N  N5  1  0.21455400  0.05492300  0.45623600  1
  N  N6  1  0.05492300  0.78544600  0.45623600  1
  N  N7  1  0.78544600  0.94507700  0.45623600  1
  N  N8  1  0.94507800  0.21455400  0.45623600  1
  N  N9  1  0.28544600  0.55492300  0.04376400  1
  N  N10  1  0.44507700  0.28544600  0.04376400  1
  N  N11  1  0.71455400  0.44507700  0.04376400  1
  N  N12  1  0.55492300  0.71455400  0.04376400  1
  N  N13  1  0.71455400  0.55492300  0.95623600  1
  N  N14  1  0.55492300  0.28544600  0.95623600  1
  N  N15  1  0.28544600  0.44507800  0.95623600  1
  N  N16  1  0.44507800  0.71455400  0.95623600  1
  O  O1  1  0.54951900  0.02867300  0.51252000  1
  O  O2  1  0.97132700  0.54951900  0.51252000  1
  O  O3  1  0.45048100  0.97132700  0.51252000  1
  O  O4  1  0.02867300  0.45048100  0.51252000  1
  O  O5  1  0.45048100  0.02867300  0.48748000  1
  O  O6  1  0.02867300  0.54951900  0.48748000  1
  O  O7  1  0.54951900  0.97132700  0.48748000  1
  O  O8  1  0.97132700  0.45048100  0.48748000  1
  O  O9  1  0.04951900  0.52867300  0.01252000  1
  O  O10  1  0.47132700  0.04951900  0.01252000  1
  O  O11  1  0.95048100  0.47132700  0.01252000  1
  O  O12  1  0.52867300  0.95048100  0.01252000  1
  O  O13  1  0.95048100  0.52867300  0.98748000  1
  O  O14  1  0.52867300  0.04951900  0.98748000  1
  O  O15  1  0.04951900  0.47132700  0.98748000  1
  O  O16  1  0.47132700  0.95048100  0.98748000  1
  O  O17  1  0.49065700  0.02869000  0.56640000  1
  O  O18  1  0.97131100  0.49065700  0.56640000  1
  O  O19  1  0.50934300  0.97131100  0.56640000  1
  O  O20  1  0.02869000  0.50934300  0.56640000  1
  O  O21  1  0.50934300  0.02869000  0.43360000  1
  O  O22  1  0.02869000  0.49065700  0.43360000  1
  O  O23  1  0.49065700  0.97131100  0.43360000  1
  O  O24  1  0.97131100  0.50934300  0.43360000  1
  O  O25  1  0.99065700  0.52869000  0.06640000  1
  O  O26  1  0.47131100  0.99065700  0.06640000  1
  O  O27  1  0.00934300  0.47131100  0.06640000  1
  O  O28  1  0.52869000  0.00934300  0.06640000  1
  O  O29  1  0.00934300  0.52869000  0.93360000  1
  O  O30  1  0.52869000  0.99065700  0.93360000  1
  O  O31  1  0.99065700  0.47131100  0.93360000  1
  O  O32  1  0.47131100  0.00934300  0.93360000  1
  O  O33  1  0.99084600  0.95037100  0.53846900  1
  O  O34  1  0.04962900  0.99084600  0.53846900  1
  O  O35  1  0.00915400  0.04962900  0.53846900  1
  O  O36  1  0.95037100  0.00915400  0.53846900  1
  O  O37  1  0.00915400  0.95037100  0.46153000  1
  O  O38  1  0.95037100  0.99084600  0.46153000  1
  O  O39  1  0.99084600  0.04962900  0.46153000  1
  O  O40  1  0.04962900  0.00915400  0.46153000  1
  O  O41  1  0.49084600  0.45037100  0.03846900  1
  O  O42  1  0.54962900  0.49084600  0.03846900  1
  O  O43  1  0.50915400  0.54962900  0.03846900  1
  O  O44  1  0.45037100  0.50915400  0.03846900  1
  O  O45  1  0.50915400  0.45037100  0.96153000  1
  O  O46  1  0.45037100  0.49084600  0.96153000  1
  O  O47  1  0.49084600  0.54962900  0.96153000  1
  O  O48  1  0.54962900  0.50915400  0.96153000  1
  O  O49  1  0.77084900  0.07095800  0.57839400  1
  O  O50  1  0.81147500  0.06962700  0.52278700  1
  O  O51  1  0.92904200  0.77084900  0.57839400  1
  O  O52  1  0.93037300  0.81147600  0.52278700  1
  O  O53  1  0.22915200  0.92904200  0.57839400  1
  O  O54  1  0.18852500  0.93037300  0.52278700  1
  O  O55  1  0.07095800  0.22915200  0.57839400  1
  O  O56  1  0.06962700  0.18852500  0.52278700  1
  O  O57  1  0.22915200  0.07095800  0.42160600  1
  O  O58  1  0.18852500  0.06962700  0.47721300  1
  O  O59  1  0.07095800  0.77084900  0.42160600  1
  O  O60  1  0.06962700  0.81147600  0.47721300  1
  O  O61  1  0.77084900  0.92904200  0.42160600  1
  O  O62  1  0.81147600  0.93037300  0.47721300  1
  O  O63  1  0.92904200  0.22915200  0.42160600  1
  O  O64  1  0.93037300  0.18852500  0.47721300  1
  O  O65  1  0.27084900  0.57095800  0.07839400  1
  O  O66  1  0.31147500  0.56962700  0.02278700  1
  O  O67  1  0.42904200  0.27084900  0.07839400  1
  O  O68  1  0.43037300  0.31147500  0.02278700  1
  O  O69  1  0.72915100  0.42904200  0.07839400  1
  O  O70  1  0.68852500  0.43037300  0.02278700  1
  O  O71  1  0.57095800  0.72915100  0.07839400  1
  O  O72  1  0.56962700  0.68852500  0.02278700  1
  O  O73  1  0.72915100  0.57095800  0.92160600  1
  O  O74  1  0.68852500  0.56962700  0.97721300  1
  O  O75  1  0.57095800  0.27084900  0.92160600  1
  O  O76  1  0.56962700  0.31147500  0.97721300  1
  O  O77  1  0.27084900  0.42904200  0.92160600  1
  O  O78  1  0.31147500  0.43037300  0.97721300  1
  O  O79  1  0.42904200  0.72915100  0.92160600  1
  O  O80  1  0.43037300  0.68852500  0.97721300  1
