# generated using pymatgen
data_ZnH42C34(NO3)2
_symmetry_space_group_name_H-M   'P 1'
_cell_length_a   10.44062100
_cell_length_b   11.62560000
_cell_length_c   23.45723000
_cell_angle_alpha   90.00807300
_cell_angle_beta   80.35101700
_cell_angle_gamma   92.47017600
_symmetry_Int_Tables_number   1
_chemical_formula_structural   ZnH42C34(NO3)2
_chemical_formula_sum   'Zn2 H84 C68 N4 O12'
_cell_volume   2804.24318600
_cell_formula_units_Z   2
loop_
 _symmetry_equiv_pos_site_id
 _symmetry_equiv_pos_as_xyz
  1  'x, y, z'
loop_
 _atom_site_type_symbol
 _atom_site_label
 _atom_site_symmetry_multiplicity
 _atom_site_fract_x
 _atom_site_fract_y
 _atom_site_fract_z
 _atom_site_occupancy
  Zn  Zn1  1  0.34227500  0.51471300  0.50868500  1
  Zn  Zn2  1  0.63444700  0.48895100  0.49557200  1
  H  H1  1  0.51559600  0.78544700  0.05043300  1
  H  H2  1  0.41905200  0.21603000  0.95704600  1
  H  H3  1  0.58283400  0.35172300  0.78398900  1
  H  H4  1  0.67841100  0.62164700  0.19949800  1
  H  H5  1  0.33104700  0.62051200  0.69100600  1
  H  H6  1  0.35247800  0.39577100  0.33353100  1
  H  H7  1  0.31794000  0.62292900  0.79569100  1
  H  H8  1  0.34187200  0.39505800  0.23106200  1
  H  H9  1  0.32216900  0.13205600  0.51358900  1
  H  H10  1  0.65104100  0.87673400  0.49939500  1
  H  H11  1  0.12149600  0.58660500  0.55212300  1
  H  H12  1  0.85511700  0.41556700  0.45300500  1
  H  H13  1  0.45884000  0.88578900  0.97820200  1
  H  H14  1  0.43043500  0.82776700  0.91225600  1
  H  H15  1  0.68582700  0.79812100  0.89162800  1
  H  H16  1  0.68948300  0.88453300  0.95497800  1
  H  H17  1  0.58057200  0.04091200  0.91032100  1
  H  H18  1  0.58264500  0.95448000  0.84606200  1
  H  H19  1  0.82154700  0.03997900  0.89743500  1
  H  H20  1  0.76770800  0.09731400  0.83426200  1
  H  H21  1  0.82391400  0.95228300  0.83342500  1
  H  H22  1  0.38654000  0.11634700  0.03845600  1
  H  H23  1  0.38148500  0.17776700  0.10704700  1
  H  H24  1  0.64529900  0.19711300  0.07113000  1
  H  H25  1  0.60815600  0.09107100  0.01992500  1
  H  H26  1  0.49062300  0.96802600  0.10205600  1
  H  H27  1  0.53726100  0.07272000  0.15251700  1
  H  H28  1  0.72373800  0.94049100  0.06303200  1
  H  H29  1  0.68849700  0.91398900  0.14011900  1
  H  H30  1  0.77057700  0.04766700  0.11260100  1
  H  H31  1  0.68672400  0.29444900  0.67969200  1
  H  H32  1  0.57603700  0.29450000  0.62862300  1
  H  H33  1  0.40528300  0.19707700  0.70637300  1
  H  H34  1  0.53668000  0.17254800  0.74575000  1
  H  H35  1  0.65697900  0.07776000  0.65773900  1
  H  H36  1  0.51608500  0.09317000  0.62291000  1
  H  H37  1  0.52224000  0.96245200  0.73615800  1
  H  H38  1  0.51320000  0.90006300  0.66630600  1
  H  H39  1  0.37979200  0.98081700  0.70287300  1
  H  H40  1  0.80010000  0.65149200  0.28241700  1
  H  H41  1  0.70810600  0.65852400  0.35369200  1
  H  H42  1  0.56685800  0.80233700  0.32014400  1
  H  H43  1  0.66740600  0.80254500  0.24944800  1
  H  H44  1  0.86175200  0.85837200  0.29396800  1
  H  H45  1  0.75879400  0.86324400  0.36402800  1
  H  H46  1  0.73380500  0.00783100  0.25694200  1
  H  H47  1  0.79828200  0.05733000  0.31991900  1
  H  H48  1  0.62852700  0.01199700  0.32659500  1
  H  H49  1  0.66012400  0.16560000  0.44002500  1
  H  H50  1  0.68732300  0.02002100  0.43981300  1
  H  H51  1  0.71476700  0.03499400  0.54759900  1
  H  H52  1  0.70875600  0.18809000  0.53968800  1
  H  H53  1  0.89139500  0.17815000  0.45397600  1
  H  H54  1  0.90174000  0.02776200  0.47057500  1
  H  H55  1  0.93436100  0.23073100  0.55188200  1
  H  H56  1  0.06215900  0.14520300  0.51431000  1
  H  H57  1  0.93991100  0.07974300  0.56995300  1
  H  H58  1  0.26264300  0.97314400  0.54825300  1
  H  H59  1  0.29345600  0.83223700  0.54706900  1
  H  H60  1  0.32620800  0.83868400  0.43438200  1
  H  H61  1  0.26959900  0.98313300  0.44182000  1
  H  H62  1  0.06490200  0.90709800  0.50407500  1
  H  H63  1  0.12266500  0.76324400  0.49390300  1
  H  H64  1  0.07844600  0.92680700  0.39695700  1
  H  H65  1  0.97238800  0.80626000  0.42614500  1
  H  H66  1  0.13417600  0.78150600  0.38816400  1
  H  H67  1  0.04123000  0.33311900  0.44488400  1
  H  H68  1  0.20043300  0.39280000  0.43707000  1
  H  H69  1  0.17417500  0.52914400  0.36836900  1
  H  H70  1  0.00311800  0.53796700  0.39247400  1
  H  H71  1  0.96250800  0.34265200  0.35465400  1
  H  H72  1  0.13480800  0.32926400  0.33122100  1
  H  H73  1  0.96160900  0.50857900  0.29048100  1
  H  H74  1  0.03152200  0.38789700  0.24986900  1
  H  H75  1  0.13581700  0.50551400  0.26835900  1
  H  H76  1  0.77679400  0.61738200  0.56395700  1
  H  H77  1  0.93776200  0.67295100  0.55963200  1
  H  H78  1  0.97949400  0.49773500  0.62108900  1
  H  H79  1  0.81208500  0.45364400  0.62376700  1
  H  H80  1  0.74009600  0.62930700  0.67378200  1
  H  H81  1  0.90485100  0.69012500  0.66383400  1
  H  H82  1  0.81084900  0.46779300  0.73162200  1
  H  H83  1  0.82963200  0.60830300  0.76310500  1
  H  H84  1  0.97013400  0.53939200  0.72461700  1
  C  C1  1  0.52365000  0.72700200  0.50569800  1
  C  C2  1  0.45262500  0.27699800  0.49852200  1
  C  C3  1  0.47018600  0.48838600  0.61470300  1
  C  C4  1  0.50658500  0.51478600  0.38950700  1
  C  C5  1  0.49675000  0.40329500  0.12079900  1
  C  C6  1  0.48037500  0.59526800  0.88231400  1
  C  C7  1  0.50403100  0.60478300  0.11765800  1
  C  C8  1  0.43125900  0.39688800  0.89009600  1
  C  C9  1  0.49774400  0.60284500  0.05934000  1
  C  C10  1  0.44631400  0.39809500  0.94741000  1
  C  C11  1  0.48174000  0.49991300  0.03198300  1
  C  C12  1  0.47006300  0.50042700  0.97388300  1
  C  C13  1  0.47770500  0.39741600  0.06302100  1
  C  C14  1  0.48172000  0.60234600  0.94193800  1
  C  C15  1  0.50356200  0.70475200  0.02889200  1
  C  C16  1  0.43685700  0.29624900  0.97814700  1
  C  C17  1  0.49675800  0.70673700  0.97071900  1
  C  C18  1  0.45437300  0.29347600  0.03510500  1
  C  C19  1  0.52467900  0.40889400  0.76375400  1
  C  C20  1  0.60478100  0.57402200  0.22925300  1
  C  C21  1  0.52329900  0.39957200  0.70514600  1
  C  C22  1  0.60593300  0.58161100  0.28816700  1
  C  C23  1  0.45896900  0.48061100  0.67790400  1
  C  C24  1  0.51445200  0.51562100  0.32636000  1
  C  C25  1  0.38404700  0.55892500  0.71131700  1
  C  C26  1  0.42226600  0.44837200  0.30454700  1
  C  C27  1  0.37837600  0.56163500  0.77049600  1
  C  C28  1  0.41806400  0.44615200  0.24631600  1
  C  C29  1  0.45190400  0.48867600  0.79695000  1
  C  C30  1  0.50997000  0.50825100  0.20800400  1
  C  C31  1  0.54860700  0.85415200  0.50467700  1
  C  C32  1  0.42480000  0.15076600  0.50220400  1
  C  C33  1  0.46163300  0.93920900  0.50708100  1
  C  C34  1  0.50925700  0.06383800  0.49506100  1
  C  C35  1  0.91713800  0.51525400  0.51227400  1
  C  C36  1  0.05932300  0.49021400  0.49187100  1
  C  C37  1  0.49727200  0.82429700  0.94410400  1
  C  C38  1  0.63539700  0.86560200  0.91898500  1
  C  C39  1  0.63296400  0.97397600  0.88320400  1
  C  C40  1  0.77068400  0.01864300  0.86065800  1
  C  C41  1  0.44089400  0.17653900  0.06330500  1
  C  C42  1  0.57407100  0.12814900  0.06307200  1
  C  C43  1  0.56512600  0.03495500  0.10903500  1
  C  C44  1  0.69562500  0.98082700  0.10588400  1
  C  C45  1  0.58288200  0.29590500  0.67503400  1
  C  C46  1  0.51162200  0.18728900  0.70234500  1
  C  C47  1  0.54978200  0.08385100  0.66494500  1
  C  C48  1  0.48702100  0.97477400  0.69462600  1
  C  C49  1  0.70241200  0.66625900  0.30739600  1
  C  C50  1  0.66593800  0.78845000  0.29627000  1
  C  C51  1  0.76216600  0.87381000  0.31682100  1
  C  C52  1  0.72825200  0.99565700  0.30419700  1
  C  C53  1  0.64966500  0.08984800  0.46912700  1
  C  C54  1  0.73271300  0.10726800  0.51617200  1
  C  C55  1  0.87494000  0.11277600  0.48903300  1
  C  C56  1  0.95808800  0.14419400  0.53434500  1
  C  C57  1  0.31706700  0.90981100  0.51990500  1
  C  C58  1  0.26527000  0.89778200  0.46327200  1
  C  C59  1  0.12606100  0.84991200  0.47422900  1
  C  C60  1  0.07457400  0.84065000  0.41761300  1
  C  C61  1  0.09848000  0.41564400  0.44007900  1
  C  C62  1  0.08351300  0.47784800  0.38450800  1
  C  C63  1  0.05584500  0.39089400  0.33924800  1
  C  C64  1  0.04575400  0.45240400  0.28333200  1
  C  C65  1  0.87714900  0.59191600  0.56327200  1
  C  C66  1  0.88145400  0.52904600  0.61984100  1
  C  C67  1  0.84394300  0.60916300  0.67042400  1
  C  C68  1  0.86500000  0.55223400  0.72604500  1
  N  N1  1  0.50486100  0.50574100  0.14730200  1
  N  N2  1  0.45221400  0.49404700  0.85800500  1
  N  N3  1  0.82691900  0.47115600  0.48603700  1
  N  N4  1  0.14981300  0.53277800  0.51833300  1
  O  O1  1  0.40533200  0.68183500  0.50937300  1
  O  O2  1  0.57172600  0.32157700  0.49452500  1
  O  O3  1  0.62588000  0.66279500  0.49997300  1
  O  O4  1  0.35049300  0.34102800  0.50438900  1
  O  O5  1  0.36461200  0.50368200  0.59266300  1
  O  O6  1  0.61221200  0.50010600  0.41159900  1
  O  O7  1  0.58570100  0.48232500  0.58287100  1
  O  O8  1  0.39101600  0.52064500  0.42137000  1
  O  O9  1  0.51154600  0.30809300  0.15088200  1
  O  O10  1  0.51438600  0.68677100  0.84736800  1
  O  O11  1  0.50597300  0.70596100  0.14529900  1
  O  O12  1  0.39533400  0.29812100  0.86616200  1
