# generated using pymatgen
data_VH10C18O7
_symmetry_space_group_name_H-M   'P 1'
_cell_length_a   25.50980500
_cell_length_b   6.82724100
_cell_length_c   21.50985100
_cell_angle_alpha   90.00000000
_cell_angle_beta   95.57882700
_cell_angle_gamma   90.00000000
_symmetry_Int_Tables_number   1
_chemical_formula_structural   VH10C18O7
_chemical_formula_sum   'V4 H40 C72 O28'
_cell_volume   3728.44554769
_cell_formula_units_Z   4
loop_
 _symmetry_equiv_pos_site_id
 _symmetry_equiv_pos_as_xyz
  1  'x, y, z'
loop_
 _atom_site_type_symbol
 _atom_site_label
 _atom_site_symmetry_multiplicity
 _atom_site_fract_x
 _atom_site_fract_y
 _atom_site_fract_z
 _atom_site_occupancy
  V  V1  1  0.24966900  0.77532100  0.24251800  1
  V  V2  1  0.75036700  0.21379900  0.75748400  1
  V  V3  1  0.25033100  0.27532100  0.25748200  1
  V  V4  1  0.74963300  0.71379900  0.74251600  1
  H  H1  1  0.48260500  0.70636600  0.43313000  1
  H  H2  1  0.51777500  0.28245700  0.56802600  1
  H  H3  1  0.01739500  0.20636600  0.06687000  1
  H  H4  1  0.98222500  0.78245700  0.93197400  1
  H  H5  1  0.07999100  0.29038000  0.45996600  1
  H  H6  1  0.91916400  0.69870400  0.53903600  1
  H  H7  1  0.42000900  0.79038000  0.04003400  1
  H  H8  1  0.58083700  0.19870400  0.96096400  1
  H  H9  1  0.15112900  0.28462600  0.39075400  1
  H  H10  1  0.84821600  0.70449100  0.60851700  1
  H  H11  1  0.34887100  0.78462700  0.10924500  1
  H  H12  1  0.65178400  0.20449200  0.89148300  1
  H  H13  1  0.04574900  0.69355200  0.41698400  1
  H  H14  1  0.95349800  0.29555900  0.58188400  1
  H  H15  1  0.45425100  0.19355100  0.08301700  1
  H  H16  1  0.54650200  0.79555800  0.91811600  1
  H  H17  1  0.60363900  0.69156600  0.60637800  1
  H  H18  1  0.64198200  0.80034800  0.54876500  1
  H  H19  1  0.63890700  0.53650100  0.55628500  1
  H  H20  1  0.45582000  0.44635000  0.57679700  1
  H  H21  1  0.38895400  0.50181200  0.54871800  1
  H  H22  1  0.44215600  0.61619300  0.51256400  1
  H  H23  1  0.89636100  0.19156600  0.89362200  1
  H  H24  1  0.85801800  0.30034800  0.95123500  1
  H  H25  1  0.86109300  0.03650100  0.94371500  1
  H  H26  1  0.04418000  0.94635000  0.92320300  1
  H  H27  1  0.11104600  0.00181200  0.95128200  1
  H  H28  1  0.05784400  0.11619300  0.98743600  1
  H  H29  1  0.03621200  0.56901400  0.33207800  1
  H  H30  1  0.07870600  0.36056700  0.35093300  1
  H  H31  1  0.07261400  0.46156200  0.27278900  1
  H  H32  1  0.96323400  0.42007500  0.66678800  1
  H  H33  1  0.92698300  0.52753400  0.72621500  1
  H  H34  1  0.92071700  0.62855100  0.64807400  1
  H  H35  1  0.46378800  0.06901500  0.16792200  1
  H  H36  1  0.42129400  0.86056700  0.14906700  1
  H  H37  1  0.42738500  0.96156200  0.22721100  1
  H  H38  1  0.53676600  0.92007600  0.83321100  1
  H  H39  1  0.57301700  0.02753400  0.77378500  1
  H  H40  1  0.57928300  0.12855200  0.85192600  1
  C  C1  1  0.31997300  0.49380900  0.17784900  1
  C  C2  1  0.68042900  0.49531400  0.82268000  1
  C  C3  1  0.18002800  0.99380900  0.32215100  1
  C  C4  1  0.81957100  0.99531400  0.67731900  1
  C  C5  1  0.17205400  0.49486100  0.17206400  1
  C  C6  1  0.82829100  0.49425300  0.82742900  1
  C  C7  1  0.32794600  0.99486100  0.32793600  1
  C  C8  1  0.67170900  0.99425200  0.67257100  1
  C  C9  1  0.53340500  0.83700600  0.50636100  1
  C  C10  1  0.46495800  0.15145300  0.49570100  1
  C  C11  1  0.96659500  0.33700600  0.99363900  1
  C  C12  1  0.03504200  0.65145300  0.00429900  1
  C  C13  1  0.54300900  0.99878700  0.54413800  1
  C  C14  1  0.45584000  0.98992900  0.45753800  1
  C  C15  1  0.95699100  0.49878700  0.95586200  1
  C  C16  1  0.04416000  0.48992900  0.04246200  1
  C  C17  1  0.50891600  0.15606700  0.53883400  1
  C  C18  1  0.48993200  0.83280700  0.46296300  1
  C  C19  1  0.99108400  0.65606700  0.96116600  1
  C  C20  1  0.01006800  0.33280700  0.03703700  1
  C  C21  1  0.58842800  0.00250600  0.58925600  1
  C  C22  1  0.41074200  0.98643700  0.41195200  1
  C  C23  1  0.91157200  0.50250600  0.91074400  1
  C  C24  1  0.08925800  0.48643700  0.08804800  1
  C  C25  1  0.37291700  0.98729300  0.37364400  1
  C  C26  1  0.62649000  0.00176700  0.62722000  1
  C  C27  1  0.12708300  0.48729300  0.12635600  1
  C  C28  1  0.87351000  0.50176700  0.87278000  1
  C  C29  1  0.08815300  0.15766900  0.43524400  1
  C  C30  1  0.91105200  0.83144600  0.56377000  1
  C  C31  1  0.41184700  0.65766900  0.06475600  1
  C  C32  1  0.58894800  0.33144600  0.93623000  1
  C  C33  1  0.12808600  0.15411700  0.39652200  1
  C  C34  1  0.87122700  0.83501500  0.60264400  1
  C  C35  1  0.37191400  0.65411700  0.10347800  1
  C  C36  1  0.62877400  0.33501500  0.89735600  1
  C  C37  1  0.13903100  0.98502700  0.36508000  1
  C  C38  1  0.86037500  0.00410800  0.63414000  1
  C  C39  1  0.36096900  0.48502700  0.13492000  1
  C  C40  1  0.63962500  0.50410800  0.86586000  1
  C  C41  1  0.10936100  0.81722600  0.37253600  1
  C  C42  1  0.89000500  0.17191500  0.62655200  1
  C  C43  1  0.39063900  0.31722600  0.12746400  1
  C  C44  1  0.60999500  0.67191600  0.87344800  1
  C  C45  1  0.06886400  0.82332300  0.41058400  1
  C  C46  1  0.93039500  0.16580500  0.58835400  1
  C  C47  1  0.43113600  0.32332300  0.08941600  1
  C  C48  1  0.56960500  0.66580500  0.91164600  1
  C  C49  1  0.05849600  0.99212100  0.44211200  1
  C  C50  1  0.94069100  0.99698200  0.55679900  1
  C  C51  1  0.44150400  0.49212100  0.05788700  1
  C  C52  1  0.55931000  0.49698200  0.94320100  1
  C  C53  1  0.01700100  0.99408600  0.48247100  1
  C  C54  1  0.98214400  0.99493000  0.51638300  1
  C  C55  1  0.48299900  0.49408600  0.01752900  1
  C  C56  1  0.51785600  0.49493000  0.98361700  1
  C  C57  1  0.56946700  0.67031800  0.51212100  1
  C  C58  1  0.61650000  0.67498000  0.55887000  1
  C  C59  1  0.42793400  0.31622400  0.48833200  1
  C  C60  1  0.42917700  0.47980100  0.53450700  1
  C  C61  1  0.93053300  0.17031800  0.98787900  1
  C  C62  1  0.88350000  0.17498000  0.94113000  1
  C  C63  1  0.07206600  0.81622300  0.01166800  1
  C  C64  1  0.07082300  0.97980100  0.96549300  1
  C  C65  1  0.11872300  0.63205100  0.34079600  1
  C  C66  1  0.07374000  0.49730300  0.32319700  1
  C  C67  1  0.88072400  0.35708300  0.65833500  1
  C  C68  1  0.92574000  0.49180700  0.67579700  1
  C  C69  1  0.38127700  0.13205100  0.15920400  1
  C  C70  1  0.42626000  0.99730300  0.17680300  1
  C  C71  1  0.61927600  0.85708200  0.84166500  1
  C  C72  1  0.57426000  0.99180700  0.82420300  1
  O  O1  1  0.19022500  0.32687000  0.19496800  1
  O  O2  1  0.81001700  0.66224900  0.80464100  1
  O  O3  1  0.30977500  0.82687000  0.30503200  1
  O  O4  1  0.68998300  0.16224900  0.69535900  1
  O  O5  1  0.30055000  0.66841500  0.18743800  1
  O  O6  1  0.69979000  0.32070400  0.81295200  1
  O  O7  1  0.19945000  0.16841400  0.31256200  1
  O  O8  1  0.80021000  0.82070400  0.68704800  1
  O  O9  1  0.19276700  0.66904300  0.18318200  1
  O  O10  1  0.80753200  0.32007600  0.81645300  1
  O  O11  1  0.30723300  0.16904300  0.31681800  1
  O  O12  1  0.69246800  0.82007600  0.68354700  1
  O  O13  1  0.19585000  0.82742200  0.30025300  1
  O  O14  1  0.80386500  0.16169800  0.69933900  1
  O  O15  1  0.30415000  0.32742200  0.19974700  1
  O  O16  1  0.69613500  0.66169900  0.80066100  1
  O  O17  1  0.25210800  0.50152000  0.28762400  1
  O  O18  1  0.74770500  0.48760000  0.71237000  1
  O  O19  1  0.24789200  0.00152000  0.21237600  1
  O  O20  1  0.75229500  0.98760000  0.78763000  1
  O  O21  1  0.56105100  0.52742500  0.47865400  1
  O  O22  1  0.39457000  0.31792400  0.44373600  1
  O  O23  1  0.93894900  0.02742500  0.02134600  1
  O  O24  1  0.10543000  0.81792400  0.05626400  1
  O  O25  1  0.16321800  0.58077000  0.33243100  1
  O  O26  1  0.83626000  0.40837200  0.66684500  1
  O  O27  1  0.33678200  0.08077000  0.16756900  1
  O  O28  1  0.66374000  0.90837200  0.83315500  1
