# generated using pymatgen
data_Zn3H16C32(NO3)4
_symmetry_space_group_name_H-M   'P 1'
_cell_length_a   21.80716300
_cell_length_b   21.80724200
_cell_length_c   38.61692300
_cell_angle_alpha   90.00000000
_cell_angle_beta   90.00000000
_cell_angle_gamma   90.00000000
_symmetry_Int_Tables_number   1
_chemical_formula_structural   Zn3H16C32(NO3)4
_chemical_formula_sum   'Zn12 H64 C128 N16 O48'
_cell_volume   18364.43532346
_cell_formula_units_Z   4
loop_
 _symmetry_equiv_pos_site_id
 _symmetry_equiv_pos_as_xyz
  1  'x, y, z'
loop_
 _atom_site_type_symbol
 _atom_site_label
 _atom_site_symmetry_multiplicity
 _atom_site_fract_x
 _atom_site_fract_y
 _atom_site_fract_z
 _atom_site_occupancy
  Zn  Zn1  1  0.43040100  0.99987600  0.00003300  1
  Zn  Zn2  1  0.99981700  0.56935800  0.00003400  1
  Zn  Zn3  1  0.56935900  0.00012100  0.99997800  1
  Zn  Zn4  1  0.00000000  0.43040100  0.99997400  1
  Zn  Zn5  1  0.93064100  0.50013300  0.50011000  1
  Zn  Zn6  1  0.50021000  0.06956900  0.49996100  1
  Zn  Zn7  1  0.06960100  0.49995000  0.49987700  1
  Zn  Zn8  1  0.49997000  0.93061300  0.50002600  1
  Zn  Zn9  1  0.49996500  0.50000200  0.03921800  1
  Zn  Zn10  1  0.49983700  0.49998100  0.96068400  1
  Zn  Zn11  1  0.00007700  0.00004200  0.53932300  1
  Zn  Zn12  1  0.00011900  0.00006700  0.46078500  1
  H  H1  1  0.58899400  0.96113400  0.89000200  1
  H  H2  1  0.96177200  0.41079000  0.88995300  1
  H  H3  1  0.40875000  0.03826200  0.88968800  1
  H  H4  1  0.03894400  0.59101500  0.88973500  1
  H  H5  1  0.40983200  0.96391200  0.10998500  1
  H  H6  1  0.03570000  0.40781800  0.11036400  1
  H  H7  1  0.59191000  0.03653200  0.11033300  1
  H  H8  1  0.96312300  0.58991200  0.10995300  1
  H  H9  1  0.08975400  0.46393200  0.38993100  1
  H  H10  1  0.46350000  0.90804300  0.38966600  1
  H  H11  1  0.90766700  0.53653100  0.38975100  1
  H  H12  1  0.53612100  0.09012100  0.39001400  1
  H  H13  1  0.91143300  0.46112900  0.61007900  1
  H  H14  1  0.53897900  0.91100800  0.61000900  1
  H  H15  1  0.09166600  0.53828400  0.61022600  1
  H  H16  1  0.46185600  0.09125300  0.61029800  1
  H  H17  1  0.58910800  0.96048000  0.82716000  1
  H  H18  1  0.96127100  0.41071100  0.82711700  1
  H  H19  1  0.40941800  0.03917700  0.82686400  1
  H  H20  1  0.04001100  0.59038100  0.82690700  1
  H  H21  1  0.40979900  0.96290800  0.17285100  1
  H  H22  1  0.03634500  0.40846400  0.17323000  1
  H  H23  1  0.59128900  0.03727300  0.17320300  1
  H  H24  1  0.96202100  0.58997000  0.17282400  1
  H  H25  1  0.08959000  0.46287300  0.32707000  1
  H  H26  1  0.46272700  0.90868000  0.32679400  1
  H  H27  1  0.90809100  0.53721800  0.32687400  1
  H  H28  1  0.53709200  0.09017000  0.32714900  1
  H  H29  1  0.91152100  0.46041600  0.67291500  1
  H  H30  1  0.53960900  0.91091300  0.67285300  1
  H  H31  1  0.09119900  0.53913900  0.67305600  1
  H  H32  1  0.46091500  0.09060300  0.67312000  1
  H  H33  1  0.56984100  0.80623300  0.03943900  1
  H  H34  1  0.80566400  0.43003700  0.03888000  1
  H  H35  1  0.42653900  0.19429100  0.03701900  1
  H  H36  1  0.19375600  0.57317000  0.03758800  1
  H  H37  1  0.43225100  0.80623000  0.96091500  1
  H  H38  1  0.19371300  0.42874700  0.96307700  1
  H  H39  1  0.57091200  0.19335900  0.96247900  1
  H  H40  1  0.80661800  0.56757200  0.96032700  1
  H  H41  1  0.06952600  0.30624400  0.53812300  1
  H  H42  1  0.30673200  0.92903900  0.53753900  1
  H  H43  1  0.93062900  0.69335100  0.53848400  1
  H  H44  1  0.69386000  0.06771900  0.53905800  1
  H  H45  1  0.92856200  0.30621300  0.46151300  1
  H  H46  1  0.69385600  0.93016000  0.46051600  1
  H  H47  1  0.07176400  0.69429600  0.46201000  1
  H  H48  1  0.30579500  0.07345100  0.46302400  1
  H  H49  1  0.56785200  0.69393800  0.04053000  1
  H  H50  1  0.69335500  0.43207000  0.03955400  1
  H  H51  1  0.42844100  0.30661500  0.03771100  1
  H  H52  1  0.30605900  0.57129300  0.03869700  1
  H  H53  1  0.43351200  0.69390900  0.96023700  1
  H  H54  1  0.30603300  0.42996800  0.96232900  1
  H  H55  1  0.56971300  0.30565800  0.96131300  1
  H  H56  1  0.69430900  0.56635200  0.95923400  1
  H  H57  1  0.06834200  0.19395900  0.53880500  1
  H  H58  1  0.19443200  0.93023700  0.53870800  1
  H  H59  1  0.93189800  0.80569300  0.53965100  1
  H  H60  1  0.80618000  0.06644500  0.53974200  1
  H  H61  1  0.93047400  0.19396200  0.46042800  1
  H  H62  1  0.80615400  0.93214000  0.45943200  1
  H  H63  1  0.06978500  0.80665300  0.46132100  1
  H  H64  1  0.19347400  0.07155100  0.46233500  1
  C  C1  1  0.50122200  0.88024300  0.00008400  1
  C  C2  1  0.88015200  0.49859500  0.99976700  1
  C  C3  1  0.49854400  0.11980900  0.99990100  1
  C  C4  1  0.11971900  0.50115900  0.00021600  1
  C  C5  1  0.99883900  0.38028000  0.49991600  1
  C  C6  1  0.38028000  0.00142200  0.50012000  1
  C  C7  1  0.00139800  0.61984600  0.50009700  1
  C  C8  1  0.61984600  0.99875400  0.49989100  1
  C  C9  1  0.49863900  0.99974300  0.93214600  1
  C  C10  1  0.00019900  0.50113500  0.93214500  1
  C  C11  1  0.50111400  0.00022200  0.06788900  1
  C  C12  1  0.99958900  0.49863000  0.06788800  1
  C  C13  1  0.99862000  0.50026500  0.43211200  1
  C  C14  1  0.49982800  0.99883800  0.43211000  1
  C  C15  1  0.00162800  0.49978600  0.56785100  1
  C  C16  1  0.50038100  0.00135200  0.56785300  1
  C  C17  1  0.54934700  0.97838700  0.87633400  1
  C  C18  1  0.97908500  0.45043500  0.87630800  1
  C  C19  1  0.44855600  0.02102500  0.87616100  1
  C  C20  1  0.02174700  0.55121600  0.87618700  1
  C  C21  1  0.44988200  0.98015200  0.12367500  1
  C  C22  1  0.01940200  0.44802300  0.12388600  1
  C  C23  1  0.55170900  0.02026400  0.12387000  1
  C  C24  1  0.97931400  0.54985900  0.12365800  1
  C  C25  1  0.04965800  0.48015700  0.37627900  1
  C  C26  1  0.47976100  0.94824700  0.37612900  1
  C  C27  1  0.94782600  0.52025700  0.37617600  1
  C  C28  1  0.51987400  0.05007400  0.37632400  1
  C  C29  1  0.95112200  0.47837700  0.62370900  1
  C  C30  1  0.52172300  0.95065900  0.62367200  1
  C  C31  1  0.05190800  0.52103000  0.62379000  1
  C  C32  1  0.47908800  0.05145100  0.62383000  1
  C  C33  1  0.54920500  0.97759600  0.84063900  1
  C  C34  1  0.97837900  0.45059700  0.84061400  1
  C  C35  1  0.44914400  0.02197000  0.84047300  1
  C  C36  1  0.02277700  0.55064800  0.84049800  1
  C  C37  1  0.45006500  0.97913700  0.15936500  1
  C  C38  1  0.02020900  0.44859100  0.15957700  1
  C  C39  1  0.55115600  0.02112200  0.15956200  1
  C  C40  1  0.97824700  0.54969100  0.15934900  1
  C  C41  1  0.04936300  0.47911100  0.34059000  1
  C  C42  1  0.47888400  0.94881000  0.34043700  1
  C  C43  1  0.94826700  0.52108400  0.34048200  1
  C  C44  1  0.52086900  0.04990000  0.34063400  1
  C  C45  1  0.95137900  0.47755100  0.65940200  1
  C  C46  1  0.52250000  0.95081200  0.65936700  1
  C  C47  1  0.05143500  0.52194000  0.65948000  1
  C  C48  1  0.47812700  0.05087300  0.65951800  1
  C  C49  1  0.49929400  0.99984400  0.82253200  1
  C  C50  1  0.00066600  0.50051800  0.82253200  1
  C  C51  1  0.50052100  0.00007800  0.17747900  1
  C  C52  1  0.99916700  0.49924300  0.17747900  1
  C  C53  1  0.99884800  0.50002800  0.32252000  1
  C  C54  1  0.49991900  0.99944900  0.32252000  1
  C  C55  1  0.00134500  0.49978700  0.67746500  1
  C  C56  1  0.50024400  0.00072800  0.67746600  1
  C  C57  1  0.49884500  0.99968700  0.89425000  1
  C  C58  1  0.00033900  0.50092700  0.89425000  1
  C  C59  1  0.50089200  0.00023600  0.10577700  1
  C  C60  1  0.99942800  0.49884100  0.10577600  1
  C  C61  1  0.99870400  0.50025100  0.39422300  1
  C  C62  1  0.49979800  0.99905900  0.39422200  1
  C  C63  1  0.00156200  0.49970100  0.60574700  1
  C  C64  1  0.50043300  0.00115700  0.60574800  1
  C  C65  1  0.50002000  0.00048200  0.71539000  1
  C  C66  1  0.00119200  0.49994000  0.71539000  1
  C  C67  1  0.50005100  0.99963500  0.28460400  1
  C  C68  1  0.99891900  0.49983600  0.28460400  1
  C  C69  1  0.99906900  0.49945700  0.21539500  1
  C  C70  1  0.50034400  0.99993600  0.21539500  1
  C  C71  1  0.00085700  0.50030300  0.78460800  1
  C  C72  1  0.49955300  0.00004600  0.78460800  1
  C  C73  1  0.53966300  0.78167500  0.02209800  1
  C  C74  1  0.78131700  0.46021500  0.02144400  1
  C  C75  1  0.45822500  0.21864100  0.02046000  1
  C  C76  1  0.21830200  0.54147600  0.02112600  1
  C  C77  1  0.46229400  0.78167400  0.97833200  1
  C  C78  1  0.21827700  0.46030100  0.97961600  1
  C  C79  1  0.53937200  0.21811900  0.97893400  1
  C  C80  1  0.78185000  0.53755300  0.97766200  1
  C  C81  1  0.03873600  0.28170200  0.52112100  1
  C  C82  1  0.28197100  0.96058900  0.52109200  1
  C  C83  1  0.96144500  0.71813500  0.52160900  1
  C  C84  1  0.71841500  0.03768200  0.52163800  1
  C  C85  1  0.95949200  0.28168400  0.47843900  1
  C  C86  1  0.71841500  0.96033100  0.47786200  1
  C  C87  1  0.04079200  0.71866400  0.47898700  1
  C  C88  1  0.28144600  0.04175700  0.47957900  1
  C  C89  1  0.53819900  0.71849500  0.02290200  1
  C  C90  1  0.71812800  0.46170400  0.02201300  1
  C  C91  1  0.45961700  0.28183500  0.02104600  1
  C  C92  1  0.28148500  0.54009500  0.02194900  1
  C  C93  1  0.46334300  0.71847700  0.97776500  1
  C  C94  1  0.28147200  0.46131000  0.97899800  1
  C  C95  1  0.53837200  0.28130300  0.97807800  1
  C  C96  1  0.71866100  0.53652700  0.97685900  1
  C  C97  1  0.03773500  0.21850300  0.52169800  1
  C  C98  1  0.21878700  0.96158900  0.52195000  1
  C  C99  1  0.96248700  0.78131900  0.52245700  1
  C  C100  1  0.78161200  0.03662600  0.52220800  1
  C  C101  1  0.96091100  0.21850500  0.47763000  1
  C  C102  1  0.78159600  0.96179000  0.47706100  1
  C  C103  1  0.03935400  0.78185500  0.47841100  1
  C  C104  1  0.21825300  0.04036800  0.47899600  1
  C  C105  1  0.50065800  0.68681100  0.00039700  1
  C  C106  1  0.68671900  0.49923900  0.99938200  1
  C  C107  1  0.49909700  0.31324200  0.99949500  1
  C  C108  1  0.31315100  0.50060800  0.00052500  1
  C  C109  1  0.99943300  0.18682200  0.49960200  1
  C  C110  1  0.18684700  0.00087600  0.50054000  1
  C  C111  1  0.00081700  0.81325300  0.50050000  1
  C  C112  1  0.81327900  0.99931300  0.49957500  1
  C  C113  1  0.50107700  0.81335200  0.00016000  1
  C  C114  1  0.81326200  0.49877500  0.99961400  1
  C  C115  1  0.49870800  0.18670100  0.99976600  1
  C  C116  1  0.18661100  0.50098100  0.00032000  1
  C  C117  1  0.99901100  0.31338000  0.49983600  1
  C  C118  1  0.31338800  0.00126100  0.50026300  1
  C  C119  1  0.00121200  0.68672900  0.50022900  1
  C  C120  1  0.68673700  0.99890600  0.49980700  1
  C  C121  1  0.38003500  0.50041600  0.00062800  1
  C  C122  1  0.50040200  0.61992400  0.00054100  1
  C  C123  1  0.61983200  0.49951700  0.99927700  1
  C  C124  1  0.49935400  0.38012600  0.99935700  1
  C  C125  1  0.88016600  0.99955000  0.49944800  1
  C  C126  1  0.99966300  0.11992700  0.49946300  1
  C  C127  1  0.11996300  0.00060400  0.50066400  1
  C  C128  1  0.00057900  0.88012900  0.50064100  1
  N  N1  1  0.46183300  0.03774700  0.76710500  1
  N  N2  1  0.03853700  0.53804600  0.76710600  1
  N  N3  1  0.53751400  0.96256300  0.76711800  1
  N  N4  1  0.96334800  0.46237000  0.76711600  1
  N  N5  1  0.53811400  0.03745400  0.23298900  1
  N  N6  1  0.96144000  0.53740200  0.23279500  1
  N  N7  1  0.46242400  0.96226700  0.23278400  1
  N  N8  1  0.03662000  0.46170500  0.23297900  1
  N  N9  1  0.96110600  0.53732900  0.26702100  1
  N  N10  1  0.53771000  0.03756400  0.26721400  1
  N  N11  1  0.03680400  0.46215200  0.26720300  1
  N  N12  1  0.46253900  0.96185900  0.26700900  1
  N  N13  1  0.03894400  0.53762600  0.73288200  1
  N  N14  1  0.46230500  0.03820300  0.73288300  1
  N  N15  1  0.96327100  0.46243400  0.73289000  1
  N  N16  1  0.53750100  0.96253400  0.73289100  1
  O  O1  1  0.44836200  0.90884700  0.99861600  1
  O  O2  1  0.90879200  0.55144200  0.99837800  1
  O  O3  1  0.55146200  0.09119500  0.99993400  1
  O  O4  1  0.09108200  0.44825200  0.00017000  1
  O  O5  1  0.55416800  0.90862400  0.00157500  1
  O  O6  1  0.09136000  0.55418500  0.00016800  1
  O  O7  1  0.44553000  0.09142800  0.99993100  1
  O  O8  1  0.90849700  0.44563600  0.00133500  1
  O  O9  1  0.94587600  0.40864300  0.49850000  1
  O  O10  1  0.40865900  0.05443700  0.50008200  1
  O  O11  1  0.05442600  0.59149400  0.49999000  1
  O  O12  1  0.59146700  0.94580700  0.49841000  1
  O  O13  1  0.05169000  0.40891300  0.50130900  1
  O  O14  1  0.59124100  0.05161300  0.50136300  1
  O  O15  1  0.94849000  0.59121500  0.50014000  1
  O  O16  1  0.40889600  0.94850400  0.50008400  1
  O  O17  1  0.44569100  0.00229600  0.94820800  1
  O  O18  1  0.00265000  0.55408100  0.94821500  1
  O  O19  1  0.55143800  0.99740700  0.94841200  1
  O  O20  1  0.99771400  0.44833700  0.94840400  1
  O  O21  1  0.55412200  0.00013400  0.05182600  1
  O  O22  1  0.99973400  0.55148100  0.05162700  1
  O  O23  1  0.44826600  0.00022000  0.05162600  1
  O  O24  1  0.99960000  0.44562500  0.05182300  1
  O  O25  1  0.94567500  0.50015700  0.44824300  1
  O  O26  1  0.49983700  0.05168900  0.44837000  1
  O  O27  1  0.05153300  0.50028400  0.44830700  1
  O  O28  1  0.49992600  0.94583300  0.44817600  1
  O  O29  1  0.05451200  0.50236200  0.55172100  1
  O  O30  1  0.49782000  0.05429500  0.55178700  1
  O  O31  1  0.94876600  0.49742800  0.55165300  1
  O  O32  1  0.50271100  0.94854900  0.55158900  1
  O  O33  1  0.40837300  0.50332900  0.03053900  1
  O  O34  1  0.50081600  0.59164200  0.03051300  1
  O  O35  1  0.59119200  0.49918300  0.02915800  1
  O  O36  1  0.49663800  0.40882100  0.02918400  1
  O  O37  1  0.59150000  0.50011700  0.96932100  1
  O  O38  1  0.49978400  0.59123600  0.97067600  1
  O  O39  1  0.40865500  0.49742000  0.97078700  1
  O  O40  1  0.50244800  0.40838700  0.96942800  1
  O  O41  1  0.90882600  0.00012700  0.52932100  1
  O  O42  1  0.00261900  0.09124700  0.52928700  1
  O  O43  1  0.09167500  0.99745900  0.53058400  1
  O  O44  1  0.99992200  0.90840000  0.53061500  1
  O  O45  1  0.09129600  0.00337100  0.47083000  1
  O  O46  1  0.99679900  0.09163700  0.46953600  1
  O  O47  1  0.90847600  0.99917700  0.46948200  1
  O  O48  1  0.00096500  0.90881600  0.47077500  1
