# generated using pymatgen
data_Zn2H39C50N2ClO8
_symmetry_space_group_name_H-M   'P 1'
_cell_length_a   15.87849400
_cell_length_b   15.97700400
_cell_length_c   9.20321300
_cell_angle_alpha   89.98932000
_cell_angle_beta   89.98749500
_cell_angle_gamma   90.00000000
_symmetry_Int_Tables_number   1
_chemical_formula_structural   Zn2H39C50N2ClO8
_chemical_formula_sum   'Zn2 H39 C50 N2 Cl1 O8'
_cell_volume   2334.77002405
_cell_formula_units_Z   1
loop_
 _symmetry_equiv_pos_site_id
 _symmetry_equiv_pos_as_xyz
  1  'x, y, z'
loop_
 _atom_site_type_symbol
 _atom_site_label
 _atom_site_symmetry_multiplicity
 _atom_site_fract_x
 _atom_site_fract_y
 _atom_site_fract_z
 _atom_site_occupancy
  Zn  Zn1  1  0.48914900  0.50333000  0.66177600  1
  Zn  Zn2  1  0.51411600  0.49809600  0.33616800  1
  H  H1  1  0.96109300  0.40184400  0.66186700  1
  H  H2  1  0.09381500  0.42201100  0.66666667  1
  H  H3  1  0.05942600  0.44678700  0.26915100  1
  H  H4  1  0.06782700  0.37266500  0.41645600  1
  H  H5  1  0.92520100  0.37111400  0.42782600  1
  H  H6  1  0.91846300  0.45369900  0.29618900  1
  H  H7  1  0.07160100  0.63637000  0.50749600  1
  H  H8  1  0.05490300  0.59976200  0.32516100  1
  H  H9  1  0.92680200  0.63202200  0.54240600  1
  H  H10  1  0.09051200  0.52981600  0.71069900  1
  H  H11  1  0.91638200  0.59592600  0.36150200  1
  H  H12  1  0.60608000  0.92287300  0.64567800  1
  H  H13  1  0.61757200  0.06338900  0.62416300  1
  H  H14  1  0.50566200  0.06992200  0.26957600  1
  H  H15  1  0.60782600  0.07753000  0.35493900  1
  H  H16  1  0.61750900  0.93689000  0.37637000  1
  H  H17  1  0.52440600  0.92967800  0.26428900  1
  H  H18  1  0.38346300  0.06463000  0.61417100  1
  H  H19  1  0.37507400  0.07754800  0.41970800  1
  H  H20  1  0.37380200  0.92507600  0.57706200  1
  H  H21  1  0.52394500  0.07171900  0.73482200  1
  H  H22  1  0.50352600  0.93169800  0.72929500  1
  H  H23  1  0.38341700  0.93789800  0.38268700  1
  H  H24  1  0.76199600  0.76745500  0.29725400  1
  H  H25  1  0.65893200  0.69628900  0.44549600  1
  H  H26  1  0.54352500  0.72376400  0.22925000  1
  H  H27  1  0.65933400  0.64854000  0.92943400  1
  H  H28  1  0.75790200  0.75044500  0.03118200  1
  H  H29  1  0.65181900  0.49816400  0.98321400  1
  H  H30  1  0.34640000  0.50461900  0.01229800  1
  H  H31  1  0.33475100  0.35590500  0.06057100  1
  H  H32  1  0.23592700  0.25634500  0.95336200  1
  H  H33  1  0.23721200  0.23826900  0.68753000  1
  H  H34  1  0.34454500  0.30645100  0.54506900  1
  H  H35  1  0.45554900  0.27820200  0.76757300  1
  H  H36  1  0.90743300  0.66509700  0.03009200  1
  H  H37  1  0.81393100  0.56497200  0.15101300  1
  H  H38  1  0.79490900  0.42448900  0.04868700  1
  H  H39  1  0.86503200  0.38490800  0.82618900  1
  C  C1  1  0.49805700  0.33683300  0.51419500  1
  C  C2  1  0.33794700  0.50683800  0.46983300  1
  C  C3  1  0.50554600  0.66464000  0.48394000  1
  C  C4  1  0.66536000  0.49438000  0.52816100  1
  C  C5  1  0.06275900  0.48211800  0.63899600  1
  C  C6  1  0.04274400  0.43475100  0.38430600  1
  C  C7  1  0.94754000  0.43501300  0.40063600  1
  C  C8  1  0.75537200  0.49341400  0.54317700  1
  C  C9  1  0.08084500  0.50220900  0.48034800  1
  C  C10  1  0.96845700  0.47064600  0.65733200  1
  C  C11  1  0.92280600  0.49665300  0.51887400  1
  C  C12  1  0.94816900  0.58314700  0.46637200  1
  C  C13  1  0.04257000  0.58618300  0.44142400  1
  C  C14  1  0.83128000  0.49408200  0.53883400  1
  C  C15  1  0.17220000  0.50514900  0.45972100  1
  C  C16  1  0.24802700  0.50668400  0.45493900  1
  C  C17  1  0.55025300  0.04556200  0.63283300  1
  C  C18  1  0.54391600  0.05004600  0.36431600  1
  C  C19  1  0.55045100  0.95549600  0.36671900  1
  C  C20  1  0.50234500  0.75487500  0.48741000  1
  C  C21  1  0.50229600  0.07967900  0.50333700  1
  C  C22  1  0.54255600  0.95109100  0.63516900  1
  C  C23  1  0.50142000  0.92179600  0.49545700  1
  C  C24  1  0.41173400  0.95403700  0.48921700  1
  C  C25  1  0.41223000  0.04819300  0.50811600  1
  C  C26  1  0.50127400  0.83026800  0.49094700  1
  C  C27  1  0.50242600  0.17120700  0.50779900  1
  C  C28  1  0.50132100  0.24660200  0.51113700  1
  C  C29  1  0.64884700  0.69727300  0.32933900  1
  C  C30  1  0.57504000  0.66732400  0.26454100  1
  C  C31  1  0.59295900  0.62994000  0.13053000  1
  C  C32  1  0.65354400  0.66635300  0.04230500  1
  C  C33  1  0.70942100  0.72324200  0.09879700  1
  C  C34  1  0.71040900  0.73452000  0.24622900  1
  C  C35  1  0.58392500  0.49956100  0.98935600  1
  C  C36  1  0.45492800  0.44024600  0.92933700  1
  C  C37  1  0.41438000  0.50274200  0.00695900  1
  C  C38  1  0.54344400  0.56197900  0.06699400  1
  C  C39  1  0.34244800  0.33787400  0.94815200  1
  C  C40  1  0.28644800  0.28218600  0.88862500  1
  C  C41  1  0.28837900  0.27033300  0.74140300  1
  C  C42  1  0.35242700  0.30589500  0.66173400  1
  C  C43  1  0.42541900  0.33501300  0.73051200  1
  C  C44  1  0.40552900  0.37289300  0.86344400  1
  C  C45  1  0.92899300  0.50271900  0.79658400  1
  C  C46  1  0.94015400  0.58253500  0.85723300  1
  C  C47  1  0.89845900  0.60358000  0.98374300  1
  C  C48  1  0.84615800  0.54755100  0.05210500  1
  C  C49  1  0.83561200  0.46902100  0.99492000  1
  C  C50  1  0.87633300  0.44696800  0.86864800  1
  N  N1  1  0.53934200  0.43936200  0.92241300  1
  N  N2  1  0.45902200  0.56291200  0.07398500  1
  Cl  Cl1  1  0.00631400  0.66053700  0.78693100  1
  O  O1  1  0.48219100  0.37744100  0.63701900  1
  O  O2  1  0.50983700  0.37515900  0.38958600  1
  O  O3  1  0.36652900  0.50490800  0.60275300  1
  O  O4  1  0.38692000  0.50593200  0.35419300  1
  O  O5  1  0.49395700  0.62625800  0.60849300  1
  O  O6  1  0.52061200  0.62402900  0.36077700  1
  O  O7  1  0.61632500  0.49499400  0.64378900  1
  O  O8  1  0.63675100  0.49693200  0.39522700  1
