# generated using pymatgen
data_Zn6H78C77O27
_symmetry_space_group_name_H-M   'P 1'
_cell_length_a   21.51286500
_cell_length_b   21.51438400
_cell_length_c   22.06441400
_cell_angle_alpha   60.86185000
_cell_angle_beta   119.15667000
_cell_angle_gamma   89.96029600
_symmetry_Int_Tables_number   1
_chemical_formula_structural   Zn6H78C77O27
_chemical_formula_sum   'Zn6 H78 C77 O27'
_cell_volume   7400.99135133
_cell_formula_units_Z   1
loop_
 _symmetry_equiv_pos_site_id
 _symmetry_equiv_pos_as_xyz
  1  'x, y, z'
loop_
 _atom_site_type_symbol
 _atom_site_label
 _atom_site_symmetry_multiplicity
 _atom_site_fract_x
 _atom_site_fract_y
 _atom_site_fract_z
 _atom_site_occupancy
  Zn  Zn1  1  0.50672500  0.42810000  0.50622600  1
  Zn  Zn2  1  0.50287200  0.57208200  0.49963000  1
  Zn  Zn3  1  0.07742600  0.99935600  0.50375900  1
  Zn  Zn4  1  0.93561600  0.99994800  0.50168400  1
  Zn  Zn5  1  0.05268300  0.45275900  0.59811500  1
  Zn  Zn6  1  0.95757300  0.54562700  0.40891200  1
  H  H1  1  0.29925900  0.68912100  0.95173100  1
  H  H2  1  0.26197900  0.87049800  0.95094800  1
  H  H3  1  0.20851500  0.79756600  0.05405900  1
  H  H4  1  0.12308400  0.75042700  0.94859500  1
  H  H5  1  0.24388500  0.61729800  0.05405900  1
  H  H6  1  0.69355000  0.41792800  0.47238100  1
  H  H7  1  0.74068900  0.37798500  0.58323700  1
  H  H8  1  0.85162700  0.38316600  0.59949700  1
  H  H9  1  0.80829800  0.40425100  0.49519900  1
  H  H10  1  0.63096000  0.55635700  0.36940000  1
  H  H11  1  0.73640900  0.53758300  0.37364500  1
  H  H12  1  0.72707300  0.56403800  0.55898300  1
  H  H13  1  0.77200800  0.46406500  0.63206600  1
  H  H14  1  0.87109100  0.48509100  0.62431700  1
  H  H15  1  0.81844400  0.58076700  0.53575400  1
  H  H16  1  0.65805500  0.61670100  0.40645500  1
  H  H17  1  0.75242000  0.61268000  0.38949600  1
  H  H18  1  0.63606400  0.33099600  0.95188300  1
  H  H19  1  0.69447300  0.17305400  0.05594400  1
  H  H20  1  0.77739300  0.33704000  0.05528700  1
  H  H21  1  0.81834900  0.34183900  0.94958100  1
  H  H22  1  0.87683200  0.18377900  0.05377100  1
  H  H23  1  0.73563100  0.17759600  0.95060800  1
  H  H24  1  0.28297700  0.43581800  0.44714800  1
  H  H25  1  0.23758900  0.53573800  0.37421500  1
  H  H26  1  0.13893200  0.51385400  0.38247400  1
  H  H27  1  0.19207000  0.41824300  0.47100900  1
  H  H28  1  0.35231400  0.38298000  0.59980700  1
  H  H29  1  0.25815800  0.38626600  0.61725700  1
  H  H30  1  0.31603100  0.58169900  0.53401500  1
  H  H31  1  0.26863900  0.62174800  0.42311100  1
  H  H32  1  0.15794500  0.61585500  0.40735800  1
  H  H33  1  0.20146600  0.59461300  0.51174100  1
  H  H34  1  0.37915100  0.44333300  0.63688500  1
  H  H35  1  0.27384300  0.46138700  0.63312400  1
  H  H36  1  0.89776700  0.86178300  0.37940300  1
  H  H37  1  0.89799500  0.75972100  0.37871900  1
  H  H38  1  0.97961100  0.76173700  0.37372300  1
  H  H39  1  0.10977500  0.79828500  0.50820600  1
  H  H40  1  0.10697900  0.69619800  0.50481300  1
  H  H41  1  0.00295300  0.74978400  0.60934700  1
  H  H42  1  0.91108700  0.79470300  0.51283000  1
  H  H43  1  0.91484400  0.68832500  0.51848800  1
  H  H44  1  0.00794100  0.64383000  0.61307900  1
  H  H45  1  0.11716200  0.74942800  0.60611800  1
  H  H46  1  0.11908000  0.64582800  0.60538300  1
  H  H47  1  0.07257200  0.22981800  0.45404200  1
  H  H48  1  0.13053700  0.16400500  0.56613000  1
  H  H49  1  0.12709600  0.25466700  0.58964400  1
  H  H50  1  0.09149200  0.31959600  0.48052600  1
  H  H51  1  0.93389900  0.25573600  0.37485100  1
  H  H52  1  0.95400200  0.35842900  0.37539700  1
  H  H53  1  0.96347100  0.15255300  0.58459400  1
  H  H54  1  0.03996900  0.23794900  0.63760200  1
  H  H55  1  0.94117500  0.26605800  0.56001100  1
  H  H56  1  0.88954200  0.23789500  0.43068900  1
  H  H57  1  0.88958000  0.35216100  0.40714900  1
  H  H58  1  0.39406900  0.84240100  0.99649300  1
  H  H59  1  0.36594400  0.79507500  0.94247000  1
  H  H60  1  0.52450100  0.75898100  0.08689600  1
  H  H61  1  0.49611500  0.71182100  0.03316700  1
  H  H62  1  0.45375700  0.83196700  0.89908400  1
  H  H63  1  0.55152700  0.80795500  0.97764400  1
  H  H64  1  0.48201400  0.87927400  0.95278400  1
  H  H65  1  0.96121500  0.98224400  0.27190500  1
  H  H66  1  0.90068200  0.96895400  0.30690100  1
  H  H67  1  0.91377100  0.90482300  0.21335400  1
  H  H68  1  0.84442000  0.90030300  0.23797600  1
  H  H69  1  0.79670400  0.03949400  0.15235500  1
  H  H70  1  0.79087500  0.00284100  0.09203200  1
  H  H71  1  0.86405500  0.04330300  0.12483900  1
  H  H72  1  0.12568400  0.01265000  0.75029800  1
  H  H73  1  0.03031600  0.03900700  0.67008300  1
  H  H74  1  0.09087700  0.08615500  0.79508500  1
  H  H75  1  0.99311700  0.10461600  0.72112400  1
  H  H76  1  0.01424900  0.96665400  0.78967400  1
  H  H77  1  0.03562800  0.99544600  0.86040000  1
  H  H78  1  0.11074400  0.94988100  0.86613600  1
  C  C1  1  0.62685700  0.49887600  0.50366500  1
  C  C2  1  0.42333300  0.57897100  0.33946500  1
  C  C3  1  0.38278700  0.50123400  0.50227400  1
  C  C4  1  0.58622400  0.42124500  0.66637800  1
  C  C5  1  0.27856700  0.71271000  0.97578700  1
  C  C6  1  0.32218800  0.74076400  0.02974300  1
  C  C7  1  0.37793800  0.62147000  0.24979900  1
  C  C8  1  0.13207000  0.86798000  0.75577000  1
  C  C9  1  0.24798900  0.67488400  0.02961800  1
  C  C10  1  0.29282300  0.70312500  0.08303900  1
  C  C11  1  0.18298100  0.74653200  0.97455000  1
  C  C12  1  0.21429900  0.78381100  0.92247700  1
  C  C13  1  0.22856900  0.77393900  0.02960100  1
  C  C14  1  0.25903100  0.81248800  0.97579500  1
  C  C15  1  0.33954800  0.65800300  0.17447800  1
  C  C16  1  0.16908200  0.82977000  0.83107500  1
  C  C17  1  0.73107800  0.42488300  0.52370400  1
  C  C18  1  0.80563600  0.42303000  0.53285300  1
  C  C19  1  0.67672400  0.56162200  0.41827700  1
  C  C20  1  0.75261200  0.51257200  0.56863800  1
  C  C21  1  0.69627900  0.49937300  0.50372000  1
  C  C22  1  0.81368800  0.50066100  0.50279400  1
  C  C23  1  0.74516200  0.55637800  0.41516200  1
  C  C24  1  0.81886700  0.52170900  0.56117100  1
  C  C25  1  0.72195800  0.21192600  0.03059200  1
  C  C26  1  0.69130400  0.29698900  0.97626400  1
  C  C27  1  0.63135900  0.37885100  0.75602200  1
  C  C28  1  0.88073100  0.13212700  0.24964300  1
  C  C29  1  0.74570300  0.21319700  0.97550900  1
  C  C30  1  0.71585600  0.29746000  0.92276100  1
  C  C31  1  0.82159700  0.21780900  0.02937100  1
  C  C32  1  0.79706300  0.21729900  0.08289700  1
  C  C33  1  0.79094600  0.30290000  0.97501200  1
  C  C34  1  0.76724500  0.30157200  0.03021800  1
  C  C35  1  0.66947100  0.34249400  0.83133200  1
  C  C36  1  0.84318100  0.17088700  0.17433000  1
  C  C37  1  0.25728600  0.48709800  0.43768600  1
  C  C38  1  0.19129200  0.47739900  0.44552600  1
  C  C39  1  0.33343600  0.43795600  0.58808100  1
  C  C40  1  0.27851400  0.57470300  0.48272400  1
  C  C41  1  0.31353700  0.50040700  0.50253600  1
  C  C42  1  0.19644700  0.49825200  0.50403300  1
  C  C43  1  0.26514700  0.44268900  0.59154200  1
  C  C44  1  0.20411700  0.57604100  0.47392900  1
  C  C45  1  0.00331800  0.88033300  0.49797000  1
  C  C46  1  0.08823800  0.91406000  0.66611300  1
  C  C47  1  0.00997100  0.11863900  0.50801800  1
  C  C48  1  0.92477300  0.08542700  0.33931600  1
  C  C49  1  0.00600300  0.37552600  0.50753900  1
  C  C50  1  0.88272200  0.50099100  0.50211600  1
  C  C51  1  0.00413800  0.62281700  0.49953700  1
  C  C52  1  0.12751500  0.49750000  0.50487800  1
  C  C53  1  0.95631600  0.83180000  0.40828000  1
  C  C54  1  0.95654000  0.76087100  0.40935500  1
  C  C55  1  0.08340400  0.76563100  0.54046600  1
  C  C56  1  0.97026400  0.76384200  0.54452700  1
  C  C57  1  0.00345600  0.81102800  0.49757900  1
  C  C58  1  0.00409800  0.69248900  0.49888400  1
  C  C59  1  0.08353000  0.69549000  0.54005000  1
  C  C60  1  0.97239900  0.69230900  0.54702600  1
  C  C61  1  0.07769800  0.21088600  0.51335100  1
  C  C62  1  0.08093400  0.27501200  0.52479900  1
  C  C63  1  0.93935600  0.25016800  0.43004400  1
  C  C64  1  0.01051000  0.17333600  0.58450900  1
  C  C65  1  0.00983000  0.18729800  0.50951200  1
  C  C66  1  0.00710100  0.30575500  0.50831700  1
  C  C67  1  0.94364100  0.32285400  0.42432200  1
  C  C68  1  0.99828900  0.24715400  0.57634100  1
  C  C69  1  0.40526000  0.78855600  0.00279200  1
  C  C70  1  0.48443000  0.76575700  0.02654500  1
  C  C71  1  0.49338600  0.82523000  0.95951800  1
  C  C72  1  0.93213300  0.94286700  0.29318500  1
  C  C73  1  0.87997800  0.93365500  0.22280400  1
  C  C74  1  0.82967200  0.00991000  0.14279300  1
  C  C75  1  0.07118500  0.05742500  0.70763800  1
  C  C76  1  0.05034100  0.06504200  0.76087200  1
  C  C77  1  0.05295700  0.98922400  0.82333000  1
  O  O1  1  0.60046300  0.44292600  0.50809200  1
  O  O2  1  0.59479000  0.55479200  0.49848400  1
  O  O3  1  0.44582600  0.50561900  0.38112500  1
  O  O4  1  0.43953100  0.61568900  0.37544600  1
  O  O5  1  0.41483600  0.44536200  0.50741000  1
  O  O6  1  0.40913300  0.55724200  0.49778200  1
  O  O7  1  0.57005700  0.38449600  0.63041700  1
  O  O8  1  0.56374100  0.49458100  0.62472400  1
  O  O9  1  0.05863700  0.90783000  0.50188900  1
  O  O10  1  0.94843800  0.91015600  0.49579700  1
  O  O11  1  0.12351000  0.93569100  0.62850600  1
  O  O12  1  0.01499900  0.93328500  0.62613600  1
  O  O13  1  0.06453400  0.08927400  0.50943000  1
  O  O14  1  0.95446800  0.09136600  0.50375800  1
  O  O15  1  0.99801900  0.06591300  0.37929100  1
  O  O16  1  0.88955300  0.06378500  0.37695600  1
  O  O17  1  0.04440900  0.36910300  0.57926100  1
  O  O18  1  0.96825100  0.44041400  0.43510300  1
  O  O19  1  0.94814600  0.46345900  0.57396200  1
  O  O20  1  0.87509400  0.53805000  0.42969800  1
  O  O21  1  0.04181300  0.55795100  0.57199300  1
  O  O22  1  0.96622200  0.62929100  0.42775700  1
  O  O23  1  0.13517000  0.46065100  0.57732200  1
  O  O24  1  0.06209700  0.53471000  0.43305100  1
  O  O25  1  0.39856000  0.73318800  0.06578300  1
  O  O26  1  0.98696600  0.87432000  0.36431100  1
  O  O27  1  0.08052600  0.12398900  0.65846400  1
