# generated using pymatgen
data_ZnH17C29NO6
_symmetry_space_group_name_H-M   'P 1'
_cell_length_a   17.54670600
_cell_length_b   8.55246300
_cell_length_c   19.36102400
_cell_angle_alpha   90.00000000
_cell_angle_beta   91.04153700
_cell_angle_gamma   90.00000000
_symmetry_Int_Tables_number   1
_chemical_formula_structural   ZnH17C29NO6
_chemical_formula_sum   'Zn2 H34 C58 N2 O12'
_cell_volume   2904.98147158
_cell_formula_units_Z   2
loop_
 _symmetry_equiv_pos_site_id
 _symmetry_equiv_pos_as_xyz
  1  'x, y, z'
loop_
 _atom_site_type_symbol
 _atom_site_label
 _atom_site_symmetry_multiplicity
 _atom_site_fract_x
 _atom_site_fract_y
 _atom_site_fract_z
 _atom_site_occupancy
  Zn  Zn1  1  0.91505000  0.49624700  0.50157400  1
  Zn  Zn2  1  0.08494900  0.49624700  0.49842600  1
  H  H1  1  0.03007100  0.99638600  0.54907800  1
  H  H2  1  0.96992800  0.99638600  0.45092200  1
  H  H3  1  0.98972400  0.24919200  0.73167100  1
  H  H4  1  0.02354500  0.74654900  0.27004000  1
  H  H5  1  0.01027600  0.24919300  0.26833000  1
  H  H6  1  0.97645500  0.74654900  0.72996000  1
  H  H7  1  0.95989000  0.76606300  0.04760900  1
  H  H8  1  0.95119500  0.22942400  0.95541200  1
  H  H9  1  0.04011000  0.76606300  0.95239100  1
  H  H10  1  0.04880500  0.22942400  0.04458900  1
  H  H11  1  0.96603300  0.76533300  0.17156600  1
  H  H12  1  0.93827900  0.22665200  0.83073100  1
  H  H13  1  0.03396600  0.76533300  0.82843400  1
  H  H14  1  0.06172000  0.22665200  0.16926900  1
  H  H15  1  0.69256900  0.53881300  0.67024000  1
  H  H16  1  0.30743100  0.53881300  0.32976000  1
  H  H17  1  0.45025800  0.43473100  0.67045200  1
  H  H18  1  0.54974100  0.43473100  0.32954800  1
  H  H19  1  0.55704500  0.53454000  0.67235500  1
  H  H20  1  0.44295400  0.53454000  0.32764600  1
  H  H21  1  0.80932400  0.45892200  0.39600200  1
  H  H22  1  0.19067600  0.45892200  0.60399800  1
  H  H23  1  0.80886900  0.52398500  0.60962600  1
  H  H24  1  0.19113000  0.52398500  0.39037400  1
  H  H25  1  0.26417000  0.50201600  0.81486900  1
  H  H26  1  0.19854700  0.36021100  0.77757500  1
  H  H27  1  0.17406100  0.71521000  0.78451900  1
  H  H28  1  0.13062800  0.56925800  0.83914300  1
  H  H29  1  0.10842700  0.57335200  0.74733900  1
  H  H30  1  0.73583000  0.50201600  0.18513100  1
  H  H31  1  0.80145300  0.36021100  0.22242500  1
  H  H32  1  0.82593800  0.71521000  0.21548100  1
  H  H33  1  0.86937200  0.56925700  0.16085800  1
  H  H34  1  0.89157300  0.57335200  0.25266200  1
  C  C1  1  0.00469200  0.13573900  0.63611400  1
  C  C2  1  0.99598900  0.85743400  0.36399200  1
  C  C3  1  0.99530800  0.13573900  0.36388600  1
  C  C4  1  0.00401100  0.85743400  0.63600900  1
  C  C5  1  0.99206500  0.13734500  0.70619100  1
  C  C6  1  0.01227900  0.85719800  0.29456600  1
  C  C7  1  0.00793400  0.13734500  0.29380900  1
  C  C8  1  0.98772100  0.85719800  0.70543400  1
  C  C9  1  0.98713800  0.99707700  0.74231900  1
  C  C10  1  0.01286200  0.99707700  0.25768100  1
  C  C11  1  0.01627400  0.99647200  0.60291200  1
  C  C12  1  0.98372600  0.99647200  0.39708800  1
  C  C13  1  0.98295100  0.86704900  0.07422700  1
  C  C14  1  0.96925400  0.12728400  0.92720400  1
  C  C15  1  0.01704900  0.86704900  0.92577300  1
  C  C16  1  0.03074600  0.12728400  0.07279600  1
  C  C17  1  0.98731700  0.86658000  0.14527100  1
  C  C18  1  0.96247400  0.12538400  0.85598400  1
  C  C19  1  0.01268200  0.86658000  0.85473000  1
  C  C20  1  0.03752600  0.12538400  0.14401600  1
  C  C21  1  0.01451600  0.99559900  0.18128200  1
  C  C22  1  0.98548400  0.99559900  0.81871800  1
  C  C23  1  0.00339800  0.99807000  0.03770700  1
  C  C24  1  0.99660100  0.99806900  0.96229300  1
  C  C25  1  0.00284100  0.71496500  0.59427900  1
  C  C26  1  0.99695400  0.27788800  0.40563900  1
  C  C27  1  0.99715900  0.71496500  0.40572100  1
  C  C28  1  0.00304600  0.27788800  0.59436200  1
  C  C29  1  0.77736500  0.51134800  0.56146800  1
  C  C30  1  0.22263500  0.51134800  0.43853200  1
  C  C31  1  0.77669600  0.47640900  0.44175200  1
  C  C32  1  0.22330400  0.47640900  0.55824900  1
  C  C33  1  0.65821000  0.49339400  0.49999900  1
  C  C34  1  0.34179000  0.49339400  0.50000100  1
  C  C35  1  0.69881300  0.50881700  0.56117400  1
  C  C36  1  0.30118700  0.50881700  0.43882600  1
  C  C37  1  0.66102300  0.52294700  0.62227400  1
  C  C38  1  0.33897700  0.52294600  0.37772700  1
  C  C39  1  0.69752000  0.47771200  0.43919600  1
  C  C40  1  0.30248000  0.47771200  0.56080400  1
  C  C41  1  0.46146300  0.48282500  0.56170100  1
  C  C42  1  0.53853700  0.48282500  0.43829900  1
  C  C43  1  0.45921300  0.49634400  0.43794800  1
  C  C44  1  0.54078700  0.49634400  0.56205200  1
  C  C45  1  0.42094400  0.49136100  0.49989900  1
  C  C46  1  0.57905600  0.49136100  0.50010100  1
  C  C47  1  0.42171800  0.45783100  0.62195900  1
  C  C48  1  0.57828200  0.45783000  0.37804100  1
  C  C49  1  0.34325800  0.45548000  0.62216700  1
  C  C50  1  0.65674200  0.45548000  0.37783300  1
  C  C51  1  0.58282600  0.51646800  0.62303100  1
  C  C52  1  0.41717400  0.51646800  0.37696900  1
  C  C53  1  0.30725700  0.42347400  0.68865700  1
  C  C54  1  0.21927200  0.48253100  0.77471500  1
  C  C55  1  0.15364300  0.59267600  0.78719300  1
  C  C56  1  0.69274200  0.42347400  0.31134300  1
  C  C57  1  0.78072800  0.48253100  0.22528500  1
  C  C58  1  0.84635700  0.59267600  0.21280700  1
  N  N1  1  0.81502500  0.49613000  0.50206500  1
  N  N2  1  0.18497500  0.49613000  0.49793500  1
  O  O1  1  0.06745600  0.66561000  0.56887200  1
  O  O2  1  0.93256800  0.32682900  0.43122600  1
  O  O3  1  0.93254400  0.66561000  0.43112800  1
  O  O4  1  0.06743200  0.32682900  0.56877400  1
  O  O5  1  0.93614500  0.65963700  0.57452700  1
  O  O6  1  0.06376900  0.33308600  0.42536000  1
  O  O7  1  0.06385500  0.65963700  0.42547300  1
  O  O8  1  0.93623000  0.33308600  0.57464000  1
  O  O9  1  0.33582400  0.32657000  0.72740800  1
  O  O10  1  0.24843600  0.51006900  0.71066700  1
  O  O11  1  0.66417600  0.32656900  0.27259200  1
  O  O12  1  0.75156400  0.51006900  0.28933300  1
