# generated using pymatgen
data_Zn2H10C23N3ClO8
_symmetry_space_group_name_H-M   'P 1'
_cell_length_a   8.52969900
_cell_length_b   9.17261700
_cell_length_c   10.71494400
_cell_angle_alpha   97.95651000
_cell_angle_beta   90.00839300
_cell_angle_gamma   90.11225600
_symmetry_Int_Tables_number   1
_chemical_formula_structural   Zn2H10C23N3ClO8
_chemical_formula_sum   'Zn2 H10 C23 N3 Cl1 O8'
_cell_volume   830.26164627
_cell_formula_units_Z   1
loop_
 _symmetry_equiv_pos_site_id
 _symmetry_equiv_pos_as_xyz
  1  'x, y, z'
loop_
 _atom_site_type_symbol
 _atom_site_label
 _atom_site_symmetry_multiplicity
 _atom_site_fract_x
 _atom_site_fract_y
 _atom_site_fract_z
 _atom_site_occupancy
  Zn  Zn1  1  0.50040300  0.83771600  0.50018000  1
  Zn  Zn2  1  0.50131200  0.16230000  0.49382500  1
  H  H1  1  0.38941100  0.98006000  0.10130000  1
  H  H2  1  0.00434300  0.91655600  0.40433300  1
  H  H3  1  0.00446500  0.08311100  0.58890800  1
  H  H4  1  0.74570200  0.01184500  0.09320000  1
  H  H5  1  0.74570400  0.98854400  0.90049700  1
  H  H6  1  0.24915100  0.39533800  0.45021900  1
  H  H7  1  0.41985600  0.57397300  0.30339400  1
  H  H8  1  0.67484500  0.38657500  0.33950300  1
  H  H9  1  0.58228800  0.42586000  0.69054600  1
  H  H10  1  0.32716500  0.61328400  0.65481100  1
  C  C1  1  0.00251700  0.93363300  0.30669900  1
  C  C2  1  0.86201500  0.95459300  0.24975500  1
  C  C3  1  0.85879400  0.98637200  0.12851400  1
  C  C4  1  0.14116900  0.95361900  0.24604200  1
  C  C5  1  0.13921400  0.97780600  0.12078400  1
  C  C6  1  0.99703700  0.98945700  0.05995700  1
  C  C7  1  0.99711800  0.01103600  0.93368200  1
  C  C8  1  0.85891200  0.01388500  0.86514000  1
  C  C9  1  0.86233500  0.04501900  0.74371600  1
  C  C10  1  0.27766300  0.98957900  0.05567000  1
  C  C11  1  0.13912800  0.02255700  0.87234400  1
  C  C12  1  0.14110800  0.04675900  0.74741900  1
  C  C13  1  0.00268400  0.06621100  0.68658300  1
  C  C14  1  0.72054900  0.96818400  0.32642400  1
  C  C15  1  0.72091700  0.03130700  0.66725400  1
  C  C16  1  0.28335000  0.03247400  0.67044300  1
  C  C17  1  0.28265700  0.96813300  0.32407100  1
  C  C18  1  0.45764600  0.53893700  0.39367300  1
  C  C19  1  0.36625800  0.44502600  0.47231300  1
  C  C20  1  0.59326900  0.43970400  0.41250500  1
  C  C21  1  0.63304100  0.55380500  0.52127200  1
  C  C22  1  0.54353700  0.46076600  0.60046400  1
  C  C23  1  0.40795600  0.55994700  0.58130100  1
  N  N1  1  0.27516800  0.01073700  0.93378300  1
  N  N2  1  0.50170500  0.35339300  0.49149400  1
  N  N3  1  0.49940500  0.64660300  0.50249300  1
  Cl  Cl1  1  0.82251900  0.62993300  0.55599700  1
  O  O1  1  0.66999500  0.10163700  0.36569300  1
  O  O2  1  0.66491800  0.84979800  0.36702900  1
  O  O3  1  0.66969200  0.89787500  0.62814100  1
  O  O4  1  0.66599900  0.14970200  0.62670000  1
  O  O5  1  0.33211300  0.89891600  0.62872900  1
  O  O6  1  0.33761000  0.15006400  0.62768000  1
  O  O7  1  0.33231300  0.10164700  0.36551300  1
  O  O8  1  0.33644400  0.85050900  0.36665200  1
