# generated using pymatgen
data_ZnH13C23NO4
_symmetry_space_group_name_H-M   'P 1'
_cell_length_a   8.56356000
_cell_length_b   11.03463100
_cell_length_c   17.51000200
_cell_angle_alpha   90.54925300
_cell_angle_beta   92.62473100
_cell_angle_gamma   80.55976500
_symmetry_Int_Tables_number   1
_chemical_formula_structural   ZnH13C23NO4
_chemical_formula_sum   'Zn2 H26 C46 N2 O8'
_cell_volume   1630.49620289
_cell_formula_units_Z   2
loop_
 _symmetry_equiv_pos_site_id
 _symmetry_equiv_pos_as_xyz
  1  'x, y, z'
loop_
 _atom_site_type_symbol
 _atom_site_label
 _atom_site_symmetry_multiplicity
 _atom_site_fract_x
 _atom_site_fract_y
 _atom_site_fract_z
 _atom_site_occupancy
  Zn  Zn1  1  0.49161800  0.47867500  0.91566000  1
  Zn  Zn2  1  0.50040600  0.52057600  0.08451200  1
  H  H1  1  0.99588200  0.57965500  0.96192800  1
  H  H2  1  0.99589500  0.41965000  0.03827100  1
  H  H3  1  0.64633800  0.89223700  0.99663100  1
  H  H4  1  0.34556900  0.10715500  0.00352000  1
  H  H5  1  0.27883100  0.91018300  0.99514800  1
  H  H6  1  0.71313200  0.08909400  0.00508200  1
  H  H7  1  0.53159500  0.16763200  0.66882100  1
  H  H8  1  0.48115900  0.82969700  0.33240700  1
  H  H9  1  0.52903100  0.22631700  0.29147300  1
  H  H10  1  0.42090800  0.77414200  0.70670900  1
  H  H11  1  0.51966100  0.20109100  0.42412800  1
  H  H12  1  0.42140200  0.79903200  0.57327600  1
  H  H13  1  0.53763700  0.18372200  0.53852400  1
  H  H14  1  0.47609600  0.81259100  0.46312700  1
  H  H15  1  0.44849900  0.65087900  0.81496500  1
  H  H16  1  0.52662900  0.34887000  0.18443900  1
  H  H17  1  0.74955400  0.16437900  0.74236700  1
  H  H18  1  0.79251300  0.23391800  0.83199500  1
  H  H19  1  0.73939600  0.08219200  0.83010200  1
  H  H20  1  0.51855500  0.23436800  0.87048700  1
  H  H21  1  0.46437200  0.16765400  0.78464900  1
  H  H22  1  0.69914400  0.80103000  0.26488100  1
  H  H23  1  0.74566700  0.75013700  0.16979100  1
  H  H24  1  0.64769000  0.90557100  0.18530500  1
  H  H25  1  0.46999200  0.76539000  0.13022300  1
  H  H26  1  0.40121600  0.83611500  0.21476700  1
  C  C1  1  0.08562100  0.74624100  0.97991600  1
  C  C2  1  0.90628800  0.25300900  0.02032600  1
  C  C3  1  0.96608100  0.67744200  0.97020500  1
  C  C4  1  0.02575500  0.32186500  0.03000000  1
  C  C5  1  0.81066800  0.73000700  0.97863600  1
  C  C6  1  0.18115500  0.26936100  0.02151400  1
  C  C7  1  0.76925200  0.85322000  0.98996600  1
  C  C8  1  0.22264900  0.14613300  0.01020500  1
  C  C9  1  0.88398200  0.92582500  0.99356600  1
  C  C10  1  0.10797000  0.07346900  0.00665500  1
  C  C11  1  0.04279000  0.87287100  0.99090300  1
  C  C12  1  0.94916300  0.12639800  0.00933800  1
  C  C13  1  0.83734600  0.05093300  0.00247000  1
  C  C14  1  0.15461800  0.94834500  0.99776700  1
  C  C15  1  0.29967400  0.34641200  0.01427600  1
  C  C16  1  0.69205200  0.65303200  0.98586100  1
  C  C17  1  0.24955700  0.67625400  0.98578100  1
  C  C18  1  0.74235000  0.32292900  0.01445000  1
  C  C19  1  0.50785100  0.35356000  0.77264100  1
  C  C20  1  0.50017700  0.64455600  0.22804600  1
  C  C21  1  0.46259600  0.56788500  0.78119600  1
  C  C22  1  0.51720300  0.43150700  0.21845700  1
  C  C23  1  0.48395400  0.47595900  0.65785600  1
  C  C24  1  0.50249800  0.52274000  0.34206000  1
  C  C25  1  0.50381900  0.36242800  0.69267500  1
  C  C26  1  0.49644100  0.63574200  0.30783000  1
  C  C27  1  0.51995200  0.25935300  0.64656100  1
  C  C28  1  0.48542600  0.73836100  0.35430000  1
  C  C29  1  0.46279000  0.57845400  0.70318900  1
  C  C30  1  0.51449100  0.42080400  0.29631000  1
  C  C31  1  0.50593000  0.39522000  0.45350200  1
  C  C32  1  0.47104700  0.60358900  0.54596500  1
  C  C33  1  0.48154600  0.61484400  0.46688300  1
  C  C34  1  0.50462200  0.38350500  0.53303600  1
  C  C35  1  0.49673600  0.51096000  0.42104200  1
  C  C36  1  0.48640200  0.48763800  0.57872200  1
  C  C37  1  0.51671100  0.29349300  0.40518300  1
  C  C38  1  0.44413000  0.70610300  0.59345000  1
  C  C39  1  0.52117400  0.30680400  0.32767000  1
  C  C40  1  0.44089000  0.69302600  0.67107600  1
  C  C41  1  0.52095000  0.26958700  0.56853000  1
  C  C42  1  0.47921800  0.72802200  0.43216500  1
  C  C43  1  0.54296700  0.22937800  0.80963400  1
  C  C44  1  0.71658800  0.17399000  0.80272200  1
  C  C45  1  0.49706100  0.76759900  0.19190200  1
  C  C46  1  0.65722100  0.80885200  0.20411600  1
  N  N1  1  0.48523900  0.45756100  0.81592300  1
  N  N2  1  0.50703800  0.54150200  0.18424700  1
  O  O1  1  0.34709700  0.40052200  0.07559800  1
  O  O2  1  0.64443900  0.59908600  0.92449700  1
  O  O3  1  0.34688100  0.36241600  0.94562800  1
  O  O4  1  0.64502000  0.63690500  0.05454300  1
  O  O5  1  0.30425400  0.61448600  0.92506200  1
  O  O6  1  0.68750200  0.38457500  0.07512300  1
  O  O7  1  0.31530800  0.65217200  0.05471400  1
  O  O8  1  0.67671900  0.34720600  0.94556900  1
