# generated using pymatgen
data_Fe2H27C44N3O16
_symmetry_space_group_name_H-M   'P 1'
_cell_length_a   14.38622700
_cell_length_b   9.38711300
_cell_length_c   17.57566700
_cell_angle_alpha   89.18574200
_cell_angle_beta   90.99903900
_cell_angle_gamma   109.95960400
_symmetry_Int_Tables_number   1
_chemical_formula_structural   Fe2H27C44N3O16
_chemical_formula_sum   'Fe2 H27 C44 N3 O16'
_cell_volume   2230.51483247
_cell_formula_units_Z   1
loop_
 _symmetry_equiv_pos_site_id
 _symmetry_equiv_pos_as_xyz
  1  'x, y, z'
loop_
 _atom_site_type_symbol
 _atom_site_label
 _atom_site_symmetry_multiplicity
 _atom_site_fract_x
 _atom_site_fract_y
 _atom_site_fract_z
 _atom_site_occupancy
  Fe  Fe1  1  0.49470100  0.99815400  0.15687800  1
  Fe  Fe2  1  0.50179000  0.00584100  0.84101200  1
  H  H1  1  0.84409400  0.01161800  0.14560200  1
  H  H2  1  0.99367000  0.00487800  0.86102800  1
  H  H3  1  0.15009700  0.00668900  0.85230100  1
  H  H4  1  0.18096600  0.98171300  0.13001200  1
  H  H5  1  0.12405300  0.19834700  0.18554800  1
  H  H6  1  0.09794100  0.11398700  0.32579100  1
  H  H7  1  0.95706400  0.84250300  0.33182300  1
  H  H8  1  0.89861200  0.76517000  0.18841200  1
  H  H9  1  0.51218300  0.27496700  0.62610900  1
  H  H10  1  0.47630700  0.72601600  0.36885300  1
  H  H11  1  0.48969500  0.28511200  0.41087000  1
  H  H12  1  0.49922000  0.54715100  0.81420000  1
  H  H13  1  0.51550800  0.46163100  0.18483200  1
  H  H14  1  0.56409200  0.95234300  0.45130300  1
  H  H15  1  0.61160600  0.06648300  0.53481600  1
  H  H16  1  0.69578300  0.02703200  0.47010000  1
  H  H17  1  0.67195400  0.86976000  0.58814700  1
  H  H18  1  0.63253100  0.75749600  0.50406000  1
  H  H19  1  0.45408900  0.74302700  0.53270400  1
  H  H20  1  0.49824100  0.85996800  0.60770200  1
  H  H21  1  0.78423100  0.90329600  0.69814500  1
  H  H22  1  0.90663100  0.90307100  0.72357000  1
  H  H23  1  0.80635400  0.72569500  0.71024000  1
  H  H24  1  0.84748700  0.78791300  0.84774300  1
  H  H25  1  0.72232800  0.76957000  0.82238300  1
  H  H26  1  0.75545100  0.03257500  0.81823200  1
  H  H27  1  0.88260900  0.08358900  0.81528200  1
  C  C1  1  0.83934400  0.00641200  0.08450400  1
  C  C2  1  0.75226500  0.00624800  0.04982800  1
  C  C3  1  0.74505500  0.00571700  0.97081900  1
  C  C4  1  0.82555700  0.00660000  0.92729800  1
  C  C5  1  0.91235800  0.00383000  0.96364400  1
  C  C6  1  0.91864100  0.00094200  0.04236200  1
  C  C7  1  0.99339400  0.00308200  0.92216300  1
  C  C8  1  0.07842700  0.99988800  0.95768000  1
  C  C9  1  0.08484700  0.99373100  0.03566300  1
  C  C10  1  0.00458200  0.99434400  0.07854600  1
  C  C11  1  0.15717900  0.00272300  0.91350500  1
  C  C12  1  0.24474900  0.00269800  0.94638300  1
  C  C13  1  0.25206800  0.99513900  0.02505800  1
  C  C14  1  0.17165000  0.98692700  0.06915500  1
  C  C15  1  0.05813700  0.04944500  0.27775600  1
  C  C16  1  0.98505700  0.90863900  0.28109700  1
  C  C17  1  0.95478200  0.86867300  0.20709900  1
  C  C18  1  0.01067900  0.98693400  0.16175300  1
  C  C19  1  0.66935200  0.00326400  0.09938400  1
  C  C20  1  0.49694600  0.72990800  0.21739500  1
  C  C21  1  0.34708300  0.01610100  0.06317200  1
  C  C22  1  0.50159800  0.21387000  0.26590700  1
  C  C23  1  0.51580800  0.79348300  0.74141000  1
  C  C24  1  0.64946300  0.98480300  0.93374300  1
  C  C25  1  0.50455200  0.27511200  0.77949900  1
  C  C26  1  0.32676300  0.00881600  0.89633200  1
  C  C27  1  0.50447000  0.39672900  0.72603900  1
  C  C28  1  0.50937400  0.37998500  0.64855300  1
  C  C29  1  0.50875900  0.49415300  0.59790200  1
  C  C30  1  0.50853000  0.63431100  0.62639400  1
  C  C31  1  0.50580200  0.64957800  0.70528400  1
  C  C32  1  0.50048800  0.53052900  0.75358600  1
  C  C33  1  0.48486300  0.62394400  0.34751500  1
  C  C34  1  0.49708700  0.60831900  0.27082300  1
  C  C35  1  0.50850500  0.47692000  0.24500300  1
  C  C36  1  0.50447400  0.36039500  0.29535700  1
  C  C37  1  0.49366200  0.37774500  0.37233900  1
  C  C38  1  0.48557800  0.51137800  0.39852200  1
  C  C39  1  0.51363800  0.76987300  0.57633800  1
  C  C40  1  0.61571900  0.83863300  0.54178300  1
  C  C41  1  0.62196600  0.98029800  0.49656400  1
  C  C42  1  0.81675000  0.99987200  0.84157000  1
  C  C43  1  0.80104300  0.84001900  0.81461200  1
  C  C44  1  0.82623000  0.84342500  0.73111900  1
  N  N1  1  0.07334500  0.09627500  0.20488900  1
  N  N2  1  0.51325500  0.46264300  0.51933600  1
  N  N3  1  0.47684000  0.53673200  0.47662900  1
  O  O1  1  0.58821400  0.02140500  0.07251500  1
  O  O2  1  0.50916600  0.71557900  0.14443800  1
  O  O3  1  0.67662600  0.98225000  0.17291600  1
  O  O4  1  0.48551300  0.85432500  0.24224900  1
  O  O5  1  0.35773400  0.91541400  0.11202800  1
  O  O6  1  0.42194700  0.14110300  0.05070200  1
  O  O7  1  0.54307300  0.20754500  0.20054400  1
  O  O8  1  0.44552100  0.08893100  0.29918700  1
  O  O9  1  0.45706900  0.79676300  0.79706100  1
  O  O10  1  0.59108300  0.91557000  0.72505100  1
  O  O11  1  0.63640900  0.09091200  0.88970600  1
  O  O12  1  0.57706000  0.85505400  0.94176200  1
  O  O13  1  0.32107100  0.03790200  0.82349500  1
  O  O14  1  0.51373100  0.14925000  0.75501800  1
  O  O15  1  0.40427700  0.97997200  0.92265900  1
  O  O16  1  0.49420300  0.29097200  0.85260400  1
