# generated using pymatgen
data_Zn3H28C30(N7O6)2
_symmetry_space_group_name_H-M   'P 1'
_cell_length_a   38.50935500
_cell_length_b   21.87749500
_cell_length_c   21.85767200
_cell_angle_alpha   90.00000000
_cell_angle_beta   56.72538100
_cell_angle_gamma   90.00000000
_symmetry_Int_Tables_number   1
_chemical_formula_structural   Zn3H28C30(N7O6)2
_chemical_formula_sum   'Zn12 H112 C120 N56 O48'
_cell_volume   15395.72859246
_cell_formula_units_Z   4
loop_
 _symmetry_equiv_pos_site_id
 _symmetry_equiv_pos_as_xyz
  1  'x, y, z'
loop_
 _atom_site_type_symbol
 _atom_site_label
 _atom_site_symmetry_multiplicity
 _atom_site_fract_x
 _atom_site_fract_y
 _atom_site_fract_z
 _atom_site_occupancy
  Zn  Zn1  1  0.99996900  0.43266100  0.49991800  1
  Zn  Zn2  1  0.95296400  0.50151400  0.04496800  1
  Zn  Zn3  1  0.54701600  0.00136100  0.95481200  1
  Zn  Zn4  1  0.45296400  0.00151400  0.04496800  1
  Zn  Zn5  1  0.49996900  0.93266100  0.49991800  1
  Zn  Zn6  1  0.00001800  0.57112900  0.49983000  1
  Zn  Zn7  1  0.50001800  0.07112900  0.49983000  1
  Zn  Zn8  1  0.49867400  0.50149600  0.93216300  1
  Zn  Zn9  1  0.50133700  0.50145900  0.06806500  1
  Zn  Zn10  1  0.99867400  0.00149600  0.93216300  1
  Zn  Zn11  1  0.00133700  0.00145900  0.06806500  1
  Zn  Zn12  1  0.04701600  0.50136100  0.95481200  1
  H  H1  1  0.74978300  0.57335400  0.61924700  1
  H  H2  1  0.95594000  0.37601300  0.34682200  1
  H  H3  1  0.95637700  0.62563700  0.84500500  1
  H  H4  1  0.57884300  0.08052800  0.11887800  1
  H  H5  1  0.53807700  0.13037800  0.15888500  1
  H  H6  1  0.41789100  0.07202000  0.88327900  1
  H  H7  1  0.45637700  0.12563700  0.84500500  1
  H  H8  1  0.95925300  0.37397900  0.23688000  1
  H  H9  1  0.91855800  0.42394000  0.27524500  1
  H  H10  1  0.04614100  0.37708400  0.75858700  1
  H  H11  1  0.08462300  0.43071300  0.72193100  1
  H  H12  1  0.45925300  0.87397900  0.23688000  1
  H  H13  1  0.08570100  0.43522800  0.61421200  1
  H  H14  1  0.41855800  0.92394000  0.27524500  1
  H  H15  1  0.54614100  0.87708400  0.75858700  1
  H  H16  1  0.58462300  0.93071300  0.72193100  1
  H  H17  1  0.04933300  0.37851200  0.64877500  1
  H  H18  1  0.41723400  0.92926300  0.38315600  1
  H  H19  1  0.45594000  0.87601300  0.34682200  1
  H  H20  1  0.58570100  0.93522800  0.61421200  1
  H  H21  1  0.54933300  0.87851200  0.64877500  1
  H  H22  1  0.41804600  0.30312800  0.15172500  1
  H  H23  1  0.45614000  0.30394700  0.16916300  1
  H  H24  1  0.58300300  0.30471200  0.84917100  1
  H  H25  1  0.79346100  0.53072400  0.57594300  1
  H  H26  1  0.54492600  0.30570300  0.83169100  1
  H  H27  1  0.91804600  0.80312800  0.15172500  1
  H  H28  1  0.95614000  0.80394700  0.16916300  1
  H  H29  1  0.08300300  0.80471200  0.84917100  1
  H  H30  1  0.04492600  0.80570300  0.83169100  1
  H  H31  1  0.96001700  0.69736300  0.16641900  1
  H  H32  1  0.91979900  0.69662700  0.15444100  1
  H  H33  1  0.04165900  0.69910700  0.83277900  1
  H  H34  1  0.08179300  0.69822800  0.84497100  1
  H  H35  1  0.46001700  0.19736300  0.16641900  1
  H  H36  1  0.24996000  0.57190900  0.38109300  1
  H  H37  1  0.41979900  0.19662700  0.15444100  1
  H  H38  1  0.54165900  0.19910700  0.83277900  1
  H  H39  1  0.58179300  0.19822800  0.84497100  1
  H  H40  1  0.54609600  0.69789800  0.07876100  1
  H  H41  1  0.58320100  0.69907400  0.98718200  1
  H  H42  1  0.45286100  0.69821800  0.92083800  1
  H  H43  1  0.41576200  0.69861600  0.01243200  1
  H  H44  1  0.04609600  0.19789800  0.07876100  1
  H  H45  1  0.08320100  0.19907400  0.98718200  1
  H  H46  1  0.95286100  0.19821800  0.92083800  1
  H  H47  1  0.20637000  0.52908000  0.42419600  1
  H  H48  1  0.91576200  0.19861600  0.01243200  1
  H  H49  1  0.08171200  0.30563900  0.99350700  1
  H  H50  1  0.04259900  0.30455800  0.08398100  1
  H  H51  1  0.91671100  0.30522200  0.00734700  1
  H  H52  1  0.95581200  0.30489400  0.91685500  1
  H  H53  1  0.58171200  0.80563900  0.99350700  1
  H  H54  1  0.54259900  0.80455800  0.08398100  1
  H  H55  1  0.41671100  0.80522200  0.00734700  1
  H  H56  1  0.45581200  0.80489400  0.91685500  1
  H  H57  1  0.74606000  0.42705700  0.62541200  1
  H  H58  1  0.24978300  0.07335400  0.61924700  1
  H  H59  1  0.70343800  0.40491800  0.70575300  1
  H  H60  1  0.25400300  0.42563700  0.37449700  1
  H  H61  1  0.29670300  0.40373000  0.29413500  1
  H  H62  1  0.24606000  0.92705700  0.62541200  1
  H  H63  1  0.20343800  0.90491800  0.70575300  1
  H  H64  1  0.75400300  0.92563700  0.37449700  1
  H  H65  1  0.79670300  0.90373000  0.29413500  1
  H  H66  1  0.74792700  0.64943400  0.74777400  1
  H  H67  1  0.70399400  0.62790000  0.75403600  1
  H  H68  1  0.25175200  0.64811000  0.25269700  1
  H  H69  1  0.29346100  0.03072400  0.57594300  1
  H  H70  1  0.29570400  0.62675100  0.24646800  1
  H  H71  1  0.24792700  0.14943400  0.74777400  1
  H  H72  1  0.20399400  0.12790000  0.75403600  1
  H  H73  1  0.75175200  0.14811000  0.25269700  1
  H  H74  1  0.79570400  0.12675100  0.24646800  1
  H  H75  1  0.75365800  0.57431100  0.87277600  1
  H  H76  1  0.79714400  0.53122900  0.82964400  1
  H  H77  1  0.24629000  0.57308900  0.12736800  1
  H  H78  1  0.20290700  0.52977900  0.17026500  1
  H  H79  1  0.25365800  0.07431100  0.87277600  1
  H  H80  1  0.74996000  0.07190900  0.38109300  1
  H  H81  1  0.29714400  0.03122900  0.82964400  1
  H  H82  1  0.74629000  0.07308900  0.12736800  1
  H  H83  1  0.70290700  0.02977900  0.17026500  1
  H  H84  1  0.75013200  0.42676600  0.87415200  1
  H  H85  1  0.70598800  0.40541000  0.88110000  1
  H  H86  1  0.25012900  0.42554000  0.12556200  1
  H  H87  1  0.29429100  0.40436200  0.11865300  1
  H  H88  1  0.25013200  0.92676600  0.87415200  1
  H  H89  1  0.20598800  0.90541000  0.88110000  1
  H  H90  1  0.75012900  0.92554000  0.12556200  1
  H  H91  1  0.70637000  0.02908000  0.42419600  1
  H  H92  1  0.79429100  0.90436200  0.11865300  1
  H  H93  1  0.75222500  0.35527900  0.74426000  1
  H  H94  1  0.79483400  0.37689400  0.66361100  1
  H  H95  1  0.24809500  0.35393900  0.25532700  1
  H  H96  1  0.20540900  0.37531800  0.33599900  1
  H  H97  1  0.25222500  0.85527900  0.74426000  1
  H  H98  1  0.29483400  0.87689400  0.66361100  1
  H  H99  1  0.74809500  0.85393900  0.25532700  1
  H  H100  1  0.70540900  0.87531800  0.33599900  1
  H  H101  1  0.04189800  0.62955700  0.26191700  1
  H  H102  1  0.91723400  0.42926300  0.38315600  1
  H  H103  1  0.08056100  0.57622600  0.22384000  1
  H  H104  1  0.95274400  0.62358100  0.74181600  1
  H  H105  1  0.91643600  0.56678400  0.77808100  1
  H  H106  1  0.54189800  0.12955700  0.26191700  1
  H  H107  1  0.58056100  0.07622600  0.22384000  1
  H  H108  1  0.45274400  0.12358100  0.74181600  1
  H  H109  1  0.41643600  0.06678400  0.77808100  1
  H  H110  1  0.07884300  0.58052800  0.11887800  1
  H  H111  1  0.03807700  0.63037800  0.15888500  1
  H  H112  1  0.91789100  0.57202000  0.88327900  1
  C  C1  1  0.99914300  0.50310900  0.38091700  1
  C  C2  1  0.26439600  0.47294700  0.28621000  1
  C  C3  1  0.02564600  0.78332600  0.93546700  1
  C  C4  1  0.97558200  0.71925400  0.06452400  1
  C  C5  1  0.02585400  0.71992300  0.93507400  1
  C  C6  1  0.47558200  0.21925400  0.06452400  1
  C  C7  1  0.52585400  0.21992300  0.93507400  1
  C  C8  1  0.00077300  0.68809400  0.99955800  1
  C  C9  1  0.50077300  0.18809400  0.99955800  1
  C  C10  1  0.50048200  0.31460900  0.00050300  1
  C  C11  1  0.00048200  0.81460900  0.00050300  1
  C  C12  1  0.52524700  0.71992100  0.01450000  1
  C  C13  1  0.23562700  0.97425100  0.71379700  1
  C  C14  1  0.47361500  0.71990500  0.98533000  1
  C  C15  1  0.02524700  0.21992100  0.01450000  1
  C  C16  1  0.97361500  0.21990500  0.98533000  1
  C  C17  1  0.02519300  0.28332200  0.01456600  1
  C  C18  1  0.97334800  0.28329900  0.98600000  1
  C  C19  1  0.52519300  0.78332200  0.01456600  1
  C  C20  1  0.47334800  0.78329900  0.98600000  1
  C  C21  1  0.99919900  0.31479100  0.00044600  1
  C  C22  1  0.49919900  0.81479100  0.00044600  1
  C  C23  1  0.49952000  0.68833100  0.99970800  1
  C  C24  1  0.76439600  0.97294700  0.28621000  1
  C  C25  1  0.99952000  0.18833100  0.99970800  1
  C  C26  1  0.76280200  0.53045600  0.68652800  1
  C  C27  1  0.23709700  0.52902200  0.31360100  1
  C  C28  1  0.26280200  0.03045600  0.68652800  1
  C  C29  1  0.73709700  0.02902200  0.31360100  1
  C  C30  1  0.87420700  0.50293400  0.62407900  1
  C  C31  1  0.12578600  0.50084900  0.37574200  1
  C  C32  1  0.37420700  0.00293400  0.62407900  1
  C  C33  1  0.00083500  0.50070800  0.61882100  1
  C  C34  1  0.62578600  0.00084900  0.37574200  1
  C  C35  1  0.62574200  0.50205400  0.87239700  1
  C  C36  1  0.37426200  0.50127900  0.12776900  1
  C  C37  1  0.12574200  0.00205400  0.87239700  1
  C  C38  1  0.87426200  0.00127900  0.12776900  1
  C  C39  1  0.76369100  0.44636300  0.73443200  1
  C  C40  1  0.23643100  0.44497000  0.26540700  1
  C  C41  1  0.26369100  0.94636300  0.73443200  1
  C  C42  1  0.73643100  0.94497000  0.26540700  1
  C  C43  1  0.79135300  0.50258200  0.70666700  1
  C  C44  1  0.49914300  0.00310900  0.38091700  1
  C  C45  1  0.20864400  0.50105500  0.29329300  1
  C  C46  1  0.29135300  0.00258200  0.70666700  1
  C  C47  1  0.70864400  0.00105500  0.29329300  1
  C  C48  1  0.73714400  0.47442800  0.80958200  1
  C  C49  1  0.26295400  0.47320100  0.19034900  1
  C  C50  1  0.23714400  0.97442800  0.80958200  1
  C  C51  1  0.76295400  0.97320100  0.19034900  1
  C  C52  1  0.70859100  0.50231700  0.78945300  1
  C  C53  1  0.29141000  0.50118200  0.21064400  1
  C  C54  1  0.20859100  0.00231700  0.78945300  1
  C  C55  1  0.50083500  0.00070800  0.61882100  1
  C  C56  1  0.79141000  0.00118200  0.21064400  1
  C  C57  1  0.76430700  0.53061600  0.78230500  1
  C  C58  1  0.23566800  0.52925800  0.21774600  1
  C  C59  1  0.26430700  0.03061600  0.78230500  1
  C  C60  1  0.73566800  0.02925800  0.21774600  1
  C  C61  1  0.73626300  0.55849500  0.76167200  1
  C  C62  1  0.26361400  0.55722800  0.23854500  1
  C  C63  1  0.23626300  0.05849500  0.76167200  1
  C  C64  1  0.76361400  0.05722800  0.23854500  1
  C  C65  1  0.83678500  0.50277500  0.66133200  1
  C  C66  1  0.91878300  0.50314400  0.57984600  1
  C  C67  1  0.16321000  0.50097400  0.33855000  1
  C  C68  1  0.33678500  0.00277500  0.66133200  1
  C  C69  1  0.66321000  0.00097400  0.33855000  1
  C  C70  1  0.66316100  0.50219100  0.83492800  1
  C  C71  1  0.33684200  0.50125300  0.16521900  1
  C  C72  1  0.16316100  0.00219100  0.83492800  1
  C  C73  1  0.83684200  0.00125300  0.16521900  1
  C  C74  1  0.02347600  0.54380800  0.25842400  1
  C  C75  1  0.97478500  0.53990100  0.74259800  1
  C  C76  1  0.52347600  0.04380800  0.25842400  1
  C  C77  1  0.08120800  0.50064300  0.41991200  1
  C  C78  1  0.47478500  0.03990100  0.74259800  1
  C  C79  1  0.02344500  0.54328300  0.19504200  1
  C  C80  1  0.97481500  0.53992300  0.80598600  1
  C  C81  1  0.52344500  0.04328300  0.19504200  1
  C  C82  1  0.47481500  0.03992300  0.80598600  1
  C  C83  1  0.99873900  0.50205800  0.18779300  1
  C  C84  1  0.00125600  0.50136400  0.81191600  1
  C  C85  1  0.49873900  0.00205800  0.18779300  1
  C  C86  1  0.50125600  0.00136400  0.81191600  1
  C  C87  1  0.97406200  0.46128800  0.24342000  1
  C  C88  1  0.41878300  0.00314400  0.57984600  1
  C  C89  1  0.02763300  0.46268400  0.75496000  1
  C  C90  1  0.47406200  0.96128800  0.24342000  1
  C  C91  1  0.52763300  0.96268400  0.75496000  1
  C  C92  1  0.97422200  0.46152700  0.30668900  1
  C  C93  1  0.02745700  0.46235900  0.69170800  1
  C  C94  1  0.47422200  0.96152700  0.30668900  1
  C  C95  1  0.52745700  0.96235900  0.69170800  1
  C  C96  1  0.99890900  0.50284100  0.31408000  1
  C  C97  1  0.00106200  0.50103000  0.68564700  1
  C  C98  1  0.49890900  0.00284100  0.31408000  1
  C  C99  1  0.58120800  0.00064300  0.41991200  1
  C  C100  1  0.50106200  0.00103000  0.68564700  1
  C  C101  1  0.50030300  0.38171000  0.00098600  1
  C  C102  1  0.00030300  0.88171000  0.00098600  1
  C  C103  1  0.58117100  0.50186500  0.91706200  1
  C  C104  1  0.41883400  0.50129500  0.08310000  1
  C  C105  1  0.08117100  0.00186500  0.91706200  1
  C  C106  1  0.91883400  0.00129500  0.08310000  1
  C  C107  1  0.49971300  0.62127200  0.99923600  1
  C  C108  1  0.99971300  0.12127200  0.99923600  1
  C  C109  1  0.99906400  0.38175000  0.00073400  1
  C  C110  1  0.73562700  0.47425100  0.71379700  1
  C  C111  1  0.49906400  0.88175000  0.00073400  1
  C  C112  1  0.99874300  0.50159700  0.12085500  1
  C  C113  1  0.00125200  0.50140800  0.87887800  1
  C  C114  1  0.49874300  0.00159700  0.12085500  1
  C  C115  1  0.50125200  0.00140800  0.87887800  1
  C  C116  1  0.00091500  0.62111700  0.99909500  1
  C  C117  1  0.50091500  0.12111700  0.99909500  1
  C  C118  1  0.47548800  0.28265400  0.06507700  1
  C  C119  1  0.52564600  0.28332600  0.93546700  1
  C  C120  1  0.97548800  0.78265400  0.06507700  1
  N  N1  1  0.77632500  0.56183100  0.61847900  1
  N  N2  1  0.55227300  0.31683300  0.86973500  1
  N  N3  1  0.94872100  0.81547000  0.13131300  1
  N  N4  1  0.05227300  0.81683300  0.86973500  1
  N  N5  1  0.95100100  0.68550400  0.13083400  1
  N  N6  1  0.05065400  0.68686300  0.86828800  1
  N  N7  1  0.45100100  0.18550400  0.13083400  1
  N  N8  1  0.55065400  0.18686300  0.86828800  1
  N  N9  1  0.55269000  0.68671100  0.02700200  1
  N  N10  1  0.44633300  0.68665800  0.97245900  1
  N  N11  1  0.05269000  0.18671100  0.02700200  1
  N  N12  1  0.22346300  0.56028800  0.38176000  1
  N  N13  1  0.94633300  0.18665800  0.97245900  1
  N  N14  1  0.05067200  0.31675500  0.03157700  1
  N  N15  1  0.94769300  0.31672200  0.96938600  1
  N  N16  1  0.55067200  0.81675500  0.03157700  1
  N  N17  1  0.44769300  0.81672200  0.96938600  1
  N  N18  1  0.72031800  0.44287800  0.67463200  1
  N  N19  1  0.27973100  0.44159900  0.32535000  1
  N  N20  1  0.22031800  0.94287800  0.67463200  1
  N  N21  1  0.77973100  0.94159900  0.32535000  1
  N  N22  1  0.72182300  0.62130300  0.77614300  1
  N  N23  1  0.27632500  0.06183100  0.61847900  1
  N  N24  1  0.27791800  0.62010400  0.22428400  1
  N  N25  1  0.22182300  0.12130300  0.77614300  1
  N  N26  1  0.77791800  0.12010400  0.22428400  1
  N  N27  1  0.77945700  0.56229200  0.82152800  1
  N  N28  1  0.22049400  0.56091000  0.17854600  1
  N  N29  1  0.27945700  0.06229200  0.82152800  1
  N  N30  1  0.72049400  0.06091000  0.17854600  1
  N  N31  1  0.72362400  0.44307900  0.87764400  1
  N  N32  1  0.27658500  0.44195900  0.12217800  1
  N  N33  1  0.22362400  0.94307900  0.87764400  1
  N  N34  1  0.72346300  0.06028800  0.38176000  1
  N  N35  1  0.77658500  0.94195900  0.12217800  1
  N  N36  1  0.77829800  0.38362100  0.72012100  1
  N  N37  1  0.22196200  0.38215900  0.27950700  1
  N  N38  1  0.27829800  0.88362100  0.72012100  1
  N  N39  1  0.72196200  0.88215900  0.27950700  1
  N  N40  1  0.04978000  0.58475900  0.26588000  1
  N  N41  1  0.94680000  0.57803900  0.73638600  1
  N  N42  1  0.54978000  0.08475900  0.26588000  1
  N  N43  1  0.44680000  0.07803900  0.73638600  1
  N  N44  1  0.04758200  0.58632000  0.13790100  1
  N  N45  1  0.94806000  0.42093300  0.36554000  1
  N  N46  1  0.94882700  0.58088100  0.86452000  1
  N  N47  1  0.54758200  0.08632000  0.13790100  1
  N  N48  1  0.44882700  0.08088100  0.86452000  1
  N  N49  1  0.94977900  0.41791600  0.23375000  1
  N  N50  1  0.05372200  0.42190400  0.76319800  1
  N  N51  1  0.44977900  0.91791600  0.23375000  1
  N  N52  1  0.55372200  0.92190400  0.76319800  1
  N  N53  1  0.05528600  0.42397700  0.63154700  1
  N  N54  1  0.44806000  0.92093300  0.36554000  1
  N  N55  1  0.55528600  0.92397700  0.63154700  1
  N  N56  1  0.44872100  0.31547000  0.13131300  1
  O  O1  1  0.00017800  0.45049800  0.40876500  1
  O  O2  1  0.06204300  0.44778400  0.44023100  1
  O  O3  1  0.43822900  0.95045300  0.56224300  1
  O  O4  1  0.56204300  0.94778400  0.44023100  1
  O  O5  1  0.93794500  0.55599900  0.55933300  1
  O  O6  1  0.06176200  0.55333800  0.43769300  1
  O  O7  1  0.43794500  0.05599900  0.55933300  1
  O  O8  1  0.56176200  0.05333800  0.43769300  1
  O  O9  1  0.50028800  0.41063200  0.94836900  1
  O  O10  1  0.50013800  0.41014600  0.05400700  1
  O  O11  1  0.00028800  0.91063200  0.94836900  1
  O  O12  1  0.00172500  0.44787100  0.58958600  1
  O  O13  1  0.00013800  0.91014600  0.05400700  1
  O  O14  1  0.56100100  0.50349100  0.88445800  1
  O  O15  1  0.43900800  0.50003900  0.11570800  1
  O  O16  1  0.06100100  0.00349100  0.88445800  1
  O  O17  1  0.93900800  0.00003900  0.11570800  1
  O  O18  1  0.56274000  0.50034200  0.98839300  1
  O  O19  1  0.43726300  0.50279700  0.01177100  1
  O  O20  1  0.06274000  0.00034200  0.98839300  1
  O  O21  1  0.93726300  0.00279700  0.01177100  1
  O  O22  1  0.49965500  0.59286600  0.94640500  1
  O  O23  1  0.50017800  0.95049800  0.40876500  1
  O  O24  1  0.49993900  0.59238500  0.05167900  1
  O  O25  1  0.99965500  0.09286600  0.94640500  1
  O  O26  1  0.99993900  0.09238500  0.05167900  1
  O  O27  1  0.03484600  0.41050700  0.96543500  1
  O  O28  1  0.96318400  0.41016800  0.03620600  1
  O  O29  1  0.53484600  0.91050700  0.96543500  1
  O  O30  1  0.46318400  0.91016800  0.03620600  1
  O  O31  1  0.03457800  0.50336300  0.05766500  1
  O  O32  1  0.96540700  0.50050600  0.94209400  1
  O  O33  1  0.53457800  0.00336300  0.05766500  1
  O  O34  1  0.50172500  0.94787100  0.58958600  1
  O  O35  1  0.46540700  0.00050600  0.94209400  1
  O  O36  1  0.96294400  0.49967300  0.12687800  1
  O  O37  1  0.03706000  0.50244100  0.87286200  1
  O  O38  1  0.46294400  0.99967300  0.12687800  1
  O  O39  1  0.53706000  0.00244100  0.87286200  1
  O  O40  1  0.03678400  0.59269200  0.96275200  1
  O  O41  1  0.96514600  0.59234900  0.03517200  1
  O  O42  1  0.53678400  0.09269200  0.96275200  1
  O  O43  1  0.46514600  0.09234900  0.03517200  1
  O  O44  1  0.99845000  0.55592100  0.41002000  1
  O  O45  1  0.99962500  0.55329100  0.59111200  1
  O  O46  1  0.49845000  0.05592100  0.41002000  1
  O  O47  1  0.49962500  0.05329100  0.59111200  1
  O  O48  1  0.93822900  0.45045300  0.56224300  1
