# generated using pymatgen
data_VH8C9NO5
_symmetry_space_group_name_H-M   'P 1'
_cell_length_a   31.10219300
_cell_length_b   6.27514800
_cell_length_c   21.16590100
_cell_angle_alpha   90.00000000
_cell_angle_beta   60.47889200
_cell_angle_gamma   90.00000000
_symmetry_Int_Tables_number   1
_chemical_formula_structural   VH8C9NO5
_chemical_formula_sum   'V8 H64 C72 N8 O40'
_cell_volume   3594.66117705
_cell_formula_units_Z   8
loop_
 _symmetry_equiv_pos_site_id
 _symmetry_equiv_pos_as_xyz
  1  'x, y, z'
loop_
 _atom_site_type_symbol
 _atom_site_label
 _atom_site_symmetry_multiplicity
 _atom_site_fract_x
 _atom_site_fract_y
 _atom_site_fract_z
 _atom_site_occupancy
  V  V1  1  0.50989600  0.01235300  0.75236800  1
  V  V2  1  0.49010500  0.98732500  0.24763200  1
  V  V3  1  0.99010400  0.01235300  0.74763200  1
  V  V4  1  0.00989500  0.98732500  0.25236800  1
  V  V5  1  0.00989600  0.51235300  0.75236800  1
  V  V6  1  0.99010500  0.48732500  0.24763200  1
  V  V7  1  0.49010400  0.51235300  0.74763200  1
  V  V8  1  0.50989500  0.48732500  0.25236800  1
  H  H1  1  0.50054900  0.66319900  0.46550900  1
  H  H2  1  0.49943900  0.33647500  0.53450100  1
  H  H3  1  0.99945100  0.66319900  0.03449100  1
  H  H4  1  0.00056100  0.33647500  0.96549900  1
  H  H5  1  0.00054900  0.16319900  0.46550900  1
  H  H6  1  0.99943900  0.83647500  0.53450100  1
  H  H7  1  0.49945100  0.16319900  0.03449100  1
  H  H8  1  0.50056100  0.83647500  0.96549900  1
  H  H9  1  0.25732700  0.48834900  0.00640600  1
  H  H10  1  0.74267600  0.51132900  0.99360700  1
  H  H11  1  0.24267300  0.48834900  0.49359400  1
  H  H12  1  0.75732500  0.51132900  0.50639300  1
  H  H13  1  0.75732700  0.98834900  0.00640600  1
  H  H14  1  0.24267600  0.01132900  0.99360700  1
  H  H15  1  0.74267300  0.98834900  0.49359400  1
  H  H16  1  0.25732500  0.01132900  0.50639300  1
  H  H17  1  0.43933100  0.08441000  0.43707100  1
  H  H18  1  0.47446500  0.26541000  0.36269700  1
  H  H19  1  0.44336800  0.36399400  0.45409200  1
  H  H20  1  0.58336600  0.21218800  0.36900900  1
  H  H21  1  0.55231600  0.31395800  0.32267300  1
  H  H22  1  0.55816400  0.02944300  0.33071000  1
  H  H23  1  0.41662200  0.78748100  0.63101300  1
  H  H24  1  0.44183000  0.97023800  0.66929900  1
  H  H25  1  0.44767500  0.68570600  0.67733500  1
  H  H26  1  0.56066300  0.91523500  0.56292400  1
  H  H27  1  0.55661800  0.63564700  0.54591200  1
  H  H28  1  0.52552900  0.73425300  0.63730400  1
  H  H29  1  0.06066900  0.08441000  0.06292900  1
  H  H30  1  0.02553500  0.26541000  0.13730300  1
  H  H31  1  0.05663200  0.36399400  0.04590700  1
  H  H32  1  0.91663500  0.21218800  0.13099000  1
  H  H33  1  0.94768400  0.31395700  0.17732700  1
  H  H34  1  0.94183600  0.02944300  0.16929000  1
  H  H35  1  0.08337800  0.78748100  0.86898600  1
  H  H36  1  0.05817000  0.97023900  0.83070200  1
  H  H37  1  0.05232500  0.68570400  0.82266500  1
  H  H38  1  0.93933700  0.91523500  0.93707600  1
  H  H39  1  0.94338200  0.63564700  0.95408800  1
  H  H40  1  0.97447100  0.73425300  0.86269600  1
  H  H41  1  0.93933100  0.58441000  0.43707100  1
  H  H42  1  0.97446500  0.76541000  0.36269700  1
  H  H43  1  0.94336800  0.86399400  0.45409200  1
  H  H44  1  0.08336600  0.71218800  0.36900900  1
  H  H45  1  0.05231600  0.81395800  0.32267300  1
  H  H46  1  0.05816400  0.52944300  0.33071000  1
  H  H47  1  0.91662200  0.28748100  0.63101300  1
  H  H48  1  0.94183000  0.47023800  0.66929900  1
  H  H49  1  0.94767500  0.18570600  0.67733500  1
  H  H50  1  0.06066300  0.41523500  0.56292400  1
  H  H51  1  0.05661800  0.13564700  0.54591200  1
  H  H52  1  0.02552900  0.23425300  0.63730400  1
  H  H53  1  0.56066900  0.58441000  0.06292900  1
  H  H54  1  0.52553500  0.76541000  0.13730300  1
  H  H55  1  0.55663200  0.86399400  0.04590700  1
  H  H56  1  0.41663500  0.71218800  0.13099000  1
  H  H57  1  0.44768400  0.81395700  0.17732700  1
  H  H58  1  0.44183600  0.52944300  0.16929000  1
  H  H59  1  0.58337800  0.28748100  0.86898600  1
  H  H60  1  0.55817000  0.47023900  0.83070200  1
  H  H61  1  0.55232500  0.18570400  0.82266500  1
  H  H62  1  0.43933700  0.41523500  0.93707600  1
  H  H63  1  0.44338200  0.13564700  0.95408800  1
  H  H64  1  0.47447100  0.23425300  0.86269600  1
  C  C1  1  0.59136900  0.71882700  0.66547700  1
  C  C2  1  0.40862900  0.28085200  0.33451500  1
  C  C3  1  0.90863100  0.71882700  0.83452300  1
  C  C4  1  0.09137100  0.28085200  0.16548500  1
  C  C5  1  0.09136900  0.21882700  0.66547700  1
  C  C6  1  0.90862900  0.78085200  0.33451500  1
  C  C7  1  0.40863100  0.21882700  0.83452300  1
  C  C8  1  0.59137100  0.78085200  0.16548500  1
  C  C9  1  0.50249300  0.71996300  0.86612100  1
  C  C10  1  0.49751500  0.27971400  0.13387300  1
  C  C11  1  0.99750800  0.71996300  0.63387900  1
  C  C12  1  0.00248500  0.27971400  0.36612700  1
  C  C13  1  0.00249300  0.21996300  0.86612100  1
  C  C14  1  0.99751500  0.77971400  0.13387300  1
  C  C15  1  0.49750800  0.21996300  0.63387900  1
  C  C16  1  0.50248500  0.77971400  0.36612700  1
  C  C17  1  0.49853800  0.19411800  0.56414100  1
  C  C18  1  0.50145000  0.80555500  0.43586800  1
  C  C19  1  0.00146200  0.19411800  0.93585900  1
  C  C20  1  0.99855000  0.80555500  0.06413200  1
  C  C21  1  0.99853800  0.69411800  0.56414100  1
  C  C22  1  0.00145000  0.30555500  0.43586800  1
  C  C23  1  0.50146200  0.69411800  0.93585900  1
  C  C24  1  0.49855000  0.30555500  0.06413200  1
  C  C25  1  0.49858500  0.00494300  0.53546300  1
  C  C26  1  0.50140300  0.99472800  0.46454600  1
  C  C27  1  0.00141500  0.00494300  0.96453700  1
  C  C28  1  0.99859700  0.99472800  0.03545400  1
  C  C29  1  0.99858500  0.50494300  0.53546300  1
  C  C30  1  0.00140300  0.49472800  0.46454600  1
  C  C31  1  0.50141500  0.50494300  0.96453700  1
  C  C32  1  0.49859700  0.49472800  0.03545400  1
  C  C33  1  0.35718300  0.18818000  0.88582300  1
  C  C34  1  0.64281900  0.81149800  0.11418900  1
  C  C35  1  0.14281700  0.18818000  0.61417700  1
  C  C36  1  0.85718100  0.81149800  0.38581100  1
  C  C37  1  0.85718300  0.68818000  0.88582300  1
  C  C38  1  0.14281900  0.31149800  0.11418900  1
  C  C39  1  0.64281700  0.68818000  0.61417700  1
  C  C40  1  0.35718100  0.31149800  0.38581100  1
  C  C41  1  0.26205000  0.16221400  0.98245000  1
  C  C42  1  0.73795200  0.83746400  0.01756300  1
  C  C43  1  0.23795000  0.16221400  0.51755000  1
  C  C44  1  0.76204800  0.83746400  0.48243700  1
  C  C45  1  0.76205000  0.66221400  0.98245000  1
  C  C46  1  0.23795200  0.33746400  0.01756300  1
  C  C47  1  0.73795000  0.66221400  0.51755000  1
  C  C48  1  0.26204800  0.33746400  0.48243700  1
  C  C49  1  0.18616700  0.32649400  0.07034500  1
  C  C50  1  0.81383500  0.67318400  0.92966900  1
  C  C51  1  0.31383300  0.32649400  0.42965500  1
  C  C52  1  0.68616500  0.67318400  0.57033100  1
  C  C53  1  0.68616700  0.82649400  0.07034500  1
  C  C54  1  0.31383500  0.17318400  0.92966900  1
  C  C55  1  0.81383300  0.82649400  0.42965500  1
  C  C56  1  0.18616500  0.17318400  0.57033100  1
  C  C57  1  0.46372800  0.22640600  0.41925800  1
  C  C58  1  0.55231900  0.18541600  0.35822600  1
  C  C59  1  0.44767200  0.81426000  0.64178600  1
  C  C60  1  0.53626400  0.77324800  0.58074300  1
  C  C61  1  0.03627200  0.22640600  0.08074200  1
  C  C62  1  0.94768100  0.18541600  0.14177400  1
  C  C63  1  0.05232800  0.81426000  0.85821400  1
  C  C64  1  0.96373600  0.77324800  0.91925700  1
  C  C65  1  0.96372800  0.72640600  0.41925800  1
  C  C66  1  0.05231900  0.68541600  0.35822600  1
  C  C67  1  0.94767200  0.31426000  0.64178600  1
  C  C68  1  0.03626400  0.27324800  0.58074300  1
  C  C69  1  0.53627200  0.72640600  0.08074200  1
  C  C70  1  0.44768100  0.68541600  0.14177400  1
  C  C71  1  0.55232800  0.31426000  0.85821400  1
  C  C72  1  0.46373600  0.27324800  0.91925700  1
  N  N1  1  0.50666000  0.18471800  0.42616300  1
  N  N2  1  0.49332900  0.81495400  0.57384600  1
  N  N3  1  0.99334000  0.18471800  0.07383700  1
  N  N4  1  0.00667100  0.81495400  0.92615400  1
  N  N5  1  0.00666000  0.68471800  0.42616300  1
  N  N6  1  0.99332900  0.31495400  0.57384600  1
  N  N7  1  0.49334000  0.68471800  0.07383700  1
  N  N8  1  0.50667100  0.31495400  0.92615400  1
  O  O1  1  0.49312500  0.54923400  0.83761100  1
  O  O2  1  0.50688000  0.45044400  0.16238500  1
  O  O3  1  0.00687500  0.54923400  0.66238900  1
  O  O4  1  0.99312000  0.45044400  0.33761500  1
  O  O5  1  0.99312500  0.04923400  0.83761100  1
  O  O6  1  0.00688000  0.95044400  0.16238500  1
  O  O7  1  0.50687500  0.04923400  0.66238900  1
  O  O8  1  0.49312000  0.95044400  0.33761500  1
  O  O9  1  0.57896200  0.91349900  0.69168700  1
  O  O10  1  0.42103800  0.08618000  0.30830600  1
  O  O11  1  0.92103800  0.91349900  0.80831300  1
  O  O12  1  0.07896200  0.08618000  0.19169400  1
  O  O13  1  0.07896200  0.41349900  0.69168700  1
  O  O14  1  0.92103800  0.58618000  0.30830600  1
  O  O15  1  0.42103800  0.41349900  0.80831300  1
  O  O16  1  0.57896200  0.58618000  0.19169400  1
  O  O17  1  0.51395900  0.91366200  0.83789600  1
  O  O18  1  0.48604800  0.08601600  0.16209800  1
  O  O19  1  0.98604100  0.91366200  0.66210400  1
  O  O20  1  0.01395300  0.08601600  0.33790200  1
  O  O21  1  0.01395900  0.41366200  0.83789600  1
  O  O22  1  0.98604800  0.58601600  0.16209800  1
  O  O23  1  0.48604100  0.41366200  0.66210400  1
  O  O24  1  0.51395300  0.58601600  0.33790200  1
  O  O25  1  0.43802000  0.04986600  0.81722200  1
  O  O26  1  0.56198200  0.94981200  0.18278400  1
  O  O27  1  0.06198000  0.04986600  0.68277800  1
  O  O28  1  0.93801800  0.94981200  0.31721600  1
  O  O29  1  0.93802000  0.54986600  0.81722200  1
  O  O30  1  0.06198200  0.44981200  0.18278400  1
  O  O31  1  0.56198000  0.54986600  0.68277800  1
  O  O32  1  0.43801800  0.44981200  0.31721600  1
  O  O33  1  0.47583100  0.76801500  0.74278000  1
  O  O34  1  0.52416800  0.23166300  0.25722200  1
  O  O35  1  0.02416900  0.76801500  0.75722000  1
  O  O36  1  0.97583200  0.23166300  0.24277800  1
  O  O37  1  0.97583100  0.26801500  0.74278000  1
  O  O38  1  0.02416800  0.73166300  0.25722200  1
  O  O39  1  0.52416900  0.26801500  0.75722000  1
  O  O40  1  0.47583200  0.73166300  0.24277800  1
