# generated using pymatgen
data_VH6C10N2O7
_symmetry_space_group_name_H-M   'P 1'
_cell_length_a   6.82292500
_cell_length_b   14.15786600
_cell_length_c   15.80991700
_cell_angle_alpha   90.00000000
_cell_angle_beta   90.00000000
_cell_angle_gamma   90.00000000
_symmetry_Int_Tables_number   1
_chemical_formula_structural   VH6C10N2O7
_chemical_formula_sum   'V4 H24 C40 N8 O28'
_cell_volume   1527.20727741
_cell_formula_units_Z   4
loop_
 _symmetry_equiv_pos_site_id
 _symmetry_equiv_pos_as_xyz
  1  'x, y, z'
loop_
 _atom_site_type_symbol
 _atom_site_label
 _atom_site_symmetry_multiplicity
 _atom_site_fract_x
 _atom_site_fract_y
 _atom_site_fract_z
 _atom_site_occupancy
  V  V1  1  0.18632000  0.76138300  0.25033600  1
  V  V2  1  0.81368000  0.23861700  0.75033600  1
  V  V3  1  0.68632000  0.73861700  0.24966400  1
  V  V4  1  0.31368000  0.26138300  0.74966400  1
  H  H1  1  0.71294600  0.40817700  0.54837200  1
  H  H2  1  0.28913200  0.57742900  0.44212300  1
  H  H3  1  0.28705400  0.59182300  0.04837200  1
  H  H4  1  0.71086800  0.42257100  0.94212300  1
  H  H5  1  0.21294600  0.09182300  0.95162800  1
  H  H6  1  0.78913200  0.92257100  0.05787700  1
  H  H7  1  0.78705400  0.90817700  0.45162800  1
  H  H8  1  0.21086800  0.07742900  0.55787700  1
  H  H9  1  0.42110800  0.45882100  0.36887400  1
  H  H10  1  0.54214000  0.39938200  0.44503800  1
  H  H11  1  0.48979900  0.33817100  0.62280800  1
  H  H12  1  0.32060600  0.30733600  0.54741100  1
  H  H13  1  0.57889200  0.54117900  0.86887400  1
  H  H14  1  0.45786000  0.60061800  0.94503800  1
  H  H15  1  0.51020100  0.66182900  0.12280800  1
  H  H16  1  0.67939400  0.69266400  0.04741100  1
  H  H17  1  0.92110800  0.04117900  0.13112600  1
  H  H18  1  0.04214000  0.10061800  0.05496200  1
  H  H19  1  0.98979900  0.16182900  0.87719200  1
  H  H20  1  0.82060600  0.19266400  0.95258900  1
  H  H21  1  0.07889200  0.95882100  0.63112600  1
  H  H22  1  0.95786000  0.89938200  0.55496200  1
  H  H23  1  0.01020100  0.83817100  0.37719200  1
  H  H24  1  0.17939400  0.80733600  0.45258900  1
  C  C1  1  0.46671500  0.85795400  0.37298700  1
  C  C2  1  0.53320000  0.13292800  0.63377600  1
  C  C3  1  0.53328500  0.14204600  0.87298700  1
  C  C4  1  0.46680000  0.86707200  0.13377600  1
  C  C5  1  0.96671500  0.64204600  0.12701300  1
  C  C6  1  0.03320000  0.36707200  0.86622400  1
  C  C7  1  0.03328500  0.35795400  0.62701300  1
  C  C8  1  0.96680000  0.63292800  0.36622400  1
  C  C9  1  0.81599000  0.51416300  0.46303300  1
  C  C10  1  0.18391200  0.47072800  0.52573100  1
  C  C11  1  0.18401000  0.48583700  0.96303300  1
  C  C12  1  0.81608800  0.52927200  0.02573100  1
  C  C13  1  0.31599000  0.98583700  0.03696700  1
  C  C14  1  0.68391200  0.02927200  0.97426900  1
  C  C15  1  0.68401000  0.01416300  0.53696700  1
  C  C16  1  0.31608800  0.97072800  0.47426900  1
  C  C17  1  0.83892200  0.44484200  0.52362900  1
  C  C18  1  0.16159200  0.54081200  0.46591700  1
  C  C19  1  0.16107800  0.55515800  0.02362900  1
  C  C20  1  0.83840800  0.45918800  0.96591700  1
  C  C21  1  0.33892200  0.05515800  0.97637100  1
  C  C22  1  0.66159200  0.95918800  0.03408300  1
  C  C23  1  0.66107800  0.94484200  0.47637100  1
  C  C24  1  0.33840800  0.04081200  0.53408300  1
  C  C25  1  0.02084000  0.42403600  0.55622700  1
  C  C26  1  0.97916300  0.56256400  0.43382700  1
  C  C27  1  0.97916000  0.57596500  0.05622700  1
  C  C28  1  0.02083700  0.43743600  0.93382700  1
  C  C29  1  0.52084000  0.07596500  0.94377300  1
  C  C30  1  0.47916300  0.93743600  0.06617300  1
  C  C31  1  0.47916000  0.92403600  0.44377300  1
  C  C32  1  0.52083700  0.06256400  0.56617300  1
  C  C33  1  0.61769500  0.53577400  0.43302800  1
  C  C34  1  0.38160600  0.44689400  0.55430700  1
  C  C35  1  0.38230500  0.46422600  0.93302800  1
  C  C36  1  0.61839400  0.55310600  0.05430700  1
  C  C37  1  0.11769500  0.96422600  0.06697200  1
  C  C38  1  0.88160600  0.05310600  0.94569300  1
  C  C39  1  0.88230500  0.03577400  0.56697200  1
  C  C40  1  0.11839400  0.94689400  0.44569300  1
  N  N1  1  0.47285200  0.46316800  0.43089800  1
  N  N2  1  0.44059900  0.35042800  0.56124600  1
  N  N3  1  0.52714800  0.53683200  0.93089800  1
  N  N4  1  0.55940100  0.64957200  0.06124600  1
  N  N5  1  0.97285200  0.03683200  0.06910200  1
  N  N6  1  0.94059900  0.14957200  0.93875400  1
  N  N7  1  0.02714800  0.96316800  0.56910200  1
  N  N8  1  0.05940100  0.85042800  0.43875400  1
  O  O1  1  0.63455300  0.83272200  0.16064800  1
  O  O2  1  0.36541800  0.17402100  0.84402100  1
  O  O3  1  0.36544700  0.16727800  0.66064800  1
  O  O4  1  0.63458200  0.82597900  0.34402100  1
  O  O5  1  0.13455300  0.66727800  0.33935200  1
  O  O6  1  0.86541800  0.32597900  0.65597900  1
  O  O7  1  0.86544700  0.33272200  0.83935200  1
  O  O8  1  0.13458200  0.67402100  0.15597900  1
  O  O9  1  0.29289600  0.84466300  0.33944300  1
  O  O10  1  0.70700900  0.14911900  0.66624200  1
  O  O11  1  0.70710400  0.15533700  0.83944300  1
  O  O12  1  0.29299100  0.85088100  0.16624200  1
  O  O13  1  0.79289600  0.65533700  0.16055700  1
  O  O14  1  0.20700900  0.35088100  0.83375800  1
  O  O15  1  0.20710400  0.34466300  0.66055700  1
  O  O16  1  0.79299100  0.64911900  0.33375800  1
  O  O17  1  0.46070800  0.69281000  0.24835300  1
  O  O18  1  0.53929200  0.30719000  0.74835300  1
  O  O19  1  0.96070800  0.80719000  0.25164700  1
  O  O20  1  0.03929200  0.19281000  0.75164700  1
  O  O21  1  0.57216200  0.61645500  0.41484200  1
  O  O22  1  0.50341000  0.50941600  0.56120000  1
  O  O23  1  0.42783800  0.38354500  0.91484200  1
  O  O24  1  0.49659000  0.49058400  0.06120000  1
  O  O25  1  0.07216200  0.88354500  0.08515800  1
  O  O26  1  0.00341000  0.99058400  0.93880000  1
  O  O27  1  0.92783800  0.11645500  0.58515800  1
  O  O28  1  0.99659000  0.00941600  0.43880000  1
