# generated using pymatgen
data_CdH8(C7O3)2
_symmetry_space_group_name_H-M   'P 1'
_cell_length_a   17.84714300
_cell_length_b   17.84714300
_cell_length_c   23.43202600
_cell_angle_alpha   90.00000000
_cell_angle_beta   90.00000000
_cell_angle_gamma   90.00000000
_symmetry_Int_Tables_number   1
_chemical_formula_structural   CdH8(C7O3)2
_chemical_formula_sum   'Cd8 H64 C112 O48'
_cell_volume   7463.58094830
_cell_formula_units_Z   8
loop_
 _symmetry_equiv_pos_site_id
 _symmetry_equiv_pos_as_xyz
  1  'x, y, z'
loop_
 _atom_site_type_symbol
 _atom_site_label
 _atom_site_symmetry_multiplicity
 _atom_site_fract_x
 _atom_site_fract_y
 _atom_site_fract_z
 _atom_site_occupancy
  Cd  Cd1  1  0.05374500  0.85884300  0.50000200  1
  Cd  Cd2  1  0.94625400  0.14115600  0.50000200  1
  Cd  Cd3  1  0.85884300  0.94625400  0.50000200  1
  Cd  Cd4  1  0.14115600  0.05374600  0.50000200  1
  Cd  Cd5  1  0.55374500  0.35884300  0.00000200  1
  Cd  Cd6  1  0.44625400  0.64115600  0.00000200  1
  Cd  Cd7  1  0.35884300  0.44625400  0.00000200  1
  Cd  Cd8  1  0.64115600  0.55374600  0.00000200  1
  H  H1  1  0.17078000  0.70678100  0.67062100  1
  H  H2  1  0.82921900  0.29321900  0.32938200  1
  H  H3  1  0.70678000  0.82922000  0.67062100  1
  H  H4  1  0.29321800  0.17078000  0.32938200  1
  H  H5  1  0.82921900  0.29321900  0.67062100  1
  H  H6  1  0.17078000  0.70678100  0.32938200  1
  H  H7  1  0.29321800  0.17078000  0.67062100  1
  H  H8  1  0.70678000  0.82922000  0.32938200  1
  H  H9  1  0.67078000  0.20678100  0.17062100  1
  H  H10  1  0.32921900  0.79321900  0.82938200  1
  H  H11  1  0.20678000  0.32922000  0.17062100  1
  H  H12  1  0.79321800  0.67078000  0.82938200  1
  H  H13  1  0.32921900  0.79321900  0.17062100  1
  H  H14  1  0.67078000  0.20678100  0.82938200  1
  H  H15  1  0.79321900  0.67078000  0.17062100  1
  H  H16  1  0.20678000  0.32922000  0.82938200  1
  H  H17  1  0.07970700  0.61538900  0.73222200  1
  H  H18  1  0.11048100  0.66688700  0.79462700  1
  H  H19  1  0.10311500  0.56624700  0.79740600  1
  H  H20  1  0.88951800  0.33311200  0.20537700  1
  H  H21  1  0.92029200  0.38461100  0.26778200  1
  H  H22  1  0.89688400  0.43375300  0.20259700  1
  H  H23  1  0.61538900  0.92029300  0.73222200  1
  H  H24  1  0.66688700  0.88951800  0.79462700  1
  H  H25  1  0.56624600  0.89688500  0.79740600  1
  H  H26  1  0.33311200  0.11048100  0.20537700  1
  H  H27  1  0.38461000  0.07970700  0.26778200  1
  H  H28  1  0.43375200  0.10311500  0.20259700  1
  H  H29  1  0.92029200  0.38461100  0.73222200  1
  H  H30  1  0.88951800  0.33311300  0.79462700  1
  H  H31  1  0.89688400  0.43375300  0.79740600  1
  H  H32  1  0.11048100  0.66688700  0.20537700  1
  H  H33  1  0.07970700  0.61538900  0.26778200  1
  H  H34  1  0.10311400  0.56624700  0.20259700  1
  H  H35  1  0.38461000  0.07970700  0.73222200  1
  H  H36  1  0.33311200  0.11048100  0.79462700  1
  H  H37  1  0.43375300  0.10311500  0.79740600  1
  H  H38  1  0.66688700  0.88951900  0.20537700  1
  H  H39  1  0.61538900  0.92029300  0.26778200  1
  H  H40  1  0.56624600  0.89688500  0.20259700  1
  H  H41  1  0.57970700  0.11538900  0.23222200  1
  H  H42  1  0.61048100  0.16688700  0.29462700  1
  H  H43  1  0.60311500  0.06624700  0.29740600  1
  H  H44  1  0.38951800  0.83311300  0.70537700  1
  H  H45  1  0.42029200  0.88461100  0.76778200  1
  H  H46  1  0.39688400  0.93375300  0.70259700  1
  H  H47  1  0.11538900  0.42029300  0.23222200  1
  H  H48  1  0.16688700  0.38951900  0.29462700  1
  H  H49  1  0.06624600  0.39688500  0.29740600  1
  H  H50  1  0.83311200  0.61048100  0.70537700  1
  H  H51  1  0.88461000  0.57970700  0.76778200  1
  H  H52  1  0.93375200  0.60311500  0.70259700  1
  H  H53  1  0.42029200  0.88461100  0.23222200  1
  H  H54  1  0.38951800  0.83311300  0.29462700  1
  H  H55  1  0.39688400  0.93375300  0.29740600  1
  H  H56  1  0.61048100  0.16688700  0.70537700  1
  H  H57  1  0.57970700  0.11538900  0.76778200  1
  H  H58  1  0.60311400  0.06624700  0.70259700  1
  H  H59  1  0.88461000  0.57970700  0.23222200  1
  H  H60  1  0.83311200  0.61048100  0.29462700  1
  H  H61  1  0.93375300  0.60311500  0.29740600  1
  H  H62  1  0.16688700  0.38951900  0.70537700  1
  H  H63  1  0.11538900  0.42029300  0.76778200  1
  H  H64  1  0.06624600  0.39688500  0.70259700  1
  C  C1  1  0.94222500  0.82280600  0.57844800  1
  C  C2  1  0.05777400  0.17719400  0.42155500  1
  C  C3  1  0.82280600  0.05777500  0.57844800  1
  C  C4  1  0.17719300  0.94222500  0.42155500  1
  C  C5  1  0.05777400  0.17719400  0.57844800  1
  C  C6  1  0.94222500  0.82280600  0.42155500  1
  C  C7  1  0.17719300  0.94222500  0.57844800  1
  C  C8  1  0.82280600  0.05777500  0.42155500  1
  C  C9  1  0.44222500  0.32280600  0.07844800  1
  C  C10  1  0.55777400  0.67719400  0.92155500  1
  C  C11  1  0.32280600  0.55777500  0.07844800  1
  C  C12  1  0.67719300  0.44222500  0.92155500  1
  C  C13  1  0.55777400  0.67719400  0.07844800  1
  C  C14  1  0.44222500  0.32280600  0.92155500  1
  C  C15  1  0.67719300  0.44222500  0.07844800  1
  C  C16  1  0.32280600  0.55777500  0.92155500  1
  C  C17  1  0.78253000  0.15334600  0.34143600  1
  C  C18  1  0.21746900  0.84665400  0.65856700  1
  C  C19  1  0.15334500  0.21747000  0.34143600  1
  C  C20  1  0.84665400  0.78253000  0.65856700  1
  C  C21  1  0.21746900  0.84665400  0.34143600  1
  C  C22  1  0.78253000  0.15334600  0.65856700  1
  C  C23  1  0.84665300  0.78253000  0.34143600  1
  C  C24  1  0.15334500  0.21747000  0.65856700  1
  C  C25  1  0.28253000  0.65334600  0.84143600  1
  C  C26  1  0.71746900  0.34665400  0.15856700  1
  C  C27  1  0.65334500  0.71747000  0.84143600  1
  C  C28  1  0.34665300  0.28253000  0.15856700  1
  C  C29  1  0.71746900  0.34665400  0.84143600  1
  C  C30  1  0.28253000  0.65334600  0.15856700  1
  C  C31  1  0.34665300  0.28253000  0.84143600  1
  C  C32  1  0.65334500  0.71747000  0.15856700  1
  C  C33  1  0.79436400  0.27437100  0.29448700  1
  C  C34  1  0.20563500  0.72562800  0.70551600  1
  C  C35  1  0.27437100  0.20563500  0.29448700  1
  C  C36  1  0.72562800  0.79436400  0.70551600  1
  C  C37  1  0.20563500  0.72562800  0.29448700  1
  C  C38  1  0.79436400  0.27437100  0.70551600  1
  C  C39  1  0.72562800  0.79436400  0.29448700  1
  C  C40  1  0.27437100  0.20563500  0.70551600  1
  C  C41  1  0.29436400  0.77437100  0.79448700  1
  C  C42  1  0.70563500  0.22562800  0.20551600  1
  C  C43  1  0.77437100  0.70563500  0.79448700  1
  C  C44  1  0.22562800  0.29436400  0.20551600  1
  C  C45  1  0.70563500  0.22562800  0.79448700  1
  C  C46  1  0.29436400  0.77437100  0.20551600  1
  C  C47  1  0.22562800  0.29436400  0.79448700  1
  C  C48  1  0.77437100  0.70563500  0.20551600  1
  C  C49  1  0.20050100  0.88952300  0.62105300  1
  C  C50  1  0.79949800  0.11047700  0.37895000  1
  C  C51  1  0.88952300  0.79949900  0.62105300  1
  C  C52  1  0.11047600  0.20050100  0.37895000  1
  C  C53  1  0.79949800  0.11047700  0.62105300  1
  C  C54  1  0.20050100  0.88952300  0.37895000  1
  C  C55  1  0.11047600  0.20050100  0.62105300  1
  C  C56  1  0.88952300  0.79949900  0.37895000  1
  C  C57  1  0.70050100  0.38952300  0.12105300  1
  C  C58  1  0.29949800  0.61047700  0.87895000  1
  C  C59  1  0.38952300  0.29949900  0.12105300  1
  C  C60  1  0.61047600  0.70050100  0.87895000  1
  C  C61  1  0.29949800  0.61047700  0.12105300  1
  C  C62  1  0.70050100  0.38952300  0.87895000  1
  C  C63  1  0.61047600  0.70050100  0.12105300  1
  C  C64  1  0.38952300  0.29949900  0.87895000  1
  C  C65  1  0.21983000  0.67877000  0.75108400  1
  C  C66  1  0.78016900  0.32123000  0.24891900  1
  C  C67  1  0.67876900  0.78016900  0.75108400  1
  C  C68  1  0.32123000  0.21983100  0.24891900  1
  C  C69  1  0.78016900  0.32123000  0.75108400  1
  C  C70  1  0.21983000  0.67877000  0.24891900  1
  C  C71  1  0.32123000  0.21983100  0.75108400  1
  C  C72  1  0.67876900  0.78016900  0.24891900  1
  C  C73  1  0.71983000  0.17877000  0.25108400  1
  C  C74  1  0.28016900  0.82123000  0.74891900  1
  C  C75  1  0.17876900  0.28016900  0.25108400  1
  C  C76  1  0.82123000  0.71983100  0.74891900  1
  C  C77  1  0.28016900  0.82123000  0.25108400  1
  C  C78  1  0.71983000  0.17877000  0.74891900  1
  C  C79  1  0.82123000  0.71983100  0.25108400  1
  C  C80  1  0.17876900  0.28016900  0.74891900  1
  C  C81  1  0.76455700  0.20314500  0.29541400  1
  C  C82  1  0.23544100  0.79685500  0.70458900  1
  C  C83  1  0.20314500  0.23544200  0.29541400  1
  C  C84  1  0.79685400  0.76455800  0.70458900  1
  C  C85  1  0.23544100  0.79685500  0.29541400  1
  C  C86  1  0.76455700  0.20314500  0.70458900  1
  C  C87  1  0.79685400  0.76455800  0.29541400  1
  C  C88  1  0.20314500  0.23544200  0.70458900  1
  C  C89  1  0.26455800  0.70314500  0.79541400  1
  C  C90  1  0.73544100  0.29685400  0.20458900  1
  C  C91  1  0.70314500  0.73544200  0.79541400  1
  C  C92  1  0.29685400  0.26455800  0.20458900  1
  C  C93  1  0.73544100  0.29685400  0.79541400  1
  C  C94  1  0.26455700  0.70314500  0.20458900  1
  C  C95  1  0.29685400  0.26455800  0.79541400  1
  C  C96  1  0.70314500  0.73544200  0.20458900  1
  C  C97  1  0.11758400  0.61451800  0.76973400  1
  C  C98  1  0.88241500  0.38548200  0.23026900  1
  C  C99  1  0.61451700  0.88241500  0.76973400  1
  C  C100  1  0.38548200  0.11758500  0.23026900  1
  C  C101  1  0.88241500  0.38548200  0.76973400  1
  C  C102  1  0.11758400  0.61451800  0.23026900  1
  C  C103  1  0.38548200  0.11758500  0.76973400  1
  C  C104  1  0.61451700  0.88241500  0.23026900  1
  C  C105  1  0.61758400  0.11451800  0.26973400  1
  C  C106  1  0.38241500  0.88548200  0.73026900  1
  C  C107  1  0.11451700  0.38241500  0.26973400  1
  C  C108  1  0.88548200  0.61758400  0.73026900  1
  C  C109  1  0.38241500  0.88548200  0.26973400  1
  C  C110  1  0.61758400  0.11451800  0.73026900  1
  C  C111  1  0.88548200  0.61758500  0.26973400  1
  C  C112  1  0.11451700  0.38241500  0.73026900  1
  O  O1  1  0.94222800  0.89300000  0.56191700  1
  O  O2  1  0.05777100  0.10700000  0.43808600  1
  O  O3  1  0.89300000  0.05777200  0.56191700  1
  O  O4  1  0.10699900  0.94222800  0.43808600  1
  O  O5  1  0.05777100  0.10700000  0.56191700  1
  O  O6  1  0.94222800  0.89300000  0.43808600  1
  O  O7  1  0.10699900  0.94222800  0.56191700  1
  O  O8  1  0.89299900  0.05777200  0.43808600  1
  O  O9  1  0.44222800  0.39300000  0.06191700  1
  O  O10  1  0.55777100  0.60700000  0.93808600  1
  O  O11  1  0.39300000  0.55777200  0.06191700  1
  O  O12  1  0.60699900  0.44222800  0.93808600  1
  O  O13  1  0.55777100  0.60700000  0.06191700  1
  O  O14  1  0.44222800  0.39300000  0.93808600  1
  O  O15  1  0.60699900  0.44222800  0.06191700  1
  O  O16  1  0.39300000  0.55777200  0.93808600  1
  O  O17  1  0.00479900  0.78550100  0.57149800  1
  O  O18  1  0.99519900  0.21449900  0.42850500  1
  O  O19  1  0.78550100  0.99520000  0.57149800  1
  O  O20  1  0.21449800  0.00480000  0.42850500  1
  O  O21  1  0.99520000  0.21449900  0.57149800  1
  O  O22  1  0.00479900  0.78550100  0.42850500  1
  O  O23  1  0.21449800  0.00480000  0.57149800  1
  O  O24  1  0.78550100  0.99520000  0.42850500  1
  O  O25  1  0.50479900  0.28550100  0.07149800  1
  O  O26  1  0.49520000  0.71449900  0.92850500  1
  O  O27  1  0.28550100  0.49520000  0.07149800  1
  O  O28  1  0.71449800  0.50480000  0.92850500  1
  O  O29  1  0.49520000  0.71449900  0.07149800  1
  O  O30  1  0.50479900  0.28550100  0.92850500  1
  O  O31  1  0.71449800  0.50480000  0.07149800  1
  O  O32  1  0.28550100  0.49520000  0.92850500  1
  O  O33  1  0.19173300  0.60745200  0.75143400  1
  O  O34  1  0.80826600  0.39254800  0.24856900  1
  O  O35  1  0.60745100  0.80826600  0.75143400  1
  O  O36  1  0.39254700  0.19173300  0.24856900  1
  O  O37  1  0.80826600  0.39254800  0.75143400  1
  O  O38  1  0.19173300  0.60745200  0.24856900  1
  O  O39  1  0.39254700  0.19173300  0.75143400  1
  O  O40  1  0.60745100  0.80826700  0.24856900  1
  O  O41  1  0.69173300  0.10745200  0.25143400  1
  O  O42  1  0.30826600  0.89254800  0.74856900  1
  O  O43  1  0.10745100  0.30826600  0.25143400  1
  O  O44  1  0.89254700  0.69173300  0.74856900  1
  O  O45  1  0.30826600  0.89254800  0.25143400  1
  O  O46  1  0.69173300  0.10745200  0.74856900  1
  O  O47  1  0.89254700  0.69173300  0.25143400  1
  O  O48  1  0.10745100  0.30826700  0.74856900  1
