# generated using pymatgen
data_ZnH8C24(N2O5)2
_symmetry_space_group_name_H-M   'P 1'
_cell_length_a   16.14568000
_cell_length_b   14.98462300
_cell_length_c   23.43625400
_cell_angle_alpha   90.00000000
_cell_angle_beta   90.00239400
_cell_angle_gamma   90.00000000
_symmetry_Int_Tables_number   1
_chemical_formula_structural   ZnH8C24(N2O5)2
_chemical_formula_sum   'Zn2 H16 C48 N8 O20'
_cell_volume   5670.09528879
_cell_formula_units_Z   2
loop_
 _symmetry_equiv_pos_site_id
 _symmetry_equiv_pos_as_xyz
  1  'x, y, z'
loop_
 _atom_site_type_symbol
 _atom_site_label
 _atom_site_symmetry_multiplicity
 _atom_site_fract_x
 _atom_site_fract_y
 _atom_site_fract_z
 _atom_site_occupancy
  Zn  Zn1  1  0.50000000  0.60156500  0.49998800  1
  Zn  Zn2  1  0.50000400  0.39843300  0.49998900  1
  H  H1  1  0.31833900  0.39450500  0.94847800  1
  H  H2  1  0.68166500  0.60549300  0.05149900  1
  H  H3  1  0.31834400  0.39450400  0.05149600  1
  H  H4  1  0.68166000  0.60549500  0.94848100  1
  H  H5  1  0.50085800  0.35772700  0.21424300  1
  H  H6  1  0.49914700  0.64227200  0.78573400  1
  H  H7  1  0.50038800  0.35706100  0.31801800  1
  H  H8  1  0.49961600  0.64293800  0.68195900  1
  H  H9  1  0.49963400  0.64293600  0.31801700  1
  H  H10  1  0.50036800  0.35706300  0.68196000  1
  H  H11  1  0.49916400  0.64226900  0.21424300  1
  H  H12  1  0.50083800  0.35773000  0.78573400  1
  H  H13  1  0.40722500  0.08208900  0.43536600  1
  H  H14  1  0.59277700  0.91790900  0.56461200  1
  H  H15  1  0.59278000  0.08208600  0.56461200  1
  H  H16  1  0.40722300  0.91791300  0.43536500  1
  C  C1  1  0.33814100  0.49999700  0.49999200  1
  C  C2  1  0.66186200  0.50000100  0.49998500  1
  C  C3  1  0.50001000  0.49999900  0.38826200  1
  C  C4  1  0.49999400  0.50000000  0.61171500  1
  C  C5  1  0.56392700  0.53709800  0.88195700  1
  C  C6  1  0.43607600  0.46290000  0.11802000  1
  C  C7  1  0.43606500  0.46290300  0.88195600  1
  C  C8  1  0.56393800  0.53709500  0.11802100  1
  C  C9  1  0.43525000  0.46225400  0.94096600  1
  C  C10  1  0.56475300  0.53774400  0.05901100  1
  C  C11  1  0.50000000  0.50000000  0.97055000  1
  C  C12  1  0.50000300  0.49999900  0.02942700  1
  C  C13  1  0.56474700  0.53774500  0.94096700  1
  C  C14  1  0.43525600  0.46225300  0.05901000  1
  C  C15  1  0.37002000  0.42452700  0.97058800  1
  C  C16  1  0.62998300  0.57547200  0.02938900  1
  C  C17  1  0.37002300  0.42452600  0.02938600  1
  C  C18  1  0.62998000  0.57547200  0.97059100  1
  C  C19  1  0.50008400  0.42041900  0.23705900  1
  C  C20  1  0.49992000  0.57957900  0.76291800  1
  C  C21  1  0.50012800  0.42030600  0.29588400  1
  C  C22  1  0.49987600  0.57969200  0.70409300  1
  C  C23  1  0.50001200  0.49999800  0.32567000  1
  C  C24  1  0.49999200  0.50000000  0.67430600  1
  C  C25  1  0.49989500  0.57969000  0.29588300  1
  C  C26  1  0.50010700  0.42030800  0.70409400  1
  C  C27  1  0.49993900  0.57957700  0.23705900  1
  C  C28  1  0.50006400  0.42042200  0.76291800  1
  C  C29  1  0.50001100  0.49999800  0.20741300  1
  C  C30  1  0.49999200  0.50000100  0.79256400  1
  C  C31  1  0.95705700  0.58022400  0.49987600  1
  C  C32  1  0.04294700  0.41977400  0.49985600  1
  C  C33  1  0.04294900  0.58022200  0.50012400  1
  C  C34  1  0.95705400  0.41977500  0.50010200  1
  C  C35  1  0.91442900  0.50000000  0.49998800  1
  C  C36  1  0.08557500  0.49999700  0.49999100  1
  C  C37  1  0.82537000  0.50000200  0.49998600  1
  C  C38  1  0.17463300  0.49999600  0.49999200  1
  C  C39  1  0.24929200  0.49999500  0.49999200  1
  C  C40  1  0.75071200  0.50000300  0.49998500  1
  C  C41  1  0.44798900  0.95399200  0.46376100  1
  C  C42  1  0.55201300  0.04600600  0.53621700  1
  C  C43  1  0.55201200  0.95399000  0.53621700  1
  C  C44  1  0.44799100  0.04600900  0.46376100  1
  C  C45  1  0.50000000  0.90799000  0.49998900  1
  C  C46  1  0.50000300  0.09200900  0.49998900  1
  C  C47  1  0.49999900  0.81224100  0.49998800  1
  C  C48  1  0.50000400  0.18775800  0.49998900  1
  N  N1  1  0.49999500  0.50000100  0.85345300  1
  N  N2  1  0.50000900  0.49999700  0.14652400  1
  N  N3  1  0.50000500  0.26496500  0.49998900  1
  N  N4  1  0.49999800  0.73503300  0.49998800  1
  N  N5  1  0.08760800  0.66250700  0.49772300  1
  N  N6  1  0.91239500  0.33749200  0.49767800  1
  N  N7  1  0.91240000  0.66250900  0.50229900  1
  N  N8  1  0.08760300  0.33748700  0.50225900  1
  O  O1  1  0.37659900  0.57707000  0.49999200  1
  O  O2  1  0.62340500  0.42292900  0.49998700  1
  O  O3  1  0.62340200  0.57707300  0.49998500  1
  O  O4  1  0.37660200  0.42292600  0.49999000  1
  O  O5  1  0.50000400  0.57700200  0.41497900  1
  O  O6  1  0.49999800  0.42299600  0.58499800  1
  O  O7  1  0.49999500  0.57700300  0.58499800  1
  O  O8  1  0.50001100  0.42299500  0.41497900  1
  O  O9  1  0.62789900  0.57183700  0.85276500  1
  O  O10  1  0.37210400  0.42816200  0.14721200  1
  O  O11  1  0.37209000  0.42816500  0.85276300  1
  O  O12  1  0.62791300  0.57183300  0.14721400  1
  O  O13  1  0.14656400  0.67895500  0.53406200  1
  O  O14  1  0.06723100  0.72309800  0.46054500  1
  O  O15  1  0.85344100  0.32102100  0.53401000  1
  O  O16  1  0.93277100  0.27692500  0.46048500  1
  O  O17  1  0.85344600  0.67898300  0.46596400  1
  O  O18  1  0.93277900  0.72307400  0.53949400  1
  O  O19  1  0.14655600  0.32103600  0.46592200  1
  O  O20  1  0.06722700  0.27689900  0.53943800  1
