# generated using pymatgen
data_Zn3H21C40NO13
_symmetry_space_group_name_H-M   'P 1'
_cell_length_a   21.85093900
_cell_length_b   21.89846000
_cell_length_c   22.23290200
_cell_angle_alpha   60.52561300
_cell_angle_beta   119.41270900
_cell_angle_gamma   89.95938100
_symmetry_Int_Tables_number   1
_chemical_formula_structural   Zn3H21C40NO13
_chemical_formula_sum   'Zn6 H42 C80 N2 O26'
_cell_volume   7644.79239204
_cell_formula_units_Z   2
loop_
 _symmetry_equiv_pos_site_id
 _symmetry_equiv_pos_as_xyz
  1  'x, y, z'
loop_
 _atom_site_type_symbol
 _atom_site_label
 _atom_site_symmetry_multiplicity
 _atom_site_fract_x
 _atom_site_fract_y
 _atom_site_fract_z
 _atom_site_occupancy
  Zn  Zn1  1  0.50148200  0.43280200  0.50011900  1
  Zn  Zn2  1  0.49744400  0.57370200  0.49482500  1
  Zn  Zn3  1  0.06838600  0.00590000  0.49339800  1
  Zn  Zn4  1  0.93371500  0.00422600  0.50108000  1
  Zn  Zn5  1  0.94597500  0.54669100  0.40401000  1
  Zn  Zn6  1  0.05301300  0.46372000  0.59154000  1
  H  H1  1  0.37251400  0.78257900  0.04807700  1
  H  H2  1  0.32892800  0.73072800  0.94379000  1
  H  H3  1  0.22522000  0.87761400  0.94502200  1
  H  H4  1  0.19394700  0.76477800  0.05109300  1
  H  H5  1  0.15037100  0.71292200  0.94690100  1
  H  H6  1  0.29762300  0.61783900  0.04993400  1
  H  H7  1  0.65165300  0.60784500  0.41262600  1
  H  H8  1  0.71303400  0.37219600  0.65134100  1
  H  H9  1  0.81780300  0.26079600  0.75205000  1
  H  H10  1  0.92493300  0.25404000  0.74347700  1
  H  H11  1  0.92815000  0.35900000  0.63602400  1
  H  H12  1  0.76283200  0.60645000  0.41271200  1
  H  H13  1  0.63135200  0.34879200  0.94676800  1
  H  H14  1  0.67094800  0.19326800  0.05282500  1
  H  H15  1  0.78048200  0.33751600  0.04737900  1
  H  H16  1  0.80768800  0.32494900  0.94167400  1
  H  H17  1  0.84723000  0.16952100  0.04762800  1
  H  H18  1  0.69795700  0.18111900  0.94653300  1
  H  H19  1  0.34909300  0.40167600  0.58758800  1
  H  H20  1  0.28591400  0.62984800  0.34063800  1
  H  H21  1  0.17963200  0.73991900  0.23404800  1
  H  H22  1  0.07112000  0.74926100  0.23989300  1
  H  H23  1  0.06831500  0.64838600  0.35036800  1
  H  H24  1  0.23807900  0.40513800  0.58766000  1
  H  H25  1  0.99396400  0.76098000  0.59472600  1
  H  H26  1  0.96966400  0.94647900  0.34452100  1
  H  H27  1  0.97019700  0.94800500  0.23595400  1
  H  H28  1  0.98468600  0.83429300  0.24088700  1
  H  H29  1  0.99629300  0.72052100  0.35238200  1
  H  H30  1  0.99544100  0.65076900  0.59331100  1
  H  H31  1  0.05108100  0.05968800  0.65442700  1
  H  H32  1  0.06726300  0.05004800  0.77367800  1
  H  H33  1  0.01710300  0.28123500  0.65277700  1
  H  H34  1  0.98565000  0.36647300  0.39186000  1
  H  H35  1  0.00464600  0.22211900  0.36851600  1
  H  H36  1  0.92406600  0.27250300  0.22850600  1
  H  H37  1  0.86424000  0.36580900  0.16833700  1
  H  H38  1  0.83126700  0.28865500  0.20482000  1
  H  H39  1  0.04005100  0.11433800  0.82482600  1
  H  H40  1  0.09159600  0.12716100  0.93412800  1
  H  H41  1  0.12418900  0.20593100  0.91847700  1
  H  H42  1  0.18656000  0.11808300  0.96545500  1
  C  C1  1  0.62584500  0.49946300  0.51161400  1
  C  C2  1  0.42691000  0.58308800  0.33430100  1
  C  C3  1  0.37325200  0.50691500  0.48365100  1
  C  C4  1  0.57200400  0.42342600  0.66059800  1
  C  C5  1  0.29897600  0.73781200  0.96940100  1
  C  C6  1  0.32150200  0.76742000  0.02386300  1
  C  C7  1  0.38457900  0.62606400  0.24458400  1
  C  C8  1  0.13388200  0.87213300  0.75040700  1
  C  C9  1  0.28056300  0.67737000  0.02487800  1
  C  C10  1  0.30223600  0.70782400  0.07763400  1
  C  C11  1  0.20139300  0.72806600  0.97111600  1
  C  C12  1  0.22062900  0.78766500  0.91731400  1
  C  C13  1  0.22388600  0.75770200  0.02546400  1
  C  C14  1  0.24232700  0.81807300  0.97011400  1
  C  C15  1  0.34793200  0.66271000  0.16919100  1
  C  C16  1  0.17337100  0.83372700  0.82577900  1
  C  C17  1  0.75848800  0.37182100  0.64438800  1
  C  C18  1  0.81839500  0.30820300  0.70294700  1
  C  C19  1  0.87849200  0.30457500  0.69840700  1
  C  C20  1  0.88013400  0.36541600  0.63723900  1
  C  C21  1  0.82137600  0.43125800  0.57942600  1
  C  C22  1  0.75827900  0.43307200  0.58058300  1
  C  C23  1  0.69637200  0.49649000  0.51901600  1
  C  C24  1  0.69949800  0.55845100  0.46042600  1
  C  C25  1  0.76205200  0.55724300  0.45994200  1
  C  C26  1  0.82328800  0.49443900  0.51873200  1
  C  C27  1  0.70127300  0.22377700  0.02631900  1
  C  C28  1  0.68095500  0.30752400  0.97090900  1
  C  C29  1  0.61462800  0.38042500  0.75026700  1
  C  C30  1  0.86818300  0.13644900  0.24414800  1
  C  C31  1  0.71739200  0.21584500  0.97081900  1
  C  C32  1  0.69794800  0.29873800  0.91711400  1
  C  C33  1  0.79761500  0.21079300  0.02346500  1
  C  C34  1  0.78069200  0.21952900  0.07734000  1
  C  C35  1  0.77735600  0.29444700  0.96817400  1
  C  C36  1  0.76123700  0.30242900  0.02361100  1
  C  C37  1  0.65166600  0.34374500  0.82563100  1
  C  C38  1  0.82845100  0.17401300  0.16880400  1
  C  C39  1  0.23987100  0.63149600  0.34646700  1
  C  C40  1  0.17918800  0.69431700  0.28465600  1
  C  C41  1  0.11840100  0.69936300  0.28772200  1
  C  C42  1  0.11710100  0.64075000  0.35101900  1
  C  C43  1  0.17689600  0.57569800  0.41278100  1
  C  C44  1  0.24025300  0.57256800  0.41220300  1
  C  C45  1  0.30282500  0.51015200  0.47637100  1
  C  C46  1  0.30056900  0.45026100  0.53772000  1
  C  C47  1  0.23803600  0.45279700  0.53820400  1
  C  C48  1  0.17584400  0.51477400  0.47659600  1
  C  C49  1  0.99316600  0.88984500  0.48913000  1
  C  C50  1  0.08627500  0.91845400  0.66069100  1
  C  C51  1  0.00818300  0.12107400  0.50400700  1
  C  C52  1  0.91582700  0.09137700  0.33383000  1
  C  C53  1  0.99452800  0.63054300  0.48623500  1
  C  C54  1  0.88682600  0.49781300  0.51161200  1
  C  C55  1  0.00440700  0.37975400  0.50933500  1
  C  C56  1  0.11219700  0.51252400  0.48380100  1
  C  C57  1  0.97683200  0.89485700  0.35001900  1
  C  C58  1  0.97611900  0.89670200  0.28702700  1
  C  C59  1  0.98381300  0.83322700  0.28957400  1
  C  C60  1  0.98955400  0.76834900  0.35344000  1
  C  C61  1  0.98777600  0.76569700  0.41632300  1
  C  C62  1  0.98491700  0.82915900  0.41643800  1
  C  C63  1  0.98873300  0.82678300  0.48193600  1
  C  C64  1  0.99123200  0.76287200  0.54393100  1
  C  C65  1  0.99304700  0.70037900  0.54352000  1
  C  C66  1  0.99131400  0.70062500  0.48048800  1
  C  C67  1  0.04384600  0.11022600  0.65109600  1
  C  C68  1  0.05388100  0.10389500  0.72017200  1
  C  C69  1  0.04598000  0.16570100  0.72075400  1
  C  C70  1  0.02802900  0.23418900  0.65165400  1
  C  C71  1  0.02139800  0.24146100  0.58274600  1
  C  C72  1  0.02582700  0.17890000  0.58108200  1
  C  C73  1  0.01167000  0.18511600  0.50965500  1
  C  C74  1  0.99489400  0.25362600  0.44088100  1
  C  C75  1  0.99532600  0.31436500  0.44488000  1
  C  C76  1  0.00769700  0.30994300  0.51420900  1
  C  C77  1  0.90782700  0.30432200  0.29833300  1
  C  C78  1  0.88046500  0.30775800  0.22038000  1
  C  C79  1  0.10675800  0.17753300  0.83358700  1
  C  C80  1  0.12848200  0.15565600  0.91813600  1
  N  N1  1  0.97788500  0.26256700  0.36625500  1
  N  N2  1  0.05078400  0.15918800  0.78951500  1
  O  O1  1  0.59741000  0.44667600  0.51136100  1
  O  O2  1  0.59301200  0.55617800  0.50289800  1
  O  O3  1  0.44421500  0.51076300  0.37527900  1
  O  O4  1  0.44432300  0.61839500  0.37086700  1
  O  O5  1  0.40595500  0.45025400  0.49216600  1
  O  O6  1  0.40150200  0.55986600  0.48353300  1
  O  O7  1  0.55466400  0.38808900  0.62407800  1
  O  O8  1  0.55465800  0.49575700  0.61966000  1
  O  O9  1  0.04518700  0.91892800  0.48693300  1
  O  O10  1  0.94498600  0.91449800  0.49741400  1
  O  O11  1  0.11685800  0.94119700  0.61871000  1
  O  O12  1  0.01440500  0.93672400  0.62502100  1
  O  O13  1  0.05740500  0.09526800  0.49770900  1
  O  O14  1  0.95667400  0.09145100  0.50714800  1
  O  O15  1  0.98772500  0.07366100  0.36946900  1
  O  O16  1  0.88518300  0.06852800  0.37575500  1
  O  O17  1  0.95302200  0.63146600  0.41836900  1
  O  O18  1  0.03754900  0.56882800  0.56084100  1
  O  O19  1  0.87252700  0.53079700  0.43633100  1
  O  O20  1  0.95441700  0.47046500  0.57897400  1
  O  O21  1  0.96113500  0.44155500  0.43488400  1
  O  O22  1  0.04617200  0.37895000  0.57707200  1
  O  O23  1  0.04459700  0.53949300  0.41667700  1
  O  O24  1  0.12637700  0.47994200  0.55905500  1
  O  O25  1  0.86595000  0.33900400  0.30029500  1
  O  O26  1  0.14076700  0.21102600  0.80548000  1
