# generated using pymatgen
data_Zn2H16C31N3ClO8
_symmetry_space_group_name_H-M   'P 1'
_cell_length_a   8.53126700
_cell_length_b   10.75268000
_cell_length_c   13.41058400
_cell_angle_alpha   97.67727300
_cell_angle_beta   90.09585600
_cell_angle_gamma   90.00836500
_symmetry_Int_Tables_number   1
_chemical_formula_structural   Zn2H16C31N3ClO8
_chemical_formula_sum   'Zn2 H16 C31 N3 Cl1 O8'
_cell_volume   1219.17726923
_cell_formula_units_Z   1
loop_
 _symmetry_equiv_pos_site_id
 _symmetry_equiv_pos_as_xyz
  1  'x, y, z'
loop_
 _atom_site_type_symbol
 _atom_site_label
 _atom_site_symmetry_multiplicity
 _atom_site_fract_x
 _atom_site_fract_y
 _atom_site_fract_z
 _atom_site_occupancy
  Zn  Zn1  1  0.50042700  0.49975700  0.11127500  1
  Zn  Zn2  1  0.49979800  0.50066900  0.88852100  1
  H  H1  1  0.99718100  0.59164200  0.05163900  1
  H  H2  1  0.99605000  0.40804100  0.94782500  1
  H  H3  1  0.25562600  0.90433900  0.99079600  1
  H  H4  1  0.25547700  0.09636100  0.00972200  1
  H  H5  1  0.61154600  0.10481700  0.98839100  1
  H  H6  1  0.49122300  0.69619300  0.77037900  1
  H  H7  1  0.51847700  0.81053100  0.62790400  1
  H  H8  1  0.69852800  0.71928100  0.49597800  1
  H  H9  1  0.44403400  0.30855700  0.23017100  1
  H  H10  1  0.43567400  0.19360000  0.37107500  1
  H  H11  1  0.46744500  0.18698600  0.55447800  1
  H  H12  1  0.35202100  0.74548700  0.55514000  1
  H  H13  1  0.55045900  0.80916100  0.44057600  1
  H  H14  1  0.29073400  0.28551700  0.44676600  1
  H  H15  1  0.63641700  0.25252500  0.49941800  1
  H  H16  1  0.55471400  0.69379700  0.27286500  1
  C  C1  1  0.99884300  0.68884800  0.03985800  1
  C  C2  1  0.13911100  0.74619800  0.02623300  1
  C  C3  1  0.14243600  0.86817700  0.00691600  1
  C  C4  1  0.86033500  0.74954800  0.02695200  1
  C  C5  1  0.86207700  0.87494400  0.01266300  1
  C  C6  1  0.00408000  0.93664200  0.00609700  1
  C  C7  1  0.00395800  0.06350800  0.99413300  1
  C  C8  1  0.14216400  0.13225000  0.99337100  1
  C  C9  1  0.13853600  0.25405800  0.97367600  1
  C  C10  1  0.72330700  0.05899000  0.99396600  1
  C  C11  1  0.86162200  0.12448600  0.98730700  1
  C  C12  1  0.85955200  0.25016600  0.97285100  1
  C  C13  1  0.99801100  0.31090200  0.95978900  1
  C  C14  1  0.28075000  0.67025100  0.01794600  1
  C  C15  1  0.28006700  0.33040800  0.98194000  1
  C  C16  1  0.71799600  0.32775600  0.98165600  1
  C  C17  1  0.71787100  0.67294900  0.01826700  1
  C  C18  1  0.50065900  0.38862600  0.69530200  1
  C  C19  1  0.49495300  0.60913100  0.71977400  1
  C  C20  1  0.49211000  0.61095800  0.61698900  1
  C  C21  1  0.49504300  0.49979900  0.55367300  1
  C  C22  1  0.49901800  0.38774200  0.59198400  1
  C  C23  1  0.47700600  0.73079200  0.57319400  1
  C  C24  1  0.57230500  0.72402700  0.47694200  1
  C  C25  1  0.52885000  0.60939200  0.40708800  1
  C  C26  1  0.49539200  0.50081900  0.44588400  1
  C  C27  1  0.46361800  0.39281200  0.38275000  1
  C  C28  1  0.41667500  0.27844800  0.42645500  1
  C  C29  1  0.51175900  0.26853600  0.52067100  1
  C  C30  1  0.52943600  0.60838200  0.30396200  1
  C  C31  1  0.46824100  0.39375900  0.28012600  1
  N  N1  1  0.72597200  0.93661600  0.00594900  1
  N  N2  1  0.49965100  0.49891200  0.75745900  1
  N  N3  1  0.50099000  0.50083400  0.24219500  1
  Cl  Cl1  1  0.50475900  0.24564900  0.74492300  1
  O  O1  1  0.33100000  0.62900900  0.92704600  1
  O  O2  1  0.33632000  0.63189900  0.09993300  1
  O  O3  1  0.33086800  0.37189700  0.07260600  1
  O  O4  1  0.33534700  0.36888100  0.90019100  1
  O  O5  1  0.66871700  0.37091800  0.07234400  1
  O  O6  1  0.66435200  0.36894600  0.90050100  1
  O  O7  1  0.66822600  0.62968300  0.92736800  1
  O  O8  1  0.66448800  0.63199800  0.09968900  1
