# generated using pymatgen
data_CuH15C15NO4
_symmetry_space_group_name_H-M   'P 1'
_cell_length_a   17.34721900
_cell_length_b   11.16636500
_cell_length_c   9.64346600
_cell_angle_alpha   111.96791900
_cell_angle_beta   95.94507600
_cell_angle_gamma   90.81070500
_symmetry_Int_Tables_number   1
_chemical_formula_structural   CuH15C15NO4
_chemical_formula_sum   'Cu2 H30 C30 N2 O8'
_cell_volume   1720.21020033
_cell_formula_units_Z   2
loop_
 _symmetry_equiv_pos_site_id
 _symmetry_equiv_pos_as_xyz
  1  'x, y, z'
loop_
 _atom_site_type_symbol
 _atom_site_label
 _atom_site_symmetry_multiplicity
 _atom_site_fract_x
 _atom_site_fract_y
 _atom_site_fract_z
 _atom_site_occupancy
  Cu  Cu1  1  0.51281700  0.54594600  0.65226000  1
  Cu  Cu2  1  0.48866800  0.50043800  0.35790200  1
  H  H1  1  0.72201800  0.59130500  0.30839500  1
  H  H2  1  0.28304600  0.66388000  0.75178000  1
  H  H3  1  0.99081400  0.52426700  0.34248200  1
  H  H4  1  0.01106800  0.58147400  0.68003300  1
  H  H5  1  0.14670800  0.68039300  0.77443600  1
  H  H6  1  0.86122200  0.60085300  0.29288900  1
  H  H7  1  0.90131200  0.45759400  0.64322500  1
  H  H8  1  0.09484900  0.40935800  0.32176000  1
  H  H9  1  0.48966500  0.88658200  0.36896700  1
  H  H10  1  0.51859900  0.15774600  0.63841400  1
  H  H11  1  0.52015100  0.97932000  0.70952000  1
  H  H12  1  0.47604100  0.07226700  0.29861700  1
  H  H13  1  0.45789600  0.42958900  0.84465700  1
  H  H14  1  0.54807900  0.61042700  0.15905800  1
  H  H15  1  0.56923200  0.65478400  0.95177000  1
  H  H16  1  0.44195200  0.37681000  0.06103700  1
  H  H17  1  0.29982600  0.31692500  0.28118700  1
  H  H18  1  0.13370800  0.21570500  0.17671500  1
  H  H19  1  0.18750100  0.20329100  0.34187300  1
  H  H20  1  0.22227700  0.13311200  0.16029000  1
  H  H21  1  0.16471800  0.40151000  0.11289000  1
  H  H22  1  0.24287600  0.30347500  0.03160600  1
  H  H23  1  0.26353300  0.47095900  0.15597700  1
  H  H24  1  0.69354000  0.37548300  0.64282900  1
  H  H25  1  0.85572800  0.29989300  0.70944500  1
  H  H26  1  0.80150300  0.23232100  0.52386400  1
  H  H27  1  0.76167200  0.21773400  0.68162700  1
  H  H28  1  0.83397900  0.52407900  0.86787200  1
  H  H29  1  0.75124300  0.44400300  0.90580100  1
  H  H30  1  0.73755600  0.58222200  0.85333000  1
  C  C1  1  0.49531700  0.27857000  0.44836100  1
  C  C2  1  0.50649600  0.76728700  0.56064300  1
  C  C3  1  0.35321000  0.52219900  0.51664800  1
  C  C4  1  0.64799200  0.51845800  0.49194200  1
  C  C5  1  0.26916900  0.52222200  0.52547700  1
  C  C6  1  0.73174100  0.51579800  0.48248000  1
  C  C7  1  0.21535300  0.44712600  0.40517900  1
  C  C8  1  0.78269900  0.47321100  0.57354800  1
  C  C9  1  0.13689700  0.46452500  0.41622400  1
  C  C10  1  0.86193200  0.48698000  0.56957800  1
  C  C11  1  0.11123200  0.54566000  0.54909100  1
  C  C12  1  0.89065100  0.53151300  0.46786600  1
  C  C13  1  0.16483000  0.61433100  0.67005500  1
  C  C14  1  0.83931600  0.56469700  0.37132200  1
  C  C15  1  0.24292800  0.60385700  0.65719900  1
  C  C16  1  0.76071700  0.55885200  0.38014900  1
  C  C17  1  0.02789400  0.55402300  0.56757300  1
  C  C18  1  0.97385400  0.53496900  0.45155000  1
  C  C19  1  0.49107800  0.13861800  0.41439800  1
  C  C20  1  0.50979500  0.90778100  0.59469100  1
  C  C21  1  0.50398600  0.09234800  0.52285400  1
  C  C22  1  0.49973900  0.95203300  0.48487700  1
  C  C23  1  0.50818300  0.53091700  0.08432200  1
  C  C24  1  0.49759700  0.50742700  0.92166800  1
  C  C25  1  0.23884100  0.34148000  0.26657100  1
  C  C26  1  0.19221800  0.21573800  0.23431000  1
  C  C27  1  0.22656900  0.38195900  0.13308600  1
  C  C28  1  0.75591800  0.40618500  0.67110400  1
  C  C29  1  0.79696000  0.28166100  0.64543200  1
  C  C30  1  0.77102100  0.49496500  0.83556500  1
  N  N1  1  0.47000200  0.45968200  0.13623400  1
  N  N2  1  0.53101900  0.58428900  0.87364100  1
  O  O1  1  0.50866900  0.35892400  0.58859100  1
  O  O2  1  0.49204500  0.68633700  0.42052000  1
  O  O3  1  0.48275800  0.31678100  0.33605300  1
  O  O4  1  0.51623500  0.72832100  0.67303300  1
  O  O5  1  0.40006000  0.54804500  0.64124800  1
  O  O6  1  0.60169000  0.50304600  0.36979700  1
  O  O7  1  0.37880200  0.50776800  0.38884300  1
  O  O8  1  0.62284200  0.54639100  0.62316100  1
