# generated using pymatgen
data_ZnH8C18(NO3)2
_symmetry_space_group_name_H-M   'P 1'
_cell_length_a   15.14562700
_cell_length_b   8.44755500
_cell_length_c   13.35690500
_cell_angle_alpha   90.00000000
_cell_angle_beta   98.36035300
_cell_angle_gamma   90.00000000
_symmetry_Int_Tables_number   1
_chemical_formula_structural   ZnH8C18(NO3)2
_chemical_formula_sum   'Zn2 H16 C36 N4 O12'
_cell_volume   1690.76892020
_cell_formula_units_Z   2
loop_
 _symmetry_equiv_pos_site_id
 _symmetry_equiv_pos_as_xyz
  1  'x, y, z'
loop_
 _atom_site_type_symbol
 _atom_site_label
 _atom_site_symmetry_multiplicity
 _atom_site_fract_x
 _atom_site_fract_y
 _atom_site_fract_z
 _atom_site_occupancy
  Zn  Zn1  1  0.49904100  0.50038300  0.88811800  1
  Zn  Zn2  1  0.50096400  0.49930200  0.11186200  1
  H  H1  1  0.56704600  0.99918100  0.04679700  1
  H  H2  1  0.43300400  0.00040400  0.95332000  1
  H  H3  1  0.80085400  0.74628400  0.00586400  1
  H  H4  1  0.19913800  0.25328700  0.99398700  1
  H  H5  1  0.19947800  0.74569900  0.99176800  1
  H  H6  1  0.80061200  0.25384300  0.00841600  1
  H  H7  1  0.90533800  0.20897300  0.91341200  1
  H  H8  1  0.09470800  0.79053800  0.08665100  1
  H  H9  1  0.06413300  0.20912900  0.90526200  1
  H  H10  1  0.93589600  0.79027100  0.09469300  1
  H  H11  1  0.36206800  0.50199200  0.22767900  1
  H  H12  1  0.63791300  0.49762100  0.77225100  1
  H  H13  1  0.72318700  0.49533700  0.44924500  1
  H  H14  1  0.27675000  0.50612500  0.55072100  1
  H  H15  1  0.72057400  0.49595000  0.63134700  1
  H  H16  1  0.27937500  0.50520400  0.36860800  1
  C  C1  1  0.67926500  0.85819000  0.02789500  1
  C  C2  1  0.32077200  0.14140600  0.97210800  1
  C  C3  1  0.32126600  0.85900200  0.97348500  1
  C  C4  1  0.67875000  0.14060300  0.02650000  1
  C  C5  1  0.76804400  0.85768100  0.01531400  1
  C  C6  1  0.23198000  0.14188900  0.98464500  1
  C  C7  1  0.23259200  0.85786700  0.98639200  1
  C  C8  1  0.76745400  0.14170000  0.01367800  1
  C  C9  1  0.81336600  0.99981700  0.01169200  1
  C  C10  1  0.18667300  0.99973300  0.98834300  1
  C  C11  1  0.63652800  0.99934900  0.03765900  1
  C  C12  1  0.36350600  0.00024800  0.96236800  1
  C  C13  1  0.94647200  0.11802300  0.95324200  1
  C  C14  1  0.05357200  0.88147000  0.04680100  1
  C  C15  1  0.03685700  0.11826700  0.94870700  1
  C  C16  1  0.96318100  0.88120500  0.05131400  1
  C  C17  1  0.09094500  0.00010600  0.99544600  1
  C  C18  1  0.90909700  0.99939800  0.00459800  1
  C  C19  1  0.62502100  0.71469700  0.01895400  1
  C  C20  1  0.37501300  0.28492300  0.98103600  1
  C  C21  1  0.37556800  0.71566200  0.98190400  1
  C  C22  1  0.62443100  0.28397700  0.01807700  1
  C  C23  1  0.42378000  0.50088400  0.27976900  1
  C  C24  1  0.57619000  0.49914700  0.72018600  1
  C  C25  1  0.58022100  0.49748300  0.30727800  1
  C  C26  1  0.41974800  0.50298300  0.69270000  1
  C  C27  1  0.58035800  0.49814800  0.41084600  1
  C  C28  1  0.41959200  0.50284700  0.58912300  1
  C  C29  1  0.50053600  0.50020900  0.44850900  1
  C  C30  1  0.49941000  0.50076400  0.55145700  1
  C  C31  1  0.42182700  0.50164700  0.38269900  1
  C  C32  1  0.57812200  0.49908100  0.61725900  1
  C  C33  1  0.65964300  0.49681400  0.47696200  1
  C  C34  1  0.34030000  0.50453200  0.52300200  1
  C  C35  1  0.65840600  0.49720100  0.58003200  1
  C  C36  1  0.34154100  0.50390900  0.41992500  1
  N  N1  1  0.50228700  0.49875500  0.24360900  1
  N  N2  1  0.49769500  0.50100600  0.75636500  1
  N  N3  1  0.66266600  0.49551300  0.26801000  1
  N  N4  1  0.33730700  0.50535300  0.73197500  1
  O  O1  1  0.59713800  0.66002200  0.10081500  1
  O  O2  1  0.40289300  0.33961200  0.89916700  1
  O  O3  1  0.40330800  0.66166000  0.89982500  1
  O  O4  1  0.59668800  0.33798900  0.10017400  1
  O  O5  1  0.59259800  0.66699600  0.92744700  1
  O  O6  1  0.40741100  0.33267800  0.07254400  1
  O  O7  1  0.40782400  0.66684600  0.07319300  1
  O  O8  1  0.59219500  0.33284100  0.92676800  1
  O  O9  1  0.70718000  0.62701900  0.26734000  1
  O  O10  1  0.70559600  0.36223200  0.26793600  1
  O  O11  1  0.29278800  0.37392700  0.73312400  1
  O  O12  1  0.29441900  0.63872100  0.73174200  1
