# generated using pymatgen
data_ZnH21C34N3O4
_symmetry_space_group_name_H-M   'P 1'
_cell_length_a   13.32264200
_cell_length_b   13.31745700
_cell_length_c   16.23339400
_cell_angle_alpha   94.72998000
_cell_angle_beta   90.04623300
_cell_angle_gamma   90.61473900
_symmetry_Int_Tables_number   1
_chemical_formula_structural   ZnH21C34N3O4
_chemical_formula_sum   'Zn2 H42 C68 N6 O8'
_cell_volume   2870.21083330
_cell_formula_units_Z   2
loop_
 _symmetry_equiv_pos_site_id
 _symmetry_equiv_pos_as_xyz
  1  'x, y, z'
loop_
 _atom_site_type_symbol
 _atom_site_label
 _atom_site_symmetry_multiplicity
 _atom_site_fract_x
 _atom_site_fract_y
 _atom_site_fract_z
 _atom_site_occupancy
  Zn  Zn1  1  0.51392000  0.89102800  0.49002300  1
  Zn  Zn2  1  0.48361000  0.11315100  0.51002600  1
  H  H1  1  0.68833000  0.12227100  0.01912900  1
  H  H2  1  0.30919900  0.88190900  0.98092000  1
  H  H3  1  0.00555100  0.03031400  0.72245900  1
  H  H4  1  0.99198100  0.97387100  0.27758900  1
  H  H5  1  0.96378700  0.07745400  0.95664000  1
  H  H6  1  0.03374400  0.92673100  0.04340800  1
  H  H7  1  0.39924100  0.91804700  0.09918600  1
  H  H8  1  0.59828900  0.08613100  0.90086300  1
  H  H9  1  0.16766600  0.00694800  0.33277500  1
  H  H10  1  0.82986600  0.99723500  0.66727400  1
  H  H11  1  0.83186400  0.97535600  0.33655900  1
  H  H12  1  0.16566700  0.02882600  0.66348900  1
  H  H13  1  0.55266200  0.10854800  0.27687200  1
  H  H14  1  0.44486600  0.89562700  0.72317500  1
  H  H15  1  0.61175400  0.13642600  0.13950900  1
  H  H16  1  0.38577400  0.86775000  0.86053900  1
  H  H17  1  0.46369700  0.94480700  0.24009200  1
  H  H18  1  0.53383300  0.05936800  0.75995700  1
  H  H19  1  0.32215900  0.25949200  0.49468600  1
  H  H20  1  0.67536800  0.74469300  0.50538000  1
  H  H21  1  0.26271000  0.61095500  0.48454600  1
  H  H22  1  0.73482000  0.39321900  0.51540600  1
  H  H23  1  0.72994900  0.59049500  0.56834000  1
  H  H24  1  0.26755600  0.41367200  0.43174800  1
  H  H25  1  0.31123400  0.55851700  0.38787800  1
  H  H26  1  0.68636800  0.44558500  0.61212000  1
  H  H27  1  0.63181600  0.25072300  0.54315900  1
  H  H28  1  0.36571800  0.75344900  0.45687200  1
  H  H29  1  0.09155900  0.43968500  0.43838400  1
  H  H30  1  0.01282500  0.36498700  0.49971000  1
  H  H31  1  0.12963100  0.31405900  0.46127100  1
  H  H32  1  0.01403800  0.40968100  0.63711700  1
  H  H33  1  0.09244000  0.48325900  0.76404300  1
  H  H34  1  0.26654200  0.54535800  0.76266400  1
  H  H35  1  0.36240200  0.53345900  0.63491700  1
  H  H36  1  0.90595800  0.56452600  0.56174300  1
  H  H37  1  0.86786900  0.69016200  0.53889900  1
  H  H38  1  0.98470200  0.63928400  0.50047500  1
  H  H39  1  0.98355300  0.59467300  0.36305100  1
  H  H40  1  0.90521600  0.52115100  0.23608000  1
  H  H41  1  0.73112800  0.45900300  0.23738600  1
  H  H42  1  0.63521400  0.47080100  0.36510800  1
  C  C1  1  0.81835800  0.03263700  0.21640700  1
  C  C2  1  0.17917200  0.97154400  0.78364100  1
  C  C3  1  0.75665900  0.07300900  0.16147100  1
  C  C4  1  0.24087100  0.93117200  0.83857700  1
  C  C5  1  0.80710200  0.07287800  0.08771800  1
  C  C6  1  0.19042800  0.93130400  0.91233100  1
  C  C7  1  0.90825500  0.01388800  0.17635200  1
  C  C8  1  0.08927600  0.99029600  0.82369700  1
  C  C9  1  0.76481100  0.09654200  0.01703600  1
  C  C10  1  0.23271800  0.90763900  0.98301200  1
  C  C11  1  0.80685700  0.07370200  0.93399900  1
  C  C12  1  0.19067300  0.93048100  0.06604900  1
  C  C13  1  0.75063400  0.05889300  0.86250700  1
  C  C14  1  0.24689700  0.94528900  0.13754100  1
  C  C15  1  0.81476100  0.03541700  0.79871600  1
  C  C16  1  0.18277000  0.96876600  0.20133200  1
  C  C17  1  0.91064100  0.03744600  0.83312400  1
  C  C18  1  0.08689000  0.96673900  0.16692500  1
  C  C19  1  0.00560100  0.02138500  0.78812900  1
  C  C20  1  0.99193000  0.98280100  0.21191900  1
  C  C21  1  0.34835100  0.93797700  0.14947000  1
  C  C22  1  0.64917900  0.06620200  0.85057800  1
  C  C23  1  0.38452400  0.95398600  0.22908600  1
  C  C24  1  0.61300700  0.05019100  0.77096300  1
  C  C25  1  0.32158800  0.98120700  0.29521800  1
  C  C26  1  0.67594200  0.02297200  0.70483000  1
  C  C27  1  0.21823700  0.98875600  0.28183000  1
  C  C28  1  0.77929500  0.01542700  0.71821800  1
  C  C29  1  0.78515500  0.01167200  0.29367800  1
  C  C30  1  0.21237500  0.99250900  0.70637000  1
  C  C31  1  0.68747800  0.03786300  0.31387000  1
  C  C32  1  0.31005200  0.96631600  0.68617800  1
  C  C33  1  0.62811200  0.08660000  0.25960800  1
  C  C34  1  0.36941600  0.91757600  0.74044000  1
  C  C35  1  0.66107100  0.10235100  0.18174100  1
  C  C36  1  0.33645700  0.90182600  0.81830700  1
  C  C37  1  0.36941000  0.99104100  0.37750200  1
  C  C38  1  0.62812100  0.01313700  0.62254600  1
  C  C39  1  0.64101000  0.01976000  0.39195500  1
  C  C40  1  0.35652000  0.98441800  0.60809300  1
  C  C41  1  0.56526500  0.29269900  0.53151800  1
  C  C42  1  0.43227000  0.71147600  0.46851900  1
  C  C43  1  0.39358300  0.29796000  0.50426500  1
  C  C44  1  0.60394800  0.70622200  0.49579100  1
  C  C45  1  0.40068700  0.40092000  0.49753600  1
  C  C46  1  0.59684900  0.60326000  0.50251400  1
  C  C47  1  0.49336000  0.44874600  0.50491900  1
  C  C48  1  0.50417900  0.55542800  0.49511600  1
  C  C49  1  0.57550400  0.39447400  0.52474300  1
  C  C50  1  0.42203500  0.60969900  0.47528800  1
  C  C51  1  0.30641000  0.45661900  0.48363200  1
  C  C52  1  0.69112800  0.54756900  0.51642700  1
  C  C53  1  0.32209900  0.56202200  0.45579000  1
  C  C54  1  0.67545300  0.44213600  0.54421500  1
  C  C55  1  0.24366500  0.46247400  0.56098900  1
  C  C56  1  0.14427800  0.42807300  0.56191600  1
  C  C57  1  0.09180100  0.38409800  0.48565400  1
  C  C58  1  0.09099200  0.43590400  0.63526800  1
  C  C59  1  0.13480800  0.47746600  0.70712000  1
  C  C60  1  0.23225400  0.51218000  0.70633300  1
  C  C61  1  0.28620300  0.50495100  0.63382600  1
  C  C62  1  0.75390700  0.54177500  0.43909200  1
  C  C63  1  0.85328700  0.57620300  0.43820700  1
  C  C64  1  0.90572400  0.62014500  0.51449900  1
  C  C65  1  0.90660400  0.56843000  0.36486900  1
  C  C66  1  0.86282500  0.52689800  0.29299100  1
  C  C67  1  0.76538600  0.49215700  0.29373700  1
  C  C68  1  0.71140700  0.49932900  0.36622900  1
  N  N1  1  0.90075000  0.03713300  0.09674600  1
  N  N2  1  0.09678000  0.96705100  0.90330300  1
  N  N3  1  0.90462000  0.06219900  0.91552300  1
  N  N4  1  0.09291000  0.94198600  0.08452600  1
  N  N5  1  0.47587500  0.24510900  0.52010400  1
  N  N6  1  0.52165600  0.75907000  0.47994400  1
  O  O1  1  0.38865700  0.08121600  0.41417300  1
  O  O2  1  0.60887300  0.92296300  0.58587600  1
  O  O3  1  0.41233600  0.90990300  0.40071500  1
  O  O4  1  0.58519400  0.09427500  0.59933300  1
  O  O5  1  0.61939300  0.92666900  0.40794600  1
  O  O6  1  0.37813800  0.07750900  0.59210300  1
  O  O7  1  0.59648800  0.09821400  0.42799400  1
  O  O8  1  0.40104200  0.90596400  0.57205400  1
