# generated using pymatgen
data_Zn2H22C47(NO2)4
_symmetry_space_group_name_H-M   'P 1'
_cell_length_a   8.51510700
_cell_length_b   10.75244400
_cell_length_c   17.49002400
_cell_angle_alpha   97.78999100
_cell_angle_beta   90.11049400
_cell_angle_gamma   90.00835000
_symmetry_Int_Tables_number   1
_chemical_formula_structural   Zn2H22C47(NO2)4
_chemical_formula_sum   'Zn2 H22 C47 N4 O8'
_cell_volume   1586.57417273
_cell_formula_units_Z   1
loop_
 _symmetry_equiv_pos_site_id
 _symmetry_equiv_pos_as_xyz
  1  'x, y, z'
loop_
 _atom_site_type_symbol
 _atom_site_label
 _atom_site_symmetry_multiplicity
 _atom_site_fract_x
 _atom_site_fract_y
 _atom_site_fract_z
 _atom_site_occupancy
  Zn  Zn1  1  0.49956000  0.49182900  0.08344300  1
  Zn  Zn2  1  0.49930500  0.50036600  0.91346100  1
  H  H1  1  0.99503900  0.58883000  0.04215700  1
  H  H2  1  0.99649400  0.40267300  0.95457600  1
  H  H3  1  0.25493500  0.89936400  0.99271000  1
  H  H4  1  0.25550400  0.09160800  0.00386200  1
  H  H5  1  0.61055500  0.10094900  0.98836100  1
  H  H6  1  0.52881500  0.29291500  0.17462700  1
  H  H7  1  0.54752800  0.18122600  0.28510600  1
  H  H8  1  0.45120800  0.79922200  0.33252100  1
  H  H9  1  0.56584800  0.07210700  0.39555400  1
  H  H10  1  0.56098900  0.07319500  0.53461300  1
  H  H11  1  0.42877300  0.91186300  0.45929600  1
  H  H12  1  0.43803600  0.91575700  0.59975300  1
  H  H13  1  0.45956000  0.80818100  0.71035600  1
  H  H14  1  0.47732200  0.69920500  0.82086100  1
  H  H15  1  0.47312100  0.68494400  0.20577000  1
  H  H16  1  0.51947600  0.30898100  0.79489800  1
  H  H17  1  0.29095600  0.22477400  0.71290500  1
  H  H18  1  0.38519100  0.11696800  0.76900700  1
  H  H19  1  0.29649400  0.06129300  0.67763600  1
  H  H20  1  0.73455300  0.20803700  0.70959100  1
  H  H21  1  0.70935700  0.04511100  0.67150100  1
  H  H22  1  0.63362900  0.10351000  0.76538500  1
  C  C1  1  0.99714000  0.68634600  0.03356200  1
  C  C2  1  0.13784000  0.74284300  0.02231200  1
  C  C3  1  0.14155600  0.86413000  0.00595300  1
  C  C4  1  0.85857800  0.74725000  0.02348900  1
  C  C5  1  0.86079700  0.87196100  0.01060800  1
  C  C6  1  0.00325700  0.93289800  0.00436700  1
  C  C7  1  0.00350200  0.05895300  0.99276300  1
  C  C8  1  0.14213300  0.12716400  0.99074600  1
  C  C9  1  0.13885100  0.24823200  0.97406800  1
  C  C10  1  0.72238800  0.05519700  0.99324600  1
  C  C11  1  0.86107800  0.11999800  0.98678500  1
  C  C12  1  0.85922100  0.24506900  0.97391000  1
  C  C13  1  0.99814100  0.30518800  0.96325300  1
  C  C14  1  0.27878100  0.66560000  0.01487700  1
  C  C15  1  0.28022800  0.32519500  0.98146900  1
  C  C16  1  0.71816000  0.32383900  0.98172100  1
  C  C17  1  0.71638900  0.66992000  0.01576900  1
  C  C18  1  0.51628300  0.38001200  0.21296900  1
  C  C19  1  0.48449700  0.59834700  0.23022900  1
  C  C20  1  0.53395100  0.26887500  0.32283100  1
  C  C21  1  0.51684900  0.37961800  0.29198000  1
  C  C22  1  0.49977600  0.49078200  0.34030100  1
  C  C23  1  0.48312800  0.60074800  0.30919100  1
  C  C24  1  0.46487000  0.71271100  0.35692600  1
  C  C25  1  0.54950200  0.15972300  0.43294900  1
  C  C26  1  0.53282600  0.27007200  0.40194700  1
  C  C27  1  0.51549200  0.38170000  0.45021800  1
  C  C28  1  0.54519900  0.16058500  0.51180600  1
  C  C29  1  0.52519700  0.27212900  0.56042000  1
  C  C30  1  0.49941600  0.49213100  0.41922300  1
  C  C31  1  0.48247400  0.60399100  0.46708600  1
  C  C32  1  0.46452200  0.71418600  0.43588200  1
  C  C33  1  0.44621400  0.82590700  0.48367500  1
  C  C34  1  0.51342900  0.38298900  0.52933500  1
  C  C35  1  0.49801200  0.49510700  0.57724300  1
  C  C36  1  0.48306700  0.60563400  0.54607500  1
  C  C37  1  0.46817200  0.71787500  0.59387100  1
  C  C38  1  0.44999500  0.82790100  0.56256100  1
  C  C39  1  0.51636700  0.27270900  0.63962800  1
  C  C40  1  0.50828400  0.38660900  0.68797800  1
  C  C41  1  0.49808500  0.49698100  0.65627900  1
  C  C42  1  0.48563300  0.60952600  0.70408600  1
  C  C43  1  0.47063900  0.72003100  0.67289000  1
  C  C44  1  0.50947700  0.39233200  0.76765500  1
  C  C45  1  0.48683900  0.61122000  0.78311400  1
  C  C46  1  0.36453700  0.13922900  0.70983100  1
  C  C47  1  0.65327100  0.12688700  0.70641800  1
  N  N1  1  0.72470600  0.93363600  0.00445600  1
  N  N2  1  0.49961300  0.48876000  0.18343100  1
  N  N3  1  0.49979300  0.50322100  0.81344600  1
  N  N4  1  0.50920600  0.15672300  0.66918000  1
  O  O1  1  0.32949400  0.62734000  0.94487000  1
  O  O2  1  0.33396900  0.62383500  0.07673000  1
  O  O3  1  0.33089700  0.36383200  0.05152100  1
  O  O4  1  0.33512100  0.36709600  0.91967800  1
  O  O5  1  0.66901100  0.36447400  0.05172500  1
  O  O6  1  0.66420500  0.36773500  0.92032200  1
  O  O7  1  0.66753900  0.62882700  0.94563500  1
  O  O8  1  0.66296000  0.62580500  0.07717800  1
