# generated using pymatgen
data_ZnH45C40NO11
_symmetry_space_group_name_H-M   'P 1'
_cell_length_a   17.51518000
_cell_length_b   18.22373200
_cell_length_c   19.52596400
_cell_angle_alpha   89.98949100
_cell_angle_beta   90.01303400
_cell_angle_gamma   86.08094600
_symmetry_Int_Tables_number   1
_chemical_formula_structural   ZnH45C40NO11
_chemical_formula_sum   'Zn2 H90 C80 N2 O22'
_cell_volume   6217.95604802
_cell_formula_units_Z   2
loop_
 _symmetry_equiv_pos_site_id
 _symmetry_equiv_pos_as_xyz
  1  'x, y, z'
loop_
 _atom_site_type_symbol
 _atom_site_label
 _atom_site_symmetry_multiplicity
 _atom_site_fract_x
 _atom_site_fract_y
 _atom_site_fract_z
 _atom_site_occupancy
  Zn  Zn1  1  0.50257700  0.41810900  0.49266200  1
  Zn  Zn2  1  0.50071500  0.58422600  0.49231600  1
  H  H1  1  0.99443300  0.57555100  0.51230500  1
  H  H2  1  0.00686900  0.43189000  0.43074300  1
  H  H3  1  0.11865700  0.40604600  0.47846000  1
  H  H4  1  0.88112200  0.60006600  0.46531100  1
  H  H5  1  0.47714800  0.61807200  0.14857500  1
  H  H6  1  0.51296200  0.38529000  0.83847500  1
  H  H7  1  0.52284700  0.38509800  0.14811100  1
  H  H8  1  0.49661100  0.61937100  0.83747300  1
  H  H9  1  0.59460400  0.41915200  0.05539600  1
  H  H10  1  0.41268100  0.58611900  0.92932700  1
  H  H11  1  0.59577400  0.41890000  0.93140700  1
  H  H12  1  0.40928700  0.58497100  0.05323300  1
  H  H13  1  0.43643200  0.30478400  0.40361400  1
  H  H14  1  0.56893800  0.69681400  0.40411000  1
  H  H15  1  0.43468300  0.17041900  0.40458900  1
  H  H16  1  0.57209900  0.83118900  0.40526300  1
  H  H17  1  0.56876200  0.16439600  0.58705800  1
  H  H18  1  0.43437500  0.83847800  0.58543400  1
  H  H19  1  0.56921400  0.29852500  0.58317300  1
  H  H20  1  0.43334900  0.70430100  0.58186700  1
  H  H21  1  0.80882300  0.63974800  0.57024600  1
  H  H22  1  0.71787700  0.60299900  0.59003900  1
  H  H23  1  0.65063200  0.72000300  0.55572700  1
  H  H24  1  0.72276600  0.73613000  0.61940600  1
  H  H25  1  0.74009600  0.75553600  0.52993200  1
  H  H26  1  0.19444700  0.34499200  0.56467400  1
  H  H27  1  0.27448700  0.39590800  0.59204400  1
  H  H28  1  0.36387200  0.29424700  0.55805400  1
  H  H29  1  0.29081100  0.25949200  0.61221100  1
  H  H30  1  0.28748700  0.24610300  0.52023200  1
  H  H31  1  0.64773400  0.13735200  0.41663300  1
  H  H32  1  0.62430400  0.04481400  0.39591800  1
  H  H33  1  0.75370400  0.99706400  0.43316600  1
  H  H34  1  0.75881900  0.06531200  0.36616000  1
  H  H35  1  0.77710700  0.08963100  0.45431000  1
  H  H36  1  0.35987400  0.86524100  0.40908200  1
  H  H37  1  0.38870500  0.95640200  0.39003400  1
  H  H38  1  0.25899000  0.00943600  0.42032500  1
  H  H39  1  0.25510700  0.94122800  0.35320500  1
  H  H40  1  0.23005700  0.91835700  0.44026700  1
  H  H41  1  0.63660800  0.85614500  0.59468500  1
  H  H42  1  0.61299200  0.95293500  0.60544800  1
  H  H43  1  0.74576700  0.98029400  0.57962400  1
  H  H44  1  0.74304200  0.91548000  0.64973400  1
  H  H45  1  0.77122000  0.88372100  0.56497200  1
  H  H46  1  0.36749000  0.14216000  0.59163900  1
  H  H47  1  0.38269600  0.04418100  0.60035200  1
  H  H48  1  0.24952400  0.02773400  0.56618700  1
  H  H49  1  0.25275800  0.08901900  0.63898600  1
  H  H50  1  0.23247300  0.12592800  0.55429700  1
  H  H51  1  0.31674500  0.63923900  0.60042000  1
  H  H52  1  0.21588400  0.62630500  0.60447400  1
  H  H53  1  0.18599900  0.75686800  0.57396900  1
  H  H54  1  0.24604400  0.74851200  0.64947600  1
  H  H55  1  0.28709600  0.77046000  0.56746300  1
  H  H56  1  0.69851600  0.34864800  0.57798300  1
  H  H57  1  0.80053700  0.35530600  0.57474300  1
  H  H58  1  0.71433100  0.22482100  0.52351100  1
  H  H59  1  0.81688700  0.23152300  0.52243000  1
  H  H60  1  0.76656500  0.22874800  0.60334800  1
  H  H61  1  0.88646800  0.38015000  0.35741900  1
  H  H62  1  0.83641000  0.30148900  0.38486100  1
  H  H63  1  0.96018600  0.23058200  0.40351200  1
  H  H64  1  0.95033800  0.26291100  0.31604900  1
  H  H65  1  0.01060700  0.30867900  0.37548000  1
  H  H66  1  0.12422500  0.63820400  0.39091000  1
  H  H67  1  0.15129600  0.72449800  0.42619800  1
  H  H68  1  0.01356700  0.76157500  0.44705800  1
  H  H69  1  0.03327300  0.74276200  0.35747200  1
  H  H70  1  0.98777500  0.67594900  0.40931300  1
  H  H71  1  0.36056900  0.59096900  0.28383400  1
  H  H72  1  0.36941000  0.66918100  0.22765800  1
  H  H73  1  0.37796000  0.66993300  0.38473600  1
  H  H74  1  0.38983700  0.74785500  0.32929900  1
  H  H75  1  0.29883600  0.70634200  0.33268700  1
  H  H76  1  0.40687100  0.35964000  0.65603500  1
  H  H77  1  0.39635300  0.38362600  0.74487700  1
  H  H78  1  0.45456900  0.25951200  0.77722900  1
  H  H79  1  0.36858700  0.25454500  0.72640500  1
  H  H80  1  0.46153200  0.23560200  0.68730100  1
  H  H81  1  0.63714900  0.41039500  0.28501500  1
  H  H82  1  0.62809400  0.33357600  0.22720900  1
  H  H83  1  0.60623700  0.25285400  0.32729200  1
  H  H84  1  0.69779400  0.29319400  0.33148300  1
  H  H85  1  0.61914100  0.32939600  0.38412100  1
  H  H86  1  0.59434100  0.65289500  0.65122500  1
  H  H87  1  0.61178600  0.61973200  0.73695700  1
  H  H88  1  0.53781900  0.77114400  0.69595800  1
  H  H89  1  0.55312000  0.73853100  0.78285400  1
  H  H90  1  0.63417200  0.75184400  0.72776800  1
  C  C1  1  0.50402000  0.50129000  0.62726300  1
  C  C2  1  0.49903300  0.50113100  0.35795100  1
  C  C3  1  0.65225200  0.49246900  0.48973600  1
  C  C4  1  0.35104500  0.50990100  0.49485000  1
  C  C5  1  0.73707000  0.48840300  0.48438300  1
  C  C6  1  0.26602900  0.51451600  0.49417200  1
  C  C7  1  0.77611300  0.55250300  0.48158200  1
  C  C8  1  0.22599200  0.45128700  0.48801000  1
  C  C9  1  0.85387600  0.54897500  0.47031500  1
  C  C10  1  0.14735900  0.45642600  0.48193700  1
  C  C11  1  0.89550200  0.48239000  0.46443100  1
  C  C12  1  0.10633400  0.52367300  0.48393800  1
  C  C13  1  0.85740100  0.41843600  0.46566000  1
  C  C14  1  0.14526900  0.58656900  0.49133200  1
  C  C15  1  0.77928200  0.42093600  0.47828100  1
  C  C16  1  0.22416600  0.58226600  0.49835200  1
  C  C17  1  0.97951600  0.47854200  0.45730900  1
  C  C18  1  0.02195800  0.52936500  0.48504100  1
  C  C19  1  0.48322800  0.56625700  0.24583400  1
  C  C20  1  0.50670000  0.43599600  0.74040200  1
  C  C21  1  0.48574100  0.56621400  0.17521800  1
  C  C22  1  0.51040200  0.43692300  0.81105500  1
  C  C23  1  0.50027800  0.50162900  0.13923100  1
  C  C24  1  0.50529400  0.50237100  0.84644600  1
  C  C25  1  0.51363300  0.43672700  0.17501900  1
  C  C26  1  0.49978300  0.56749000  0.81048100  1
  C  C27  1  0.51469000  0.43616600  0.24568500  1
  C  C28  1  0.50226800  0.56776900  0.73977100  1
  C  C29  1  0.49874300  0.50111700  0.28219100  1
  C  C30  1  0.50450800  0.50166300  0.70336400  1
  C  C31  1  0.55327000  0.45519100  0.02845900  1
  C  C32  1  0.45338100  0.54979200  0.95672100  1
  C  C33  1  0.55424800  0.45518500  0.95787100  1
  C  C34  1  0.45167200  0.54920000  0.02729200  1
  C  C35  1  0.50446600  0.50260800  0.92156900  1
  C  C36  1  0.50173200  0.50199300  0.06383600  1
  C  C37  1  0.46594400  0.27345000  0.44377600  1
  C  C38  1  0.53892600  0.72845800  0.44378100  1
  C  C39  1  0.46432300  0.19790000  0.44466400  1
  C  C40  1  0.54134000  0.80394500  0.44476100  1
  C  C41  1  0.50167200  0.15772000  0.49595700  1
  C  C42  1  0.50325400  0.84440400  0.49540900  1
  C  C43  1  0.53972300  0.19442500  0.54581900  1
  C  C44  1  0.46394800  0.80811700  0.54469600  1
  C  C45  1  0.53989600  0.26999900  0.54365400  1
  C  C46  1  0.46327100  0.73259100  0.54260900  1
  C  C47  1  0.57083900  0.03485900  0.49684100  1
  C  C48  1  0.43454200  0.96715600  0.49339700  1
  C  C49  1  0.57105300  0.95900800  0.49965200  1
  C  C50  1  0.43412200  0.04293200  0.49693600  1
  C  C51  1  0.50304400  0.92485200  0.49586400  1
  C  C52  1  0.50220800  0.07718400  0.49646300  1
  C  C53  1  0.74745500  0.64082900  0.55619600  1
  C  C54  1  0.71289600  0.71830200  0.56603900  1
  C  C55  1  0.25485900  0.35580300  0.55431100  1
  C  C56  1  0.30250200  0.28408900  0.56169000  1
  C  C57  1  0.65859000  0.07841600  0.43002600  1
  C  C58  1  0.74268500  0.05609400  0.42023600  1
  C  C59  1  0.35069600  0.92440000  0.42214500  1
  C  C60  1  0.26819800  0.95009200  0.40802900  1
  C  C61  1  0.65045900  0.91158500  0.57751900  1
  C  C62  1  0.73313200  0.92354000  0.59406700  1
  C  C63  1  0.35033600  0.08879400  0.57187800  1
  C  C64  1  0.26561800  0.08248800  0.58363500  1
  C  C65  1  0.25999700  0.65759100  0.57907500  1
  C  C66  1  0.24369500  0.73877000  0.59348500  1
  C  C67  1  0.75129900  0.33174600  0.54917700  1
  C  C68  1  0.76307000  0.24866300  0.54970400  1
  C  C69  1  0.88931800  0.33092500  0.39094600  1
  C  C70  1  0.95716800  0.27991600  0.37010700  1
  C  C71  1  0.10832700  0.68257600  0.42815400  1
  C  C72  1  0.03052800  0.71808100  0.40924900  1
  C  C73  1  0.38757400  0.64380100  0.27718300  1
  C  C74  1  0.36186000  0.69539500  0.33480500  1
  C  C75  1  0.43147100  0.35007200  0.70770800  1
  C  C76  1  0.42887600  0.26954600  0.72588600  1
  C  C77  1  0.60979700  0.35793600  0.27710500  1
  C  C78  1  0.63488000  0.30482900  0.33376700  1
  C  C79  1  0.57333900  0.65606900  0.70464700  1
  C  C80  1  0.57469500  0.73463500  0.72951000  1
  N  N1  1  0.50343800  0.30829000  0.49296900  1
  N  N2  1  0.50005600  0.69402800  0.49231800  1
  O  O1  1  0.50483600  0.43839800  0.59463200  1
  O  O2  1  0.49905100  0.56414400  0.39033000  1
  O  O3  1  0.50233800  0.56398700  0.59432700  1
  O  O4  1  0.50008700  0.43817900  0.39061300  1
  O  O5  1  0.61642600  0.43157800  0.49025800  1
  O  O6  1  0.38684200  0.57083600  0.49359100  1
  O  O7  1  0.61486500  0.55725200  0.49054100  1
  O  O8  1  0.38836300  0.44497900  0.49450100  1
  O  O9  1  0.73876500  0.62061400  0.48768800  1
  O  O10  1  0.26287400  0.38264000  0.48776500  1
  O  O11  1  0.63883600  0.06767400  0.49842300  1
  O  O12  1  0.36657300  0.93432000  0.49150700  1
  O  O13  1  0.63892700  0.91799700  0.50684200  1
  O  O14  1  0.36588300  0.08375900  0.50172600  1
  O  O15  1  0.25978900  0.64603100  0.50822700  1
  O  O16  1  0.74421100  0.35607200  0.48134700  1
  O  O17  1  0.89770700  0.35167500  0.45931700  1
  O  O18  1  0.10548000  0.65379700  0.49436500  1
  O  O19  1  0.46725100  0.63188800  0.27873100  1
  O  O20  1  0.50753200  0.36918400  0.70826500  1
  O  O21  1  0.53014800  0.37034300  0.27843700  1
  O  O22  1  0.49829200  0.63436300  0.70699300  1
