# generated using pymatgen
data_ZnH28C32NO10
_symmetry_space_group_name_H-M   'P 1'
_cell_length_a   19.46284300
_cell_length_b   18.39703400
_cell_length_c   17.76390400
_cell_angle_alpha   90.00000000
_cell_angle_beta   90.00593900
_cell_angle_gamma   90.00000000
_symmetry_Int_Tables_number   1
_chemical_formula_structural   ZnH28C32NO10
_chemical_formula_sum   'Zn2 H56 C64 N2 O20'
_cell_volume   6360.51828562
_cell_formula_units_Z   2
loop_
 _symmetry_equiv_pos_site_id
 _symmetry_equiv_pos_as_xyz
  1  'x, y, z'
loop_
 _atom_site_type_symbol
 _atom_site_label
 _atom_site_symmetry_multiplicity
 _atom_site_fract_x
 _atom_site_fract_y
 _atom_site_fract_z
 _atom_site_occupancy
  Zn  Zn1  1  0.50000000  0.58276500  0.50000000  1
  Zn  Zn2  1  0.50000000  0.41696600  0.50000000  1
  H  H1  1  0.51910100  0.61487700  0.73921200  1
  H  H2  1  0.52168200  0.38622800  0.25982000  1
  H  H3  1  0.48089900  0.61487700  0.26078800  1
  H  H4  1  0.47831800  0.38622800  0.74018000  1
  H  H5  1  0.71811900  0.39845500  0.55940500  1
  H  H6  1  0.28226300  0.60123700  0.55708100  1
  H  H7  1  0.28188100  0.39845500  0.44059500  1
  H  H8  1  0.71773700  0.60123700  0.44291900  1
  H  H9  1  0.84206700  0.39993000  0.56297300  1
  H  H10  1  0.15839200  0.60015700  0.56093300  1
  H  H11  1  0.15793300  0.39993000  0.43702700  1
  H  H12  1  0.84160800  0.60015700  0.43906700  1
  H  H13  1  0.93868100  0.61647100  0.50348800  1
  H  H14  1  0.06137100  0.38359300  0.50253800  1
  H  H15  1  0.06131900  0.61647100  0.49651200  1
  H  H16  1  0.93862900  0.38359300  0.49746200  1
  H  H17  1  0.60904300  0.83194300  0.51007100  1
  H  H18  1  0.48849400  0.16785200  0.38075000  1
  H  H19  1  0.39095700  0.83194300  0.48993000  1
  H  H20  1  0.51150600  0.16785200  0.61925000  1
  H  H21  1  0.41564200  0.62446400  0.87809600  1
  H  H22  1  0.45651400  0.70595500  0.84246100  1
  H  H23  1  0.45146700  0.68964700  0.94287500  1
  H  H24  1  0.41641000  0.37661700  0.12165100  1
  H  H25  1  0.45805700  0.29694700  0.16058200  1
  H  H26  1  0.45231300  0.30907200  0.05958600  1
  H  H27  1  0.58435800  0.62446400  0.12190400  1
  H  H28  1  0.54348600  0.70595500  0.15753900  1
  H  H29  1  0.54853300  0.68964700  0.05712500  1
  H  H30  1  0.58359000  0.37661700  0.87834900  1
  H  H31  1  0.54194300  0.29694700  0.83941800  1
  H  H32  1  0.54768700  0.30907200  0.94041400  1
  H  H33  1  0.57434700  0.70350700  0.63144600  1
  H  H34  1  0.65833900  0.74485100  0.62096400  1
  H  H35  1  0.64979700  0.64694100  0.62548900  1
  H  H36  1  0.37824800  0.29503200  0.42053200  1
  H  H37  1  0.38692900  0.25498500  0.32776100  1
  H  H38  1  0.38235200  0.35271700  0.33855100  1
  H  H39  1  0.42565300  0.70350700  0.36855400  1
  H  H40  1  0.34166100  0.74485100  0.37903700  1
  H  H41  1  0.35020300  0.64694100  0.37451100  1
  H  H42  1  0.62175200  0.29503200  0.57946800  1
  H  H43  1  0.61307100  0.25498500  0.67223900  1
  H  H44  1  0.61764800  0.35271700  0.66144900  1
  H  H45  1  0.51083600  0.94440200  0.34511400  1
  H  H46  1  0.43438200  0.95460700  0.28839700  1
  H  H47  1  0.46299000  0.86492300  0.31682400  1
  H  H48  1  0.64111700  0.05542300  0.48525800  1
  H  H49  1  0.69416700  0.04450600  0.56796500  1
  H  H50  1  0.66823800  0.13449100  0.53754800  1
  H  H51  1  0.48916400  0.94440200  0.65488600  1
  H  H52  1  0.56561800  0.95460700  0.71160300  1
  H  H53  1  0.53701000  0.86492300  0.68317600  1
  H  H54  1  0.35888200  0.05542300  0.51474200  1
  H  H55  1  0.30583300  0.04450600  0.43203500  1
  H  H56  1  0.33176200  0.13449100  0.46245200  1
  C  C1  1  0.36567700  0.49962100  0.49913600  1
  C  C2  1  0.63432300  0.49962100  0.50086400  1
  C  C3  1  0.50084800  0.50017100  0.35269100  1
  C  C4  1  0.49915200  0.50017100  0.64730900  1
  C  C5  1  0.50950900  0.56476600  0.84646000  1
  C  C6  1  0.51072300  0.43673000  0.15309600  1
  C  C7  1  0.49049100  0.56476600  0.15354000  1
  C  C8  1  0.48927700  0.43673000  0.84690400  1
  C  C9  1  0.50991300  0.56448200  0.76878700  1
  C  C10  1  0.51182400  0.43664300  0.23071900  1
  C  C11  1  0.49008700  0.56448200  0.23121300  1
  C  C12  1  0.48817600  0.43664300  0.76928100  1
  C  C13  1  0.49904500  0.50039700  0.72981500  1
  C  C14  1  0.50095500  0.50039700  0.27018500  1
  C  C15  1  0.49961200  0.50082300  0.88543000  1
  C  C16  1  0.50038800  0.50082300  0.11457000  1
  C  C17  1  0.49989700  0.50096000  0.96612500  1
  C  C18  1  0.50010300  0.50096000  0.03387500  1
  C  C19  1  0.74519200  0.44296900  0.53306000  1
  C  C20  1  0.25502600  0.55684300  0.53068400  1
  C  C21  1  0.25480800  0.44296900  0.46694000  1
  C  C22  1  0.74497400  0.55684300  0.46931600  1
  C  C23  1  0.81600900  0.44367000  0.53425900  1
  C  C24  1  0.18422700  0.55637100  0.53206600  1
  C  C25  1  0.18399100  0.44367000  0.46574100  1
  C  C26  1  0.81577300  0.55637100  0.46793500  1
  C  C27  1  0.85224500  0.50004100  0.50097300  1
  C  C28  1  0.14775500  0.50004100  0.49902700  1
  C  C29  1  0.70941600  0.49980700  0.50114300  1
  C  C30  1  0.29058400  0.49980700  0.49885700  1
  C  C31  1  0.96460200  0.56467500  0.50089000  1
  C  C32  1  0.03540900  0.43538400  0.50033300  1
  C  C33  1  0.03539800  0.56467500  0.49911000  1
  C  C34  1  0.96459100  0.43538400  0.49966700  1
  C  C35  1  0.07178900  0.50003100  0.49944200  1
  C  C36  1  0.92821100  0.50003100  0.50055800  1
  C  C37  1  0.55893500  0.72970600  0.51144500  1
  C  C38  1  0.48818800  0.27005300  0.43573600  1
  C  C39  1  0.44106500  0.72970600  0.48855500  1
  C  C40  1  0.51181200  0.27005300  0.56426400  1
  C  C41  1  0.56007800  0.80452900  0.50683600  1
  C  C42  1  0.49244000  0.19523200  0.43434000  1
  C  C43  1  0.43992200  0.80452900  0.49316400  1
  C  C44  1  0.50756000  0.19523200  0.56566000  1
  C  C45  1  0.50000000  0.84335800  0.50000000  1
  C  C46  1  0.50000000  0.15638400  0.50000000  1
  C  C47  1  0.45802200  0.96241000  0.45104300  1
  C  C48  1  0.54544500  0.03730000  0.54509500  1
  C  C49  1  0.54197800  0.96241000  0.54895700  1
  C  C50  1  0.45455500  0.03730000  0.45490500  1
  C  C51  1  0.50000000  0.07593600  0.50000000  1
  C  C52  1  0.50000000  0.92378900  0.50000000  1
  C  C53  1  0.45810200  0.66373500  0.88698800  1
  C  C54  1  0.45908800  0.33732400  0.11422600  1
  C  C55  1  0.54189800  0.66373500  0.11301200  1
  C  C56  1  0.54091200  0.33732400  0.88577400  1
  C  C57  1  0.62570700  0.69788000  0.60504400  1
  C  C58  1  0.40159700  0.30156700  0.36398800  1
  C  C59  1  0.37429200  0.69788000  0.39495600  1
  C  C60  1  0.59840300  0.30156700  0.63601200  1
  C  C61  1  0.45864500  0.92265300  0.33416200  1
  C  C62  1  0.65216100  0.07684300  0.54234300  1
  C  C63  1  0.54135500  0.92265300  0.66583800  1
  C  C64  1  0.34783900  0.07684300  0.45765700  1
  N  N1  1  0.50000000  0.69189500  0.50000000  1
  N  N2  1  0.50000000  0.30784000  0.50000000  1
  O  O1  1  0.39773200  0.56228200  0.50073800  1
  O  O2  1  0.60235500  0.43687900  0.50199500  1
  O  O3  1  0.60226800  0.56228200  0.49926200  1
  O  O4  1  0.39764500  0.43687900  0.49800500  1
  O  O5  1  0.49946800  0.56282600  0.38786600  1
  O  O6  1  0.49814500  0.43745700  0.61206800  1
  O  O7  1  0.50053200  0.56282600  0.61213400  1
  O  O8  1  0.50185400  0.43745700  0.38793200  1
  O  O9  1  0.52137800  0.62799300  0.88483400  1
  O  O10  1  0.52210100  0.37364900  0.11430200  1
  O  O11  1  0.47862200  0.62799300  0.11516600  1
  O  O12  1  0.47789900  0.37364900  0.88569800  1
  O  O13  1  0.61917200  0.69489500  0.52680300  1
  O  O14  1  0.47304800  0.30496100  0.37012400  1
  O  O15  1  0.38082800  0.69489500  0.47319700  1
  O  O16  1  0.52695200  0.30496100  0.62987600  1
  O  O17  1  0.41823200  0.92729000  0.39896800  1
  O  O18  1  0.59370800  0.07239200  0.58773200  1
  O  O19  1  0.58176800  0.92729000  0.60103200  1
  O  O20  1  0.40629200  0.07239200  0.41226800  1
