# generated using pymatgen
data_ZnH7C13(NO2)3
_symmetry_space_group_name_H-M   'P 1'
_cell_length_a   9.76437400
_cell_length_b   10.97751000
_cell_length_c   17.10779300
_cell_angle_alpha   89.62972500
_cell_angle_beta   93.60567700
_cell_angle_gamma   90.00395100
_symmetry_Int_Tables_number   1
_chemical_formula_structural   ZnH7C13(NO2)3
_chemical_formula_sum   'Zn2 H14 C26 N6 O12'
_cell_volume   1830.09065304
_cell_formula_units_Z   2
loop_
 _symmetry_equiv_pos_site_id
 _symmetry_equiv_pos_as_xyz
  1  'x, y, z'
loop_
 _atom_site_type_symbol
 _atom_site_label
 _atom_site_symmetry_multiplicity
 _atom_site_fract_x
 _atom_site_fract_y
 _atom_site_fract_z
 _atom_site_occupancy
  Zn  Zn1  1  0.65648900  0.49876200  0.49861600  1
  Zn  Zn2  1  0.34529900  0.50180500  0.49850500  1
  H  H1  1  0.69288500  0.50104300  0.24935700  1
  H  H2  1  0.30888500  0.49909900  0.74776400  1
  H  H3  1  0.68071300  0.49972900  0.10923300  1
  H  H4  1  0.32105200  0.50043300  0.88788700  1
  H  H5  1  0.76042300  0.49293900  0.89161300  1
  H  H6  1  0.24136300  0.50827000  0.10550700  1
  H  H7  1  0.74736900  0.49160600  0.74905900  1
  H  H8  1  0.25443000  0.50959200  0.24806400  1
  H  H9  1  0.29976300  0.88372800  0.45030600  1
  H  H10  1  0.70128500  0.11758900  0.54940100  1
  H  H11  1  0.11478500  0.63239000  0.40797500  1
  H  H12  1  0.88699700  0.36824800  0.58919700  1
  H  H13  1  0.86327000  0.62925000  0.40800000  1
  H  H14  1  0.13851400  0.37177700  0.58940500  1
  C  C1  1  0.49853500  0.26133900  0.49641800  1
  C  C2  1  0.50310300  0.73902500  0.50141500  1
  C  C3  1  0.51808500  0.49602400  0.65196900  1
  C  C4  1  0.48370400  0.50462100  0.34514900  1
  C  C5  1  0.52702800  0.49528100  0.73792000  1
  C  C6  1  0.47475700  0.50539100  0.25919900  1
  C  C7  1  0.40897800  0.49756800  0.77850900  1
  C  C8  1  0.59279700  0.50281500  0.21861100  1
  C  C9  1  0.41664300  0.49844400  0.85930200  1
  C  C10  1  0.58512800  0.50196400  0.13781700  1
  C  C11  1  0.54368500  0.49696400  0.90054100  1
  C  C12  1  0.45808900  0.50374500  0.09657800  1
  C  C13  1  0.66115100  0.49417200  0.85986000  1
  C  C14  1  0.34063300  0.50680900  0.13726000  1
  C  C15  1  0.65334900  0.49340000  0.77913600  1
  C  C16  1  0.34844000  0.50757800  0.21798400  1
  C  C17  1  0.38281200  0.05959900  0.47151200  1
  C  C18  1  0.61702500  0.94028300  0.53153000  1
  C  C19  1  0.38837800  0.93413800  0.47312100  1
  C  C20  1  0.61376700  0.06606700  0.52630300  1
  C  C21  1  0.50392200  0.87310600  0.50305400  1
  C  C22  1  0.49708600  0.12705000  0.49766400  1
  C  C23  1  0.06495500  0.57357600  0.44839700  1
  C  C24  1  0.93682400  0.42696500  0.54871900  1
  C  C25  1  0.92373200  0.57152800  0.44828300  1
  C  C26  1  0.07805000  0.42915300  0.54891500  1
  N  N1  1  0.55707600  0.49842000  0.98339600  1
  N  N2  1  0.44469400  0.50230400  0.01372300  1
  N  N3  1  0.86130300  0.49808400  0.49831500  1
  N  N4  1  0.14047500  0.50235200  0.49874000  1
  N  N5  1  0.26030700  0.11619700  0.43947500  1
  N  N6  1  0.73377800  0.88337400  0.57086900  1
  O  O1  1  0.61761500  0.31737100  0.49740300  1
  O  O2  1  0.38405300  0.68312800  0.50007300  1
  O  O3  1  0.38194100  0.32029300  0.49677400  1
  O  O4  1  0.62000200  0.68039100  0.49991900  1
  O  O5  1  0.63221500  0.49575700  0.61536500  1
  O  O6  1  0.36964000  0.50536700  0.38176900  1
  O  O7  1  0.39614200  0.49812400  0.61514300  1
  O  O8  1  0.60558000  0.50196400  0.38198400  1
  O  O9  1  0.17498200  0.16104500  0.48711500  1
  O  O10  1  0.21410100  0.08619000  0.36929600  1
  O  O11  1  0.71585700  0.80263100  0.62527200  1
  O  O12  1  0.85376000  0.93384800  0.56749100  1
