# generated using pymatgen
data_ZnH4C13I4(NO2)2
_symmetry_space_group_name_H-M   'P 1'
_cell_length_a   9.77996200
_cell_length_b   10.96544500
_cell_length_c   17.15088600
_cell_angle_alpha   89.63106000
_cell_angle_beta   93.60235500
_cell_angle_gamma   90.00396200
_symmetry_Int_Tables_number   1
_chemical_formula_structural   ZnH4C13I4(NO2)2
_chemical_formula_sum   'Zn2 H8 C26 I8 N4 O8'
_cell_volume   1835.61673822
_cell_formula_units_Z   2
loop_
 _symmetry_equiv_pos_site_id
 _symmetry_equiv_pos_as_xyz
  1  'x, y, z'
loop_
 _atom_site_type_symbol
 _atom_site_label
 _atom_site_symmetry_multiplicity
 _atom_site_fract_x
 _atom_site_fract_y
 _atom_site_fract_z
 _atom_site_occupancy
  Zn  Zn1  1  0.65522800  0.50079600  0.49987200  1
  Zn  Zn2  1  0.34477100  0.49920200  0.50012900  1
  H  H1  1  0.67136600  0.57467700  0.25014600  1
  H  H2  1  0.32863100  0.42532100  0.74985500  1
  H  H3  1  0.66197100  0.56957600  0.11001500  1
  H  H4  1  0.33802500  0.43042300  0.88998700  1
  H  H5  1  0.31273800  0.11309800  0.55506400  1
  H  H6  1  0.68726500  0.88689900  0.44493600  1
  H  H7  1  0.85901400  0.63217200  0.41370300  1
  H  H8  1  0.14098100  0.36782900  0.58629600  1
  C  C1  1  0.49874500  0.26099800  0.50001100  1
  C  C2  1  0.50125500  0.73899900  0.49998900  1
  C  C3  1  0.51401600  0.50265400  0.65320900  1
  C  C4  1  0.48598100  0.49735000  0.34679000  1
  C  C5  1  0.52528800  0.50792900  0.73920400  1
  C  C6  1  0.47471400  0.49206800  0.26079400  1
  C  C7  1  0.41827600  0.46399100  0.78042400  1
  C  C8  1  0.58172700  0.53601100  0.21957400  1
  C  C9  1  0.42449900  0.46661600  0.86108400  1
  C  C10  1  0.57550700  0.53339000  0.13891500  1
  C  C11  1  0.53904400  0.51432400  0.90186200  1
  C  C12  1  0.46096300  0.48567400  0.09813700  1
  C  C13  1  0.64494600  0.55895700  0.86095000  1
  C  C14  1  0.35505600  0.44104600  0.13905300  1
  C  C15  1  0.63949600  0.55701400  0.78048300  1
  C  C16  1  0.36050200  0.44298400  0.21952000  1
  C  C17  1  0.39480800  0.06413600  0.52974000  1
  C  C18  1  0.60519400  0.93586700  0.47026000  1
  C  C19  1  0.39279700  0.93848400  0.53178100  1
  C  C20  1  0.60720100  0.06151900  0.46821900  1
  C  C21  1  0.49880500  0.87301200  0.50120700  1
  C  C22  1  0.50119500  0.12698900  0.49879300  1
  C  C23  1  0.06138300  0.57524400  0.45006900  1
  C  C24  1  0.93862500  0.42475600  0.54993200  1
  C  C25  1  0.92072600  0.57311000  0.45236500  1
  C  C26  1  0.07927900  0.42689100  0.54763500  1
  I  I1  1  0.81723800  0.63461500  0.92241300  1
  I  I2  1  0.18276000  0.36538400  0.07758600  1
  I  I3  1  0.80634200  0.64170000  0.72871500  1
  I  I4  1  0.19365900  0.35830000  0.27128500  1
  I  I5  1  0.22939900  0.85896500  0.58947000  1
  I  I6  1  0.77059800  0.14103400  0.41053100  1
  I  I7  1  0.14586800  0.69667400  0.37036200  1
  I  I8  1  0.85413100  0.30332600  0.62963900  1
  N  N1  1  0.55109300  0.52032600  0.98446400  1
  N  N2  1  0.44889900  0.47967100  0.01553300  1
  N  N3  1  0.86011400  0.49836100  0.50211500  1
  N  N4  1  0.13988900  0.50163600  0.49788500  1
  O  O1  1  0.61513500  0.31967000  0.50008900  1
  O  O2  1  0.38486000  0.68033000  0.49991100  1
  O  O3  1  0.38010400  0.31700800  0.50169400  1
  O  O4  1  0.61989900  0.68299200  0.49830700  1
  O  O5  1  0.62657000  0.50239700  0.61577100  1
  O  O6  1  0.37343000  0.49760400  0.38422900  1
  O  O7  1  0.39156100  0.49897100  0.61698300  1
  O  O8  1  0.60843400  0.50103000  0.38301800  1
