# generated using pymatgen
data_ZnH16C43N(Cl2O)4
_symmetry_space_group_name_H-M   'P 1'
_cell_length_a   16.33387800
_cell_length_b   15.01452900
_cell_length_c   15.22062300
_cell_angle_alpha   90.00000000
_cell_angle_beta   89.99981200
_cell_angle_gamma   90.00000000
_symmetry_Int_Tables_number   1
_chemical_formula_structural   ZnH16C43N(Cl2O)4
_chemical_formula_sum   'Zn2 H32 C86 N2 Cl16 O8'
_cell_volume   3732.78906830
_cell_formula_units_Z   2
loop_
 _symmetry_equiv_pos_site_id
 _symmetry_equiv_pos_as_xyz
  1  'x, y, z'
loop_
 _atom_site_type_symbol
 _atom_site_label
 _atom_site_symmetry_multiplicity
 _atom_site_fract_x
 _atom_site_fract_y
 _atom_site_fract_z
 _atom_site_occupancy
  Zn  Zn1  1  0.49994100  0.59510900  0.50067800  1
  Zn  Zn2  1  0.49999300  0.39249800  0.50083300  1
  H  H1  1  0.29652400  0.49776700  0.92110400  1
  H  H2  1  0.70338500  0.49776600  0.08045500  1
  H  H3  1  0.29423000  0.49926800  0.07262900  1
  H  H4  1  0.70567500  0.50000400  0.92882500  1
  H  H5  1  0.49317600  0.07582700  0.36108700  1
  H  H6  1  0.50700900  0.91176100  0.64041100  1
  H  H7  1  0.50704300  0.07559500  0.64054500  1
  H  H8  1  0.49313400  0.91199300  0.36095700  1
  H  H9  1  0.83350800  0.41531400  0.76418400  1
  H  H10  1  0.78122700  0.69152600  0.79068400  1
  H  H11  1  0.63480100  0.65838500  0.78976000  1
  H  H12  1  0.16747300  0.41076200  0.23632400  1
  H  H13  1  0.21637900  0.68776600  0.21019100  1
  H  H14  1  0.36319100  0.65685900  0.21202300  1
  H  H15  1  0.20107700  0.62738700  0.71294500  1
  H  H16  1  0.19489200  0.34712000  0.75600200  1
  H  H17  1  0.34144400  0.34805000  0.78752800  1
  H  H18  1  0.79936500  0.62586800  0.28867700  1
  H  H19  1  0.80398600  0.34534600  0.24699800  1
  H  H20  1  0.65757800  0.34729300  0.21448100  1
  H  H21  1  0.15059100  0.82767800  0.63268500  1
  H  H22  1  0.23698900  0.75713400  0.37869300  1
  H  H23  1  0.14098500  0.63204800  0.37546600  1
  H  H24  1  0.84540300  0.18282100  0.66543800  1
  H  H25  1  0.77462000  0.20829100  0.39773600  1
  H  H26  1  0.86957900  0.33312500  0.38110500  1
  H  H27  1  0.85063100  0.82657500  0.36486600  1
  H  H28  1  0.76337600  0.75957700  0.61946200  1
  H  H29  1  0.85876800  0.63404300  0.62442300  1
  H  H30  1  0.15533500  0.18188200  0.33926900  1
  H  H31  1  0.22537700  0.20969700  0.60697900  1
  H  H32  1  0.12986400  0.33424300  0.62236900  1
  C  C1  1  0.33893900  0.49363100  0.50292800  1
  C  C2  1  0.66099300  0.49373400  0.49861400  1
  C  C3  1  0.49686700  0.49377200  0.32811300  1
  C  C4  1  0.50305400  0.49405800  0.67339300  1
  C  C5  1  0.57501100  0.49878800  0.81818100  1
  C  C6  1  0.42488600  0.49813800  0.18331700  1
  C  C7  1  0.50305200  0.49422200  0.77065100  1
  C  C8  1  0.49684800  0.49380800  0.23084700  1
  C  C9  1  0.43012100  0.49149900  0.81619500  1
  C  C10  1  0.56977200  0.49125600  0.18529100  1
  C  C11  1  0.42863400  0.49273600  0.90775900  1
  C  C12  1  0.57128300  0.49266400  0.09372900  1
  C  C13  1  0.50063300  0.49278600  0.95487300  1
  C  C14  1  0.49929100  0.49270800  0.04661000  1
  C  C15  1  0.57394600  0.49563100  0.91004100  1
  C  C16  1  0.42597300  0.49523700  0.09144900  1
  C  C17  1  0.35529400  0.49539600  0.95320800  1
  C  C18  1  0.64463000  0.49549500  0.04829800  1
  C  C19  1  0.35401700  0.49711000  0.04313800  1
  C  C20  1  0.64590500  0.49758100  0.95835400  1
  C  C21  1  0.95703700  0.57454300  0.49958000  1
  C  C22  1  0.04250500  0.41360200  0.49771700  1
  C  C23  1  0.04297700  0.57448600  0.50129600  1
  C  C24  1  0.95732700  0.41367600  0.50493500  1
  C  C25  1  0.91443900  0.49388000  0.50327400  1
  C  C26  1  0.08547500  0.49374900  0.49857100  1
  C  C27  1  0.82490300  0.49311400  0.50191200  1
  C  C28  1  0.17501700  0.49291700  0.49987800  1
  C  C29  1  0.24966900  0.49317300  0.50141300  1
  C  C30  1  0.75025600  0.49334500  0.50027200  1
  C  C31  1  0.49621400  0.94785600  0.42244200  1
  C  C32  1  0.50397000  0.03973700  0.57905700  1
  C  C33  1  0.50397500  0.94772700  0.57898100  1
  C  C34  1  0.49626000  0.03986500  0.42251600  1
  C  C35  1  0.50007600  0.90157900  0.50067500  1
  C  C36  1  0.50011800  0.08601800  0.50082400  1
  C  C37  1  0.49998400  0.80561700  0.50060800  1
  C  C38  1  0.50007500  0.18198500  0.50089700  1
  C  C39  1  0.65194100  0.51840000  0.77442100  1
  C  C40  1  0.70752700  0.45047800  0.76122300  1
  C  C41  1  0.78994400  0.46915900  0.76401900  1
  C  C42  1  0.81595500  0.55520100  0.77834900  1
  C  C43  1  0.76052300  0.62407900  0.77962100  1
  C  C44  1  0.67824900  0.60564300  0.77701500  1
  C  C45  1  0.34775500  0.51661400  0.22713300  1
  C  C46  1  0.29297000  0.44785200  0.23998300  1
  C  C47  1  0.21033800  0.46528300  0.23680800  1
  C  C48  1  0.18331500  0.55093700  0.22237900  1
  C  C49  1  0.23788200  0.62064000  0.22140100  1
  C  C50  1  0.32036900  0.60346300  0.22455000  1
  C  C51  1  0.35346100  0.48820000  0.76841900  1
  C  C52  1  0.31457000  0.56667100  0.74621900  1
  C  C53  1  0.23262300  0.56564900  0.72615500  1
  C  C54  1  0.18963900  0.48699200  0.73072600  1
  C  C55  1  0.22913000  0.40831000  0.74952700  1
  C  C56  1  0.31155100  0.40863700  0.76650600  1
  C  C57  1  0.64637600  0.48759500  0.23309500  1
  C  C58  1  0.68562700  0.56584900  0.25524300  1
  C  C59  1  0.76750200  0.56431300  0.27555900  1
  C  C60  1  0.81000100  0.48531600  0.27149200  1
  C  C61  1  0.77010600  0.40683600  0.25288900  1
  C  C62  1  0.68778800  0.40773700  0.23537900  1
  C  C63  1  0.09114400  0.65788300  0.50196100  1
  C  C64  1  0.09328400  0.71485200  0.57388100  1
  C  C65  1  0.14748200  0.78525500  0.57540800  1
  C  C66  1  0.19974300  0.79986300  0.50607700  1
  C  C67  1  0.19604900  0.74586800  0.43335900  1
  C  C68  1  0.14197900  0.67561300  0.43151400  1
  C  C69  1  0.91093500  0.32993400  0.51328500  1
  C  C70  1  0.90495400  0.28570000  0.59298300  1
  C  C71  1  0.85149500  0.21533400  0.60241500  1
  C  C72  1  0.80381900  0.18830200  0.53289700  1
  C  C73  1  0.81178600  0.22946600  0.45265800  1
  C  C74  1  0.86523400  0.29972700  0.44315600  1
  C  C75  1  0.90903700  0.65805100  0.49773200  1
  C  C76  1  0.90728600  0.71415600  0.42512400  1
  C  C77  1  0.85342200  0.78483300  0.42264600  1
  C  C78  1  0.80109600  0.80058800  0.49167100  1
  C  C79  1  0.80436400  0.74742600  0.56502000  1
  C  C80  1  0.85810600  0.67689400  0.56783300  1
  C  C81  1  0.08887100  0.32979500  0.49017300  1
  C  C82  1  0.09517500  0.28499500  0.41082600  1
  C  C83  1  0.14893700  0.21481200  0.40204500  1
  C  C84  1  0.19658200  0.18856200  0.47188800  1
  C  C85  1  0.18822900  0.23024800  0.55181200  1
  C  C86  1  0.13448100  0.30031200  0.56063900  1
  N  N1  1  0.50003400  0.25920000  0.50093300  1
  N  N2  1  0.49991300  0.72840500  0.50057500  1
  Cl  Cl1  1  0.67492300  0.33934700  0.76158500  1
  Cl  Cl2  1  0.91787400  0.57632900  0.80496900  1
  Cl  Cl3  1  0.32696300  0.33721400  0.23950300  1
  Cl  Cl4  1  0.08129700  0.57054200  0.19510900  1
  Cl  Cl5  1  0.36537900  0.66900300  0.75570400  1
  Cl  Cl6  1  0.08378700  0.48822900  0.72002800  1
  Cl  Cl7  1  0.63535700  0.66846700  0.24548500  1
  Cl  Cl8  1  0.91578700  0.48579000  0.28262900  1
  Cl  Cl9  1  0.03329600  0.69760800  0.66720700  1
  Cl  Cl10  1  0.27286900  0.88460400  0.51194400  1
  Cl  Cl11  1  0.96081500  0.31945900  0.68481200  1
  Cl  Cl12  1  0.73131600  0.10399100  0.54757500  1
  Cl  Cl13  1  0.96729600  0.69546200  0.33206200  1
  Cl  Cl14  1  0.72846000  0.88575700  0.48460400  1
  Cl  Cl15  1  0.03939300  0.31789200  0.31863800  1
  Cl  Cl16  1  0.26961700  0.10467800  0.45801700  1
  O  O1  1  0.37777000  0.57054600  0.50278600  1
  O  O2  1  0.62212300  0.41700000  0.49902300  1
  O  O3  1  0.62212200  0.57061800  0.49862400  1
  O  O4  1  0.37784900  0.41691900  0.50261300  1
  O  O5  1  0.49784000  0.57055100  0.36966400  1
  O  O6  1  0.50177400  0.41712400  0.63188400  1
  O  O7  1  0.50206000  0.57077000  0.63173000  1
  O  O8  1  0.49819100  0.41691000  0.36974200  1
