# generated using pymatgen
data_Fe2H16C40O17
_symmetry_space_group_name_H-M   'P 1'
_cell_length_a   15.91547000
_cell_length_b   16.95592300
_cell_length_c   11.83029400
_cell_angle_alpha   71.83585300
_cell_angle_beta   96.70594100
_cell_angle_gamma   98.14136900
_symmetry_Int_Tables_number   1
_chemical_formula_structural   Fe2H16C40O17
_chemical_formula_sum   'Fe2 H16 C40 O17'
_cell_volume   2993.91087313
_cell_formula_units_Z   1
loop_
 _symmetry_equiv_pos_site_id
 _symmetry_equiv_pos_as_xyz
  1  'x, y, z'
loop_
 _atom_site_type_symbol
 _atom_site_label
 _atom_site_symmetry_multiplicity
 _atom_site_fract_x
 _atom_site_fract_y
 _atom_site_fract_z
 _atom_site_occupancy
  Fe  Fe1  1  0.50429100  0.00263500  0.74791800  1
  Fe  Fe2  1  0.49546000  0.99888000  0.25042000  1
  H  H1  1  0.23054300  0.99921500  0.73825400  1
  H  H2  1  0.08458400  0.99164200  0.78932000  1
  H  H3  1  0.17560300  0.01418100  0.13043100  1
  H  H4  1  0.76743900  0.00452300  0.25859300  1
  H  H5  1  0.91386400  0.01175500  0.21065100  1
  H  H6  1  0.50742800  0.73153200  0.41121900  1
  H  H7  1  0.51272400  0.57032800  0.76955500  1
  H  H8  1  0.51927400  0.68890600  0.84208700  1
  H  H9  1  0.48337100  0.43063500  0.22848400  1
  H  H10  1  0.47688900  0.31201600  0.15597300  1
  H  H11  1  0.49047400  0.26966700  0.58693000  1
  H  H12  1  0.41599400  0.49238200  0.66614000  1
  H  H13  1  0.40737200  0.37259900  0.59374600  1
  H  H14  1  0.58087800  0.50864600  0.33179000  1
  H  H15  1  0.58964600  0.62839200  0.40429200  1
  H  H16  1  0.83489600  0.92149000  0.86384600  1
  C  C1  1  0.21944400  0.00189300  0.82532700  1
  C  C2  1  0.13730100  0.99823300  0.85337600  1
  C  C3  1  0.12239500  0.00417300  0.96229200  1
  C  C4  1  0.18958100  0.01186000  0.04442100  1
  C  C5  1  0.27289500  0.01500700  0.01788300  1
  C  C6  1  0.28755300  0.01201200  0.90524400  1
  C  C7  1  0.03648900  0.00131400  0.99040800  1
  C  C8  1  0.96405400  0.99898000  0.01278000  1
  C  C9  1  0.81151400  0.98695800  0.95620100  1
  C  C10  1  0.72719200  0.98466100  0.98041800  1
  C  C11  1  0.71186700  0.98929200  0.09223900  1
  C  C12  1  0.77930200  0.00063600  0.17247800  1
  C  C13  1  0.86173200  0.00401700  0.14633800  1
  C  C14  1  0.87769500  0.99617100  0.03914200  1
  C  C15  1  0.47540500  0.12815800  0.54188000  1
  C  C16  1  0.37270900  0.02118700  0.86449600  1
  C  C17  1  0.65742000  0.98353200  0.88548700  1
  C  C18  1  0.51794900  0.84962500  0.71916700  1
  C  C19  1  0.47935900  0.15141000  0.27910500  1
  C  C20  1  0.34164200  0.01564300  0.11312000  1
  C  C21  1  0.62657500  0.98043000  0.13261100  1
  C  C22  1  0.52293800  0.87296500  0.45640100  1
  C  C23  1  0.51765600  0.79100800  0.54665300  1
  C  C24  1  0.51088900  0.72202100  0.50620900  1
  C  C25  1  0.50874400  0.64220200  0.58483600  1
  C  C26  1  0.51250700  0.63180100  0.70561500  1
  C  C27  1  0.51746200  0.69996300  0.74689800  1
  C  C28  1  0.51959200  0.78030200  0.66880000  1
  C  C29  1  0.45348500  0.49635700  0.59368000  1
  C  C30  1  0.44860500  0.42807000  0.55244600  1
  C  C31  1  0.49356100  0.43164100  0.45741700  1
  C  C32  1  0.54343000  0.50469000  0.40428900  1
  C  C33  1  0.54836000  0.57296000  0.44557000  1
  C  C34  1  0.50338600  0.56940700  0.54058900  1
  C  C35  1  0.48398400  0.36919200  0.29242600  1
  C  C36  1  0.47905600  0.30101300  0.25118300  1
  C  C37  1  0.47758700  0.22073900  0.32938200  1
  C  C38  1  0.48005200  0.21009000  0.45155600  1
  C  C39  1  0.48666500  0.27909000  0.49193700  1
  C  C40  1  0.48824400  0.35884600  0.41322300  1
  O  O1  1  0.53286400  0.11373200  0.63279500  1
  O  O2  1  0.42597300  0.08778700  0.86466500  1
  O  O3  1  0.40863800  0.07320200  0.54027000  1
  O  O4  1  0.39126700  0.96823900  0.81307600  1
  O  O5  1  0.58034900  0.99772800  0.89714000  1
  O  O6  1  0.67325600  0.97510100  0.78378100  1
  O  O7  1  0.51641900  0.92717300  0.65099800  1
  O  O8  1  0.51305100  0.83302200  0.83435900  1
  O  O9  1  0.48364200  0.07429700  0.34764200  1
  O  O10  1  0.48215400  0.16774900  0.16356300  1
  O  O11  1  0.41967500  0.00460800  0.10067200  1
  O  O12  1  0.32329600  0.02032800  0.21595600  1
  O  O13  1  0.59011100  0.92742600  0.45826300  1
  O  O14  1  0.60873400  0.03261700  0.18592700  1
  O  O15  1  0.46582700  0.88775800  0.36507300  1
  O  O16  1  0.57289000  0.91426300  0.13149900  1
  O  O17  1  0.83116900  0.98168700  0.84955900  1
