# generated using pymatgen
data_ZnH12C23(NO3)2
_symmetry_space_group_name_H-M   'P 1'
_cell_length_a   27.64048500
_cell_length_b   11.13500700
_cell_length_c   9.90582700
_cell_angle_alpha   89.99736600
_cell_angle_beta   89.99296300
_cell_angle_gamma   89.99363800
_symmetry_Int_Tables_number   1
_chemical_formula_structural   ZnH12C23(NO3)2
_chemical_formula_sum   'Zn2 H24 C46 N4 O12'
_cell_volume   3048.78561172
_cell_formula_units_Z   2
loop_
 _symmetry_equiv_pos_site_id
 _symmetry_equiv_pos_as_xyz
  1  'x, y, z'
loop_
 _atom_site_type_symbol
 _atom_site_label
 _atom_site_symmetry_multiplicity
 _atom_site_fract_x
 _atom_site_fract_y
 _atom_site_fract_z
 _atom_site_occupancy
  Zn  Zn1  1  0.50183700  0.49889000  0.65283200  1
  Zn  Zn2  1  0.49869000  0.50070600  0.34579500  1
  H  H1  1  0.34699500  0.51768500  0.72581900  1
  H  H2  1  0.25879800  0.51685600  0.72767700  1
  H  H3  1  0.12031100  0.21398300  0.40264900  1
  H  H4  1  0.65557100  0.51275800  0.70352100  1
  H  H5  1  0.74334700  0.51375400  0.69955000  1
  H  H6  1  0.88031700  0.24217900  0.33024700  1
  H  H7  1  0.96501500  0.23608700  0.33457400  1
  H  H8  1  0.03560800  0.21284800  0.39478300  1
  H  H9  1  0.34510300  0.47250100  0.29639800  1
  H  H10  1  0.25720900  0.47129700  0.30033100  1
  H  H11  1  0.12120800  0.77884400  0.61712900  1
  H  H12  1  0.96430400  0.76903100  0.65523100  1
  H  H13  1  0.65350800  0.49586900  0.27149200  1
  H  H14  1  0.87967600  0.76841400  0.64520500  1
  H  H15  1  0.74160100  0.49825400  0.26928300  1
  H  H16  1  0.03657000  0.78615000  0.61025800  1
  H  H17  1  0.49958500  0.88688200  0.29597600  1
  H  H18  1  0.49773200  0.90669800  0.60515000  1
  H  H19  1  0.49634400  0.10813200  0.29234900  1
  H  H20  1  0.50566400  0.09485700  0.60036500  1
  H  H21  1  0.53239600  0.66569200  0.87783100  1
  H  H22  1  0.49939300  0.41588400  0.90337100  1
  H  H23  1  0.54958100  0.63174500  0.12775400  1
  H  H24  1  0.46841100  0.46392800  0.09332100  1
  C  C1  1  0.50150900  0.26490800  0.49596000  1
  C  C2  1  0.40558100  0.49671200  0.50814700  1
  C  C3  1  0.49922800  0.73467700  0.50305800  1
  C  C4  1  0.59494400  0.50271300  0.49048500  1
  C  C5  1  0.17633500  0.39581700  0.47428300  1
  C  C6  1  0.17663100  0.59368600  0.55296200  1
  C  C7  1  0.27692400  0.48084300  0.39397900  1
  C  C8  1  0.32676400  0.48217500  0.39211100  1
  C  C9  1  0.32775900  0.50722800  0.63159200  1
  C  C10  1  0.27782700  0.50728600  0.63291600  1
  C  C11  1  0.25226900  0.49377400  0.51415200  1
  C  C12  1  0.10094600  0.49712700  0.50821200  1
  C  C13  1  0.12628500  0.39618400  0.47036600  1
  C  C14  1  0.10151300  0.29553500  0.42990300  1
  C  C15  1  0.12657000  0.59631100  0.55020400  1
  C  C16  1  0.35251500  0.49516500  0.51095600  1
  C  C17  1  0.64802600  0.50423200  0.48765700  1
  C  C18  1  0.97511000  0.40383200  0.44476400  1
  C  C19  1  0.97504600  0.60001400  0.54793600  1
  C  C20  1  0.95014200  0.50283400  0.49403100  1
  C  C21  1  0.94872900  0.31201800  0.38363100  1
  C  C22  1  0.89914000  0.31567400  0.37830800  1
  C  C23  1  0.87440100  0.41104700  0.43274900  1
  C  C24  1  0.89979400  0.50454600  0.48960600  1
  C  C25  1  0.87421900  0.59961000  0.54236400  1
  C  C26  1  0.82417100  0.59974800  0.53847700  1
  C  C27  1  0.82433100  0.41320300  0.43032000  1
  C  C28  1  0.72367600  0.51077800  0.60527900  1
  C  C29  1  0.67383700  0.50952400  0.60714400  1
  C  C30  1  0.67275500  0.50005600  0.36630900  1
  C  C31  1  0.72268800  0.50082100  0.36477800  1
  C  C32  1  0.74834600  0.50635800  0.48427000  1
  C  C33  1  0.02559400  0.39927000  0.45645000  1
  C  C34  1  0.05060200  0.49899700  0.50365700  1
  C  C35  1  0.02574100  0.60066000  0.54605900  1
  C  C36  1  0.05192900  0.29662200  0.42329400  1
  C  C37  1  0.10211100  0.69863700  0.58667600  1
  C  C38  1  0.94835300  0.69397300  0.60371200  1
  C  C39  1  0.89872500  0.69363100  0.60042900  1
  C  C40  1  0.05248000  0.70119300  0.58447400  1
  C  C41  1  0.49930800  0.93207500  0.39281900  1
  C  C42  1  0.49874900  0.86627700  0.50623400  1
  C  C43  1  0.49904600  0.06518600  0.39022500  1
  C  C44  1  0.50230200  0.13345900  0.50097200  1
  C  C45  1  0.52012700  0.58414900  0.92673500  1
  C  C46  1  0.52400200  0.57456800  0.07536300  1
  N  N1  1  0.20067100  0.49410200  0.51496300  1
  N  N2  1  0.80000000  0.50686400  0.48328700  1
  N  N3  1  0.50489600  0.49608800  0.85456200  1
  N  N4  1  0.49635700  0.50465500  0.14403200  1
  O  O1  1  0.50243200  0.32080000  0.61197400  1
  O  O2  1  0.50031700  0.32113300  0.37947600  1
  O  O3  1  0.42932100  0.49712700  0.62283200  1
  O  O4  1  0.42718100  0.49785600  0.39036700  1
  O  O5  1  0.50060200  0.67833800  0.61946300  1
  O  O6  1  0.49863000  0.67915400  0.38605400  1
  O  O7  1  0.57338100  0.50179400  0.60861700  1
  O  O8  1  0.57123200  0.50226700  0.37545000  1
  O  O9  1  0.20097100  0.29659900  0.43902500  1
  O  O10  1  0.79970000  0.31988200  0.37860200  1
  O  O11  1  0.20159300  0.69174300  0.59039600  1
  O  O12  1  0.79941300  0.69388700  0.58786900  1
