# generated using pymatgen
data_CuH2C14N7O16
_symmetry_space_group_name_H-M   'P 1'
_cell_length_a   11.02232600
_cell_length_b   9.52316500
_cell_length_c   17.66691900
_cell_angle_alpha   90.00000000
_cell_angle_beta   90.00112900
_cell_angle_gamma   90.00000000
_symmetry_Int_Tables_number   1
_chemical_formula_structural   CuH2C14N7O16
_chemical_formula_sum   'Cu2 H4 C28 N14 O32'
_cell_volume   1854.45106863
_cell_formula_units_Z   2
loop_
 _symmetry_equiv_pos_site_id
 _symmetry_equiv_pos_as_xyz
  1  'x, y, z'
loop_
 _atom_site_type_symbol
 _atom_site_label
 _atom_site_symmetry_multiplicity
 _atom_site_fract_x
 _atom_site_fract_y
 _atom_site_fract_z
 _atom_site_occupancy
  Cu  Cu1  1  0.50863100  0.63964700  0.50259000  1
  Cu  Cu2  1  0.50701200  0.35830400  0.50375000  1
  H  H1  1  0.45002700  0.72565200  0.73997200  1
  H  H2  1  0.36695700  0.35453000  0.27319400  1
  H  H3  1  0.65062200  0.65240100  0.26259500  1
  H  H4  1  0.44631500  0.28250000  0.74036000  1
  C  C1  1  0.27262100  0.49984100  0.49650600  1
  C  C2  1  0.74225800  0.49782200  0.50807300  1
  C  C3  1  0.07189200  0.37542300  0.51226500  1
  C  C4  1  0.94201900  0.61889000  0.48427300  1
  C  C5  1  0.94567700  0.37348100  0.51184300  1
  C  C6  1  0.06863600  0.62173200  0.48532600  1
  C  C7  1  0.52048500  0.49775300  0.35795500  1
  C  C8  1  0.48656400  0.50107800  0.64833100  1
  C  C9  1  0.87840000  0.49641000  0.50163000  1
  C  C10  1  0.13606100  0.50006000  0.49975100  1
  C  C11  1  0.45932400  0.63091700  0.84830500  1
  C  C12  1  0.41468700  0.42071200  0.16178800  1
  C  C13  1  0.57543500  0.59190200  0.15524700  1
  C  C14  1  0.45352600  0.37925300  0.84929600  1
  C  C15  1  0.46011000  0.62844300  0.77012200  1
  C  C16  1  0.42834200  0.41622000  0.23938900  1
  C  C17  1  0.58450600  0.58845900  0.23342800  1
  C  C18  1  0.45441600  0.37957200  0.77090600  1
  C  C19  1  0.46811800  0.50310800  0.73115400  1
  C  C20  1  0.51295900  0.49891400  0.27522200  1
  C  C21  1  0.46373000  0.07234700  0.44434700  1
  C  C22  1  0.56348400  0.92369600  0.55851800  1
  C  C23  1  0.55587200  0.06992800  0.56207500  1
  C  C24  1  0.46624800  0.92665500  0.44267700  1
  C  C25  1  0.46212600  0.50560900  0.88835800  1
  C  C26  1  0.48927000  0.50785000  0.11902800  1
  C  C27  1  0.47054200  0.50711300  0.96969400  1
  C  C28  1  0.47851800  0.50811600  0.03780300  1
  N  N1  1  0.50985700  0.85073500  0.50172300  1
  N  N2  1  0.50674500  0.14677800  0.50433200  1
  N  N3  1  0.45639900  0.76330900  0.88648200  1
  N  N4  1  0.32351600  0.33459200  0.12736800  1
  N  N5  1  0.65422500  0.68366300  0.11379400  1
  N  N6  1  0.44131400  0.24801700  0.88812200  1
  N  N7  1  0.41521800  0.14079500  0.37965700  1
  N  N8  1  0.64795300  0.85567300  0.60783100  1
  N  N9  1  0.59859300  0.13493100  0.62981200  1
  N  N10  1  0.43005900  0.85992500  0.37397500  1
  N  N11  1  0.13405700  0.24606900  0.52573500  1
  N  N12  1  0.87796100  0.73957900  0.45754300  1
  N  N13  1  0.88658700  0.24105300  0.51893900  1
  N  N14  1  0.12775000  0.74968500  0.46532300  1
  O  O1  1  0.33235300  0.61976400  0.49626400  1
  O  O2  1  0.68298200  0.37858000  0.51097800  1
  O  O3  1  0.68432500  0.61827100  0.51280000  1
  O  O4  1  0.33075900  0.37929000  0.50042900  1
  O  O5  1  0.52673500  0.61753900  0.39329800  1
  O  O6  1  0.49291200  0.37962600  0.61337800  1
  O  O7  1  0.49794600  0.62088200  0.61246200  1
  O  O8  1  0.51183500  0.37809400  0.39374600  1
  O  O9  1  0.49789200  0.87467900  0.85264900  1
  O  O10  1  0.39798000  0.77730300  0.95000600  1
  O  O11  1  0.28337000  0.22486000  0.16330700  1
  O  O12  1  0.26730700  0.37520100  0.06646700  1
  O  O13  1  0.70911500  0.78536900  0.14896100  1
  O  O14  1  0.68375000  0.65703100  0.04401800  1
  O  O15  1  0.39251900  0.14242700  0.85292800  1
  O  O16  1  0.49142700  0.22685000  0.95381400  1
  O  O17  1  0.30085800  0.17373400  0.37811000  1
  O  O18  1  0.47639300  0.13856800  0.31668500  1
  O  O19  1  0.61591500  0.82251400  0.67616300  1
  O  O20  1  0.76271900  0.87458700  0.59517000  1
  O  O21  1  0.69189600  0.21787300  0.62830200  1
  O  O22  1  0.56271500  0.08582600  0.69467000  1
  O  O23  1  0.50045300  0.86516100  0.31493300  1
  O  O24  1  0.33353700  0.78231000  0.37170600  1
  O  O25  1  0.11394600  0.13880200  0.48183600  1
  O  O26  1  0.18532300  0.22555300  0.59113800  1
  O  O27  1  0.80787600  0.72705500  0.39871800  1
  O  O28  1  0.90789800  0.86457700  0.48054100  1
  O  O29  1  0.91327700  0.15942100  0.57557600  1
  O  O30  1  0.83498100  0.18713800  0.45943000  1
  O  O31  1  0.17021100  0.82891300  0.51921600  1
  O  O32  1  0.10380700  0.80633000  0.39988300  1
