# generated using pymatgen
data_FeH9C21(NO3)2
_symmetry_space_group_name_H-M   'P 1'
_cell_length_a   12.47486000
_cell_length_b   22.08116800
_cell_length_c   6.73415900
_cell_angle_alpha   90.00000000
_cell_angle_beta   80.30371100
_cell_angle_gamma   90.00000000
_symmetry_Int_Tables_number   1
_chemical_formula_structural   FeH9C21(NO3)2
_chemical_formula_sum   'Fe2 H18 C42 N4 O12'
_cell_volume   1828.48827976
_cell_formula_units_Z   2
loop_
 _symmetry_equiv_pos_site_id
 _symmetry_equiv_pos_as_xyz
  1  'x, y, z'
loop_
 _atom_site_type_symbol
 _atom_site_label
 _atom_site_symmetry_multiplicity
 _atom_site_fract_x
 _atom_site_fract_y
 _atom_site_fract_z
 _atom_site_occupancy
  Fe  Fe1  1  0.00210400  0.06409300  0.01049100  1
  Fe  Fe2  1  0.99876700  0.93501300  0.98468700  1
  H  H1  1  0.26504600  0.55464600  0.82744500  1
  H  H2  1  0.26618800  0.44325500  0.84647600  1
  H  H3  1  0.73451900  0.44436800  0.18019500  1
  H  H4  1  0.73333800  0.55575700  0.16092100  1
  H  H5  1  0.83460500  0.27117300  0.99553500  1
  H  H6  1  0.83140800  0.72736400  0.93634100  1
  H  H7  1  0.83756900  0.16067800  0.99471400  1
  H  H8  1  0.83289900  0.83822800  0.94021500  1
  H  H9  1  0.16665200  0.16052100  0.06005800  1
  H  H10  1  0.16188500  0.83864800  0.00617200  1
  H  H11  1  0.16810500  0.27136700  0.06829300  1
  H  H12  1  0.16485900  0.72815200  0.00946100  1
  H  H13  1  0.34926300  0.96787000  0.04045900  1
  H  H14  1  0.28035400  0.02833900  0.89213400  1
  H  H15  1  0.45356300  0.03460100  0.01875500  1
  H  H16  1  0.64504400  0.02599800  0.96584100  1
  H  H17  1  0.52109100  0.97128300  0.15828900  1
  H  H18  1  0.65334700  0.98410700  0.24912100  1
  C  C1  1  0.15746000  0.00348500  0.67500500  1
  C  C2  1  0.84304300  0.00547700  0.77208600  1
  C  C3  1  0.15582300  0.99315900  0.23657500  1
  C  C4  1  0.84521800  0.99560900  0.33270400  1
  C  C5  1  0.90464200  0.62449900  0.04110100  1
  C  C6  1  0.90708200  0.37495100  0.08311300  1
  C  C7  1  0.09247200  0.62405500  0.92398900  1
  C  C8  1  0.09488300  0.37453000  0.96569100  1
  C  C9  1  0.09417000  0.56167700  0.93369700  1
  C  C10  1  0.09548900  0.43693600  0.95540100  1
  C  C11  1  0.99943500  0.53061500  0.99826900  1
  C  C12  1  0.00011400  0.46840900  0.00921700  1
  C  C13  1  0.90405000  0.56209300  0.05190800  1
  C  C14  1  0.90538400  0.43733900  0.07376700  1
  C  C15  1  0.19030500  0.53033200  0.87874400  1
  C  C16  1  0.19096500  0.46787700  0.88953800  1
  C  C17  1  0.80925600  0.46868700  0.12885100  1
  C  C18  1  0.80858000  0.53114600  0.11791500  1
  C  C19  1  0.90813300  0.24787000  0.01517500  1
  C  C20  1  0.90506300  0.75095800  0.95363600  1
  C  C21  1  0.91002300  0.18547700  0.01272300  1
  C  C22  1  0.90612200  0.81350000  0.95367200  1
  C  C23  1  0.09337300  0.18536900  0.04791600  1
  C  C24  1  0.08942000  0.81370300  0.98919600  1
  C  C25  1  0.09441000  0.24790500  0.05038200  1
  C  C26  1  0.09129900  0.75130100  0.98910200  1
  C  C27  1  0.00111300  0.27967600  0.03310600  1
  C  C28  1  0.99834000  0.71933600  0.97211100  1
  C  C29  1  0.25488600  0.99036000  0.32436800  1
  C  C30  1  0.35079200  0.97866600  0.19649300  1
  C  C31  1  0.44870300  0.98140400  0.26412900  1
  C  C32  1  0.25671100  0.00347400  0.52451600  1
  C  C33  1  0.35528100  0.00716700  0.59169400  1
  C  C34  1  0.45196800  0.99671700  0.46216900  1
  C  C35  1  0.54999400  0.00033900  0.53393000  1
  C  C36  1  0.64857000  0.99173000  0.40806400  1
  C  C37  1  0.74525900  0.99560800  0.48063100  1
  C  C38  1  0.35610000  0.02025800  0.79144200  1
  C  C39  1  0.45313800  0.02372200  0.86241000  1
  C  C40  1  0.54980000  0.01379200  0.73409800  1
  C  C41  1  0.64633800  0.01703800  0.80764100  1
  C  C42  1  0.74435000  0.00773600  0.68226700  1
  N  N1  1  0.99833800  0.65468300  0.97795700  1
  N  N2  1  0.00119200  0.34433400  0.02866300  1
  N  N3  1  0.00190700  0.15522700  0.02826100  1
  N  N4  1  0.99759200  0.84380300  0.97215200  1
  O  O1  1  0.11712500  0.95119000  0.74343500  1
  O  O2  1  0.12255800  0.05394500  0.76683200  1
  O  O3  1  0.88046100  0.05584300  0.83969400  1
  O  O4  1  0.87994200  0.95205900  0.81493500  1
  O  O5  1  0.11984300  0.94301100  0.16538900  1
  O  O6  1  0.12042000  0.04672800  0.19114000  1
  O  O7  1  0.88412800  0.04791000  0.26193100  1
  O  O8  1  0.87873600  0.94520000  0.23890800  1
  O  O9  1  0.81687100  0.65349500  0.09589400  1
  O  O10  1  0.81969300  0.34649900  0.14653800  1
  O  O11  1  0.17987600  0.65247900  0.86045100  1
  O  O12  1  0.18261800  0.34554800  0.91038200  1
