# generated using pymatgen
data_Cu3H31C48NO13
_symmetry_space_group_name_H-M   'P 1'
_cell_length_a   36.47018800
_cell_length_b   29.78141700
_cell_length_c   21.21060500
_cell_angle_alpha   90.00000000
_cell_angle_beta   54.69386100
_cell_angle_gamma   90.00000000
_symmetry_Int_Tables_number   1
_chemical_formula_structural   Cu3H31C48NO13
_chemical_formula_sum   'Cu12 H124 C192 N4 O52'
_cell_volume   18800.38947933
_cell_formula_units_Z   4
loop_
 _symmetry_equiv_pos_site_id
 _symmetry_equiv_pos_as_xyz
  1  'x, y, z'
loop_
 _atom_site_type_symbol
 _atom_site_label
 _atom_site_symmetry_multiplicity
 _atom_site_fract_x
 _atom_site_fract_y
 _atom_site_fract_z
 _atom_site_occupancy
  Cu  Cu1  1  0.00000000  0.54508800  0.50000000  1
  Cu  Cu2  1  0.50000000  0.04508800  0.50000000  1
  Cu  Cu3  1  0.00000000  0.45745600  0.50000000  1
  Cu  Cu4  1  0.50000000  0.95745600  0.50000000  1
  Cu  Cu5  1  0.95617700  0.49920700  0.04342800  1
  Cu  Cu6  1  0.04382400  0.49920700  0.95657200  1
  Cu  Cu7  1  0.45617700  0.99920700  0.04342800  1
  Cu  Cu8  1  0.54382400  0.99920700  0.95657200  1
  Cu  Cu9  1  0.50067800  0.49919600  0.93800600  1
  Cu  Cu10  1  0.49932300  0.49919600  0.06199400  1
  Cu  Cu11  1  0.00067800  0.99919600  0.93800600  1
  Cu  Cu12  1  0.99932300  0.99919600  0.06199400  1
  H  H1  1  0.98075100  0.56839800  0.31337500  1
  H  H2  1  0.01925000  0.56839800  0.68662500  1
  H  H3  1  0.48075100  0.06839800  0.31337500  1
  H  H4  1  0.51925000  0.06839800  0.68662500  1
  H  H5  1  0.93080500  0.52446400  0.26068800  1
  H  H6  1  0.06919500  0.52446400  0.73931200  1
  H  H7  1  0.43080500  0.02446400  0.26068800  1
  H  H8  1  0.56919500  0.02446400  0.73931200  1
  H  H9  1  0.97262300  0.56679000  0.22066300  1
  H  H10  1  0.02737800  0.56679000  0.77933700  1
  H  H11  1  0.47262300  0.06679000  0.22066300  1
  H  H12  1  0.52737800  0.06679000  0.77933700  1
  H  H13  1  0.05486200  0.54635000  0.25031200  1
  H  H14  1  0.94513800  0.54635000  0.74968800  1
  H  H15  1  0.55486200  0.04635000  0.25031200  1
  H  H16  1  0.44513800  0.04635000  0.74968800  1
  H  H17  1  0.05320800  0.54844300  0.14662700  1
  H  H18  1  0.94679200  0.54844300  0.85337300  1
  H  H19  1  0.55320800  0.04844300  0.14662700  1
  H  H20  1  0.44679200  0.04844300  0.85337300  1
  H  H21  1  0.01527700  0.43025500  0.28666000  1
  H  H22  1  0.98472300  0.43025500  0.71334000  1
  H  H23  1  0.51527700  0.93025500  0.28666000  1
  H  H24  1  0.48472300  0.93025500  0.71334000  1
  H  H25  1  0.95620500  0.44014300  0.34748000  1
  H  H26  1  0.04379500  0.44014300  0.65252000  1
  H  H27  1  0.45620500  0.94014300  0.34748000  1
  H  H28  1  0.54379500  0.94014300  0.65252000  1
  H  H29  1  0.95479700  0.44251500  0.24176400  1
  H  H30  1  0.04520300  0.44251500  0.75823600  1
  H  H31  1  0.45479700  0.94251500  0.24176400  1
  H  H32  1  0.54520300  0.94251500  0.75823600  1
  H  H33  1  0.01374500  0.42916400  0.18326100  1
  H  H34  1  0.98625500  0.42916400  0.81673900  1
  H  H35  1  0.51374500  0.92916400  0.18326100  1
  H  H36  1  0.48625500  0.92916400  0.81673900  1
  H  H37  1  0.06950500  0.48780200  0.23470100  1
  H  H38  1  0.93049500  0.48780200  0.76529900  1
  H  H39  1  0.56950500  0.98780200  0.23470100  1
  H  H40  1  0.43049500  0.98780200  0.76529900  1
  H  H41  1  0.07130000  0.49042400  0.12735600  1
  H  H42  1  0.92870000  0.49042400  0.87264400  1
  H  H43  1  0.57130000  0.99042400  0.12735600  1
  H  H44  1  0.42870000  0.99042400  0.87264400  1
  H  H45  1  0.63929600  0.44320200  0.92598800  1
  H  H46  1  0.36070400  0.44320200  0.07401200  1
  H  H47  1  0.13929600  0.94320200  0.92598800  1
  H  H48  1  0.86070400  0.94320200  0.07401200  1
  H  H49  1  0.63872500  0.55725200  0.80505300  1
  H  H50  1  0.36127500  0.55725200  0.19494700  1
  H  H51  1  0.13872500  0.05725200  0.80505300  1
  H  H52  1  0.86127500  0.05725200  0.19494700  1
  H  H53  1  0.70798400  0.59212000  0.70693800  1
  H  H54  1  0.29201600  0.59212000  0.29306200  1
  H  H55  1  0.20798400  0.09212000  0.70693800  1
  H  H56  1  0.79201600  0.09212000  0.29306200  1
  H  H57  1  0.79001500  0.59424300  0.62849000  1
  H  H58  1  0.20998600  0.59424300  0.37151000  1
  H  H59  1  0.29001500  0.09424300  0.62849000  1
  H  H60  1  0.70998600  0.09424300  0.37151000  1
  H  H61  1  0.85956900  0.56194900  0.59137100  1
  H  H62  1  0.14043100  0.56194900  0.40862900  1
  H  H63  1  0.35956900  0.06194900  0.59137100  1
  H  H64  1  0.64043100  0.06194900  0.40862900  1
  H  H65  1  0.86072400  0.44198600  0.70064500  1
  H  H66  1  0.13927600  0.44198600  0.29935500  1
  H  H67  1  0.36072400  0.94198600  0.70064500  1
  H  H68  1  0.63927600  0.94198600  0.29935500  1
  H  H69  1  0.79146300  0.40997000  0.80446100  1
  H  H70  1  0.20853700  0.40997000  0.19553900  1
  H  H71  1  0.29146300  0.90997000  0.80446100  1
  H  H72  1  0.70853700  0.90997000  0.19553900  1
  H  H73  1  0.70930200  0.41049900  0.88835800  1
  H  H74  1  0.29069800  0.41049900  0.11164200  1
  H  H75  1  0.20930200  0.91049900  0.88835800  1
  H  H76  1  0.79069800  0.91049900  0.11164200  1
  H  H77  1  0.54974900  0.35975200  0.87806900  1
  H  H78  1  0.45025100  0.35975200  0.12193100  1
  H  H79  1  0.04974900  0.85975200  0.87806900  1
  H  H80  1  0.95025100  0.85975200  0.12193100  1
  H  H81  1  0.42106700  0.29028300  0.18951800  1
  H  H82  1  0.57893300  0.29028300  0.81048200  1
  H  H83  1  0.92106700  0.79028300  0.18951800  1
  H  H84  1  0.07893300  0.79028300  0.81048200  1
  H  H85  1  0.91991100  0.70819900  0.18902800  1
  H  H86  1  0.08008900  0.70819900  0.81097200  1
  H  H87  1  0.41991100  0.20819900  0.18902800  1
  H  H88  1  0.58008900  0.20819900  0.81097200  1
  H  H89  1  0.94776200  0.63870400  0.12085100  1
  H  H90  1  0.05223800  0.63870400  0.87914900  1
  H  H91  1  0.44776200  0.13870400  0.12085100  1
  H  H92  1  0.55223800  0.13870400  0.87914900  1
  H  H93  1  0.54883300  0.63862800  0.02516800  1
  H  H94  1  0.45116700  0.63862800  0.97483200  1
  H  H95  1  0.04883300  0.13862800  0.02516800  1
  H  H96  1  0.95116700  0.13862800  0.97483200  1
  H  H97  1  0.42240800  0.70811700  0.96418200  1
  H  H98  1  0.57759200  0.70811700  0.03581800  1
  H  H99  1  0.92240800  0.20811700  0.96418200  1
  H  H100  1  0.07759200  0.20811700  0.03581800  1
  H  H101  1  0.92119600  0.29020200  0.96705000  1
  H  H102  1  0.07880400  0.29020200  0.03295000  1
  H  H103  1  0.42119600  0.79020200  0.96705000  1
  H  H104  1  0.57880400  0.79020200  0.03295000  1
  H  H105  1  0.94854300  0.35971300  0.98106400  1
  H  H106  1  0.05145800  0.35971300  0.01893600  1
  H  H107  1  0.44854300  0.85971300  0.98106400  1
  H  H108  1  0.55145800  0.85971300  0.01893600  1
  H  H109  1  0.91463400  0.56499400  0.42344100  1
  H  H110  1  0.83993700  0.55851000  0.49590000  1
  H  H111  1  0.82387700  0.49997300  0.51652400  1
  H  H112  1  0.81963000  0.52996100  0.44695300  1
  H  H113  1  0.08536600  0.56499400  0.57655900  1
  H  H114  1  0.16006300  0.55851000  0.50410000  1
  H  H115  1  0.17612400  0.49997300  0.48347500  1
  H  H116  1  0.18037000  0.52996100  0.55304700  1
  H  H117  1  0.41463400  0.06499400  0.42344100  1
  H  H118  1  0.33993700  0.05851000  0.49590000  1
  H  H119  1  0.32387700  0.99997300  0.51652400  1
  H  H120  1  0.31963000  0.02996100  0.44695300  1
  H  H121  1  0.58536600  0.06499400  0.57655900  1
  H  H122  1  0.66006300  0.05851000  0.50410000  1
  H  H123  1  0.67612400  0.99997300  0.48347500  1
  H  H124  1  0.68037000  0.02996100  0.55304700  1
  C  C1  1  0.91488900  0.50138900  0.58854900  1
  C  C2  1  0.08511200  0.50138900  0.41145100  1
  C  C3  1  0.41488900  0.00138900  0.58854900  1
  C  C4  1  0.58511200  0.00138900  0.41145100  1
  C  C5  1  0.99758100  0.50115100  0.38290200  1
  C  C6  1  0.00241900  0.50115100  0.61709800  1
  C  C7  1  0.49758100  0.00115100  0.38290200  1
  C  C8  1  0.50241900  0.00115100  0.61709800  1
  C  C9  1  0.96542200  0.53531400  0.31811700  1
  C  C10  1  0.03457800  0.53531400  0.68188300  1
  C  C11  1  0.46542200  0.03531400  0.31811700  1
  C  C12  1  0.53457800  0.03531400  0.68188300  1
  C  C13  1  0.96389400  0.53309400  0.24789800  1
  C  C14  1  0.03610600  0.53309400  0.75210200  1
  C  C15  1  0.46389400  0.03309400  0.24789800  1
  C  C16  1  0.53610600  0.03309400  0.75210200  1
  C  C17  1  0.04474200  0.51288400  0.24240900  1
  C  C18  1  0.95525800  0.51288400  0.75759100  1
  C  C19  1  0.54474200  0.01288400  0.24240900  1
  C  C20  1  0.45525800  0.01288400  0.75759100  1
  C  C21  1  0.98837600  0.45332100  0.29725500  1
  C  C22  1  0.01162400  0.45332100  0.70274500  1
  C  C23  1  0.48837600  0.95332100  0.29725500  1
  C  C24  1  0.51162400  0.95332100  0.70274500  1
  C  C25  1  0.99808800  0.50043500  0.31190000  1
  C  C26  1  0.00191200  0.50043500  0.68810000  1
  C  C27  1  0.49808800  0.00043500  0.31190000  1
  C  C28  1  0.50191200  0.00043500  0.68810000  1
  C  C29  1  0.99927800  0.49991600  0.19050500  1
  C  C30  1  0.00072200  0.49991600  0.80949500  1
  C  C31  1  0.49927800  0.99991600  0.19050500  1
  C  C32  1  0.50072200  0.99991600  0.80949500  1
  C  C33  1  0.04503800  0.51388500  0.17054500  1
  C  C34  1  0.95496200  0.51388500  0.82945500  1
  C  C35  1  0.54503800  0.01388500  0.17054500  1
  C  C36  1  0.45496200  0.01388500  0.82945500  1
  C  C37  1  0.98819300  0.45331100  0.22592700  1
  C  C38  1  0.01180700  0.45331100  0.77407300  1
  C  C39  1  0.48819300  0.95331100  0.22592700  1
  C  C40  1  0.51180700  0.95331100  0.77407300  1
  C  C41  1  0.65722200  0.46872600  0.88211100  1
  C  C42  1  0.34277800  0.46872600  0.11788900  1
  C  C43  1  0.15722200  0.96872600  0.88211100  1
  C  C44  1  0.84277800  0.96872600  0.11788900  1
  C  C45  1  0.63384400  0.50007400  0.87039200  1
  C  C46  1  0.36615600  0.50007400  0.12960800  1
  C  C47  1  0.13384400  0.00007400  0.87039200  1
  C  C48  1  0.86615600  0.00007400  0.12960800  1
  C  C49  1  0.65690200  0.53219600  0.81360000  1
  C  C50  1  0.34309800  0.53219600  0.18640000  1
  C  C51  1  0.15690200  0.03219600  0.81360000  1
  C  C52  1  0.84309800  0.03219600  0.18640000  1
  C  C53  1  0.70317700  0.53339800  0.76940900  1
  C  C54  1  0.29682300  0.53339800  0.23059100  1
  C  C55  1  0.20317700  0.03339800  0.76940900  1
  C  C56  1  0.79682300  0.03339800  0.23059100  1
  C  C57  1  0.72654900  0.50133000  0.77966400  1
  C  C58  1  0.27345100  0.50133000  0.22033600  1
  C  C59  1  0.22654900  0.00133000  0.77966400  1
  C  C60  1  0.77345100  0.00133000  0.22033600  1
  C  C61  1  0.70358800  0.46877900  0.83560800  1
  C  C62  1  0.29641200  0.46877900  0.16439200  1
  C  C63  1  0.20358800  0.96877900  0.83560800  1
  C  C64  1  0.79641200  0.96877900  0.16439200  1
  C  C65  1  0.72609800  0.56669000  0.71492900  1
  C  C66  1  0.27390200  0.56669000  0.28507000  1
  C  C67  1  0.22609800  0.06669000  0.71492900  1
  C  C68  1  0.77390200  0.06669000  0.28507000  1
  C  C69  1  0.77232200  0.56786400  0.67071700  1
  C  C70  1  0.22767800  0.56786400  0.32928300  1
  C  C71  1  0.27232200  0.06786400  0.67071700  1
  C  C72  1  0.72767800  0.06786400  0.32928300  1
  C  C73  1  0.79576500  0.53509700  0.67951300  1
  C  C74  1  0.20423500  0.53509700  0.32048700  1
  C  C75  1  0.29576500  0.03509700  0.67951300  1
  C  C76  1  0.70423500  0.03509700  0.32048700  1
  C  C77  1  0.77288300  0.50171900  0.73373500  1
  C  C78  1  0.22711800  0.50171900  0.26626500  1
  C  C79  1  0.27288300  0.00171900  0.73373500  1
  C  C80  1  0.72711800  0.00171900  0.26626500  1
  C  C81  1  0.79633000  0.46868900  0.74188900  1
  C  C82  1  0.20367000  0.46868900  0.25811100  1
  C  C83  1  0.29633000  0.96868900  0.74188900  1
  C  C84  1  0.70367000  0.96868900  0.25811100  1
  C  C85  1  0.77334900  0.43590800  0.79748000  1
  C  C86  1  0.22665200  0.43590800  0.20252000  1
  C  C87  1  0.27334900  0.93590800  0.79748000  1
  C  C88  1  0.72665200  0.93590800  0.20252000  1
  C  C89  1  0.72704900  0.43620200  0.84475900  1
  C  C90  1  0.27295100  0.43620200  0.15524100  1
  C  C91  1  0.22704900  0.93620200  0.84475900  1
  C  C92  1  0.77295100  0.93620200  0.15524100  1
  C  C93  1  0.84207500  0.53556500  0.63360900  1
  C  C94  1  0.15792500  0.53556500  0.36639100  1
  C  C95  1  0.34207500  0.03556500  0.63360900  1
  C  C96  1  0.65792500  0.03556500  0.36639100  1
  C  C97  1  0.86572500  0.50170000  0.63974100  1
  C  C98  1  0.13427500  0.50170000  0.36025900  1
  C  C99  1  0.36572500  0.00170000  0.63974100  1
  C  C100  1  0.63427500  0.00170000  0.36025900  1
  C  C101  1  0.84269200  0.46828200  0.69424800  1
  C  C102  1  0.15730900  0.46828200  0.30575200  1
  C  C103  1  0.34269200  0.96828200  0.69424800  1
  C  C104  1  0.65730900  0.96828200  0.30575200  1
  C  C105  1  0.00000000  0.58419300  0.00000000  1
  C  C106  1  0.50000000  0.08419300  0.00000000  1
  C  C107  1  0.99984500  0.49930800  0.11954300  1
  C  C108  1  0.00015500  0.49930800  0.88045700  1
  C  C109  1  0.49984500  0.99930800  0.11954300  1
  C  C110  1  0.50015500  0.99930800  0.88045700  1
  C  C111  1  0.00000000  0.41421800  0.00000000  1
  C  C112  1  0.50000000  0.91421800  0.00000000  1
  C  C113  1  0.50000000  0.41432500  0.00000000  1
  C  C114  1  0.00000000  0.91432500  0.00000000  1
  C  C115  1  0.58480700  0.49939700  0.91782400  1
  C  C116  1  0.41519400  0.49939700  0.08217600  1
  C  C117  1  0.08480700  0.99939700  0.91782400  1
  C  C118  1  0.91519400  0.99939700  0.08217600  1
  C  C119  1  0.50000000  0.58407000  0.00000000  1
  C  C120  1  0.00000000  0.08407000  0.00000000  1
  C  C121  1  0.52761900  0.34188600  0.93170900  1
  C  C122  1  0.47238100  0.34188600  0.06829100  1
  C  C123  1  0.02761900  0.84188600  0.93170900  1
  C  C124  1  0.97238100  0.84188600  0.06829100  1
  C  C125  1  0.50000000  0.36519000  0.00000000  1
  C  C126  1  0.00000000  0.86519000  0.00000000  1
  C  C127  1  0.47190700  0.29556600  0.06806200  1
  C  C128  1  0.52809300  0.29556600  0.93193800  1
  C  C129  1  0.97190700  0.79556600  0.06806200  1
  C  C130  1  0.02809300  0.79556600  0.93193800  1
  C  C131  1  0.50000000  0.27240300  0.00000000  1
  C  C132  1  0.00000000  0.77240300  0.00000000  1
  C  C133  1  0.44327900  0.27236800  0.13594200  1
  C  C134  1  0.55672100  0.27236800  0.86405800  1
  C  C135  1  0.94327900  0.77236800  0.13594200  1
  C  C136  1  0.05672100  0.77236800  0.86405800  1
  C  C137  1  0.94262100  0.72611400  0.13566500  1
  C  C138  1  0.05737900  0.72611400  0.86433500  1
  C  C139  1  0.44262100  0.22611400  0.13566500  1
  C  C140  1  0.55737900  0.22611400  0.86433500  1
  C  C141  1  0.97105500  0.70291700  0.06770500  1
  C  C142  1  0.02894500  0.70291700  0.93229500  1
  C  C143  1  0.47105500  0.20291700  0.06770500  1
  C  C144  1  0.52894500  0.20291700  0.93229500  1
  C  C145  1  0.00000000  0.72607900  0.00000000  1
  C  C146  1  0.50000000  0.22607900  0.00000000  1
  C  C147  1  0.97055800  0.65659800  0.06751700  1
  C  C148  1  0.02944200  0.65659800  0.93248300  1
  C  C149  1  0.47055800  0.15659800  0.06751700  1
  C  C150  1  0.52944200  0.15659800  0.93248300  1
  C  C151  1  0.00000000  0.63330900  0.00000000  1
  C  C152  1  0.50000000  0.13330900  0.00000000  1
  C  C153  1  0.52710200  0.65650800  0.01458700  1
  C  C154  1  0.47289800  0.65650800  0.98541300  1
  C  C155  1  0.02710200  0.15650800  0.01458700  1
  C  C156  1  0.97289800  0.15650800  0.98541300  1
  C  C157  1  0.50000000  0.63320500  0.00000000  1
  C  C158  1  0.00000000  0.13320500  0.00000000  1
  C  C159  1  0.47239800  0.70283100  0.98661800  1
  C  C160  1  0.52760200  0.70283100  0.01338200  1
  C  C161  1  0.97239800  0.20283100  0.98661800  1
  C  C162  1  0.02760200  0.20283100  0.01338200  1
  C  C163  1  0.50000000  0.72599600  0.00000000  1
  C  C164  1  0.00000000  0.22599600  0.00000000  1
  C  C165  1  0.44423800  0.72603200  0.97451500  1
  C  C166  1  0.55576300  0.72603200  0.02548500  1
  C  C167  1  0.94423800  0.22603200  0.97451500  1
  C  C168  1  0.05576300  0.22603200  0.02548500  1
  C  C169  1  0.94354800  0.27228700  0.97614600  1
  C  C170  1  0.05645200  0.27228700  0.02385400  1
  C  C171  1  0.44354800  0.77228700  0.97614600  1
  C  C172  1  0.55645200  0.77228700  0.02385400  1
  C  C173  1  0.97150600  0.29548700  0.98872500  1
  C  C174  1  0.02849400  0.29548700  0.01127400  1
  C  C175  1  0.47150600  0.79548700  0.98872500  1
  C  C176  1  0.52849400  0.79548700  0.01127400  1
  C  C177  1  0.00000000  0.27232300  0.00000000  1
  C  C178  1  0.50000000  0.77232300  0.00000000  1
  C  C179  1  0.97098700  0.34180900  0.98993500  1
  C  C180  1  0.02901300  0.34180900  0.01006500  1
  C  C181  1  0.47098700  0.84180900  0.98993500  1
  C  C182  1  0.52901300  0.84180900  0.01006500  1
  C  C183  1  0.00000000  0.36509900  0.00000000  1
  C  C184  1  0.50000000  0.86509900  0.00000000  1
  C  C185  1  0.88613500  0.51170500  0.40763500  1
  C  C186  1  0.83965500  0.52604000  0.47078700  1
  C  C187  1  0.11386500  0.51170500  0.59236500  1
  C  C188  1  0.16034500  0.52604000  0.52921300  1
  C  C189  1  0.38613500  0.01170500  0.40763500  1
  C  C190  1  0.33965500  0.02604000  0.47078700  1
  C  C191  1  0.61386500  0.01170500  0.59236500  1
  C  C192  1  0.66034500  0.02604000  0.52921300  1
  N  N1  1  0.92205300  0.53559500  0.39286000  1
  N  N2  1  0.07794700  0.53559500  0.60714000  1
  N  N3  1  0.42205300  0.03559500  0.39286000  1
  N  N4  1  0.57794700  0.03559500  0.60714000  1
  O  O1  1  0.93560200  0.53824600  0.54914600  1
  O  O2  1  0.06439800  0.53824600  0.45085400  1
  O  O3  1  0.43560200  0.03824600  0.54914600  1
  O  O4  1  0.56439800  0.03824600  0.45085400  1
  O  O5  1  0.93632300  0.46432100  0.58369300  1
  O  O6  1  0.06367700  0.46432100  0.41630700  1
  O  O7  1  0.43632300  0.96432100  0.58369300  1
  O  O8  1  0.56367700  0.96432100  0.41630700  1
  O  O9  1  0.01054300  0.53823800  0.39911300  1
  O  O10  1  0.98945700  0.53823800  0.60088700  1
  O  O11  1  0.51054300  0.03823800  0.39911300  1
  O  O12  1  0.48945700  0.03823800  0.60088700  1
  O  O13  1  0.98547100  0.46427200  0.42513600  1
  O  O14  1  0.01452900  0.46427200  0.57486400  1
  O  O15  1  0.48547100  0.96427200  0.42513600  1
  O  O16  1  0.51452900  0.96427200  0.57486400  1
  O  O17  1  0.96305100  0.56315200  0.05471700  1
  O  O18  1  0.03694900  0.56315200  0.94528300  1
  O  O19  1  0.46305100  0.06315200  0.05471700  1
  O  O20  1  0.53694900  0.06315200  0.94528300  1
  O  O21  1  0.96298500  0.48636700  0.12647000  1
  O  O22  1  0.03701500  0.48636700  0.87353000  1
  O  O23  1  0.46298500  0.98636700  0.12647000  1
  O  O24  1  0.53701500  0.98636700  0.87353000  1
  O  O25  1  0.03683600  0.51208900  0.05329200  1
  O  O26  1  0.96316500  0.51208900  0.94670800  1
  O  O27  1  0.53683600  0.01208900  0.05329200  1
  O  O28  1  0.46316500  0.01208900  0.94670800  1
  O  O29  1  0.96310300  0.43526200  0.01845900  1
  O  O30  1  0.03689700  0.43526200  0.98154100  1
  O  O31  1  0.46310300  0.93526200  0.01845900  1
  O  O32  1  0.53689700  0.93526200  0.98154100  1
  O  O33  1  0.51405500  0.43537600  0.93474700  1
  O  O34  1  0.48594500  0.43537600  0.06525300  1
  O  O35  1  0.01405500  0.93537600  0.93474700  1
  O  O36  1  0.98594500  0.93537600  0.06525300  1
  O  O37  1  0.56438900  0.51273800  0.88598500  1
  O  O38  1  0.43561100  0.51273800  0.11401500  1
  O  O39  1  0.06438900  0.01273800  0.88598500  1
  O  O40  1  0.93561100  0.01273800  0.11401500  1
  O  O41  1  0.56322400  0.48571500  0.99028500  1
  O  O42  1  0.43677600  0.48571500  0.00971500  1
  O  O43  1  0.06322400  0.98571500  0.99028500  1
  O  O44  1  0.93677600  0.98571500  0.00971500  1
  O  O45  1  0.48707400  0.56301200  0.96099400  1
  O  O46  1  0.51292600  0.56301200  0.03900600  1
  O  O47  1  0.98707400  0.06301200  0.96099400  1
  O  O48  1  0.01292600  0.06301200  0.03900600  1
  O  O49  1  0.89081600  0.47754700  0.37217600  1
  O  O50  1  0.10918400  0.47754700  0.62782400  1
  O  O51  1  0.39081600  0.97754700  0.37217600  1
  O  O52  1  0.60918400  0.97754700  0.62782400  1
