# generated using pymatgen
data_CuH16C23NO12
_symmetry_space_group_name_H-M   'P 1'
_cell_length_a   15.23774500
_cell_length_b   13.71548800
_cell_length_c   11.82535800
_cell_angle_alpha   90.00000000
_cell_angle_beta   89.99218100
_cell_angle_gamma   90.00000000
_symmetry_Int_Tables_number   1
_chemical_formula_structural   CuH16C23NO12
_chemical_formula_sum   'Cu2 H32 C46 N2 O24'
_cell_volume   2471.41830683
_cell_formula_units_Z   2
loop_
 _symmetry_equiv_pos_site_id
 _symmetry_equiv_pos_as_xyz
  1  'x, y, z'
loop_
 _atom_site_type_symbol
 _atom_site_label
 _atom_site_symmetry_multiplicity
 _atom_site_fract_x
 _atom_site_fract_y
 _atom_site_fract_z
 _atom_site_occupancy
  Cu  Cu1  1  0.50000800  0.59802500  0.50057800  1
  Cu  Cu2  1  0.49976700  0.40293200  0.49999700  1
  H  H1  1  0.61011400  0.06881200  0.61102700  1
  H  H2  1  0.46031600  0.93398400  0.32834300  1
  H  H3  1  0.39193500  0.06905700  0.38729800  1
  H  H4  1  0.54138800  0.93424200  0.66954900  1
  H  H5  1  0.05891000  0.64882300  0.45496000  1
  H  H6  1  0.93995700  0.35543700  0.43894900  1
  H  H7  1  0.94169100  0.64661300  0.55580700  1
  H  H8  1  0.05959600  0.35295400  0.55421700  1
  H  H9  1  0.73932500  0.33486000  0.73435900  1
  H  H10  1  0.76546300  0.22408600  0.81146700  1
  H  H11  1  0.69099900  0.31339500  0.87255800  1
  H  H12  1  0.38490500  0.65463300  0.14893600  1
  H  H13  1  0.35933700  0.76521600  0.07171400  1
  H  H14  1  0.27431900  0.70298700  0.15167300  1
  H  H15  1  0.25832000  0.33599000  0.26359700  1
  H  H16  1  0.23537100  0.22718600  0.18269600  1
  H  H17  1  0.30944400  0.31796300  0.12735200  1
  H  H18  1  0.61129000  0.65928900  0.85944200  1
  H  H19  1  0.63485900  0.77160800  0.93257300  1
  H  H20  1  0.72106300  0.70784000  0.85836600  1
  H  H21  1  0.25510000  0.82913700  0.58234600  1
  H  H22  1  0.14999500  0.87948400  0.54173400  1
  H  H23  1  0.24607900  0.90314300  0.45625400  1
  H  H24  1  0.71210000  0.19345100  0.32634200  1
  H  H25  1  0.73036500  0.10793500  0.44043300  1
  H  H26  1  0.81494000  0.12832500  0.33603400  1
  H  H27  1  0.74954900  0.82796100  0.42619800  1
  H  H28  1  0.85618000  0.87379200  0.46735700  1
  H  H29  1  0.76073500  0.90339600  0.55096900  1
  H  H30  1  0.28425600  0.18578900  0.66027500  1
  H  H31  1  0.26636900  0.10523600  0.54073600  1
  H  H32  1  0.18044600  0.12246500  0.64446600  1
  C  C1  1  0.33055000  0.49994100  0.49878500  1
  C  C2  1  0.66975500  0.50131500  0.50254300  1
  C  C3  1  0.50091400  0.05516900  0.49901900  1
  C  C4  1  0.50053100  0.94723000  0.49913400  1
  C  C5  1  0.50332300  0.50038900  0.28325300  1
  C  C6  1  0.49720300  0.49969100  0.71735700  1
  C  C7  1  0.55968300  0.10688400  0.56442500  1
  C  C8  1  0.47396000  0.89515200  0.40576700  1
  C  C9  1  0.44239600  0.10711500  0.43328200  1
  C  C10  1  0.52723400  0.89565000  0.59248000  1
  C  C11  1  0.50280900  0.49950000  0.16181800  1
  C  C12  1  0.49731700  0.49931700  0.83867300  1
  C  C13  1  0.50098400  0.49886000  0.05992300  1
  C  C14  1  0.49854500  0.49900000  0.94057200  1
  C  C15  1  0.55680200  0.20784400  0.56751500  1
  C  C16  1  0.46552800  0.79431300  0.41093100  1
  C  C17  1  0.44516000  0.20805500  0.43078300  1
  C  C18  1  0.53417400  0.79492800  0.58886500  1
  C  C19  1  0.09491800  0.58393800  0.47538800  1
  C  C20  1  0.90470300  0.41779000  0.47109300  1
  C  C21  1  0.90530200  0.58307700  0.53080500  1
  C  C22  1  0.09503300  0.41635200  0.52541000  1
  C  C23  1  0.18594400  0.58634700  0.48042300  1
  C  C24  1  0.81359200  0.41655900  0.47403300  1
  C  C25  1  0.81428400  0.58593100  0.52554300  1
  C  C26  1  0.18601600  0.41475500  0.52265600  1
  C  C27  1  0.23265700  0.50020400  0.49994900  1
  C  C28  1  0.76735400  0.50118400  0.50128900  1
  C  C29  1  0.04879300  0.49976200  0.49911500  1
  C  C30  1  0.95140300  0.49998400  0.50158400  1
  C  C31  1  0.63848500  0.22870200  0.73821500  1
  C  C32  1  0.71362400  0.27861500  0.79300800  1
  C  C33  1  0.36781600  0.78052200  0.25045700  1
  C  C34  1  0.34509300  0.72207500  0.14899600  1
  C  C35  1  0.36226800  0.23031900  0.26069000  1
  C  C36  1  0.28673800  0.28094800  0.20537500  1
  C  C37  1  0.62994900  0.78296300  0.75245200  1
  C  C38  1  0.65042800  0.72689000  0.85714200  1
  C  C39  1  0.19361200  0.75858200  0.44277100  1
  C  C40  1  0.21246500  0.84823800  0.50977500  1
  C  C41  1  0.79852800  0.24350000  0.45596600  1
  C  C42  1  0.76163600  0.16329500  0.38534800  1
  C  C43  1  0.80764200  0.75697700  0.56835200  1
  C  C44  1  0.79239500  0.84617300  0.49904800  1
  C  C45  1  0.19976000  0.24134300  0.53178900  1
  C  C46  1  0.23511700  0.15837300  0.59867500  1
  N  N1  1  0.50035100  0.25687800  0.50021900  1
  N  N2  1  0.49915300  0.74440500  0.50071300  1
  O  O1  1  0.37261800  0.58326300  0.49203800  1
  O  O2  1  0.62756300  0.41778100  0.50455000  1
  O  O3  1  0.62759100  0.58485800  0.50118300  1
  O  O4  1  0.37243200  0.41633800  0.50350800  1
  O  O5  1  0.50699800  0.58417200  0.33621900  1
  O  O6  1  0.49637600  0.41617700  0.66443300  1
  O  O7  1  0.49890000  0.58350100  0.66470800  1
  O  O8  1  0.49763300  0.41691500  0.33582700  1
  O  O9  1  0.61213700  0.25823400  0.63452800  1
  O  O10  1  0.59811100  0.16629500  0.79006200  1
  O  O11  1  0.42677500  0.74486900  0.32557900  1
  O  O12  1  0.32785300  0.85585900  0.26842300  1
  O  O13  1  0.38877600  0.25864200  0.36478900  1
  O  O14  1  0.40398700  0.16987500  0.20731900  1
  O  O15  1  0.57140900  0.74661700  0.67662200  1
  O  O16  1  0.67119200  0.85723400  0.73303800  1
  O  O17  1  0.22916900  0.67257500  0.47495600  1
  O  O18  1  0.15079300  0.76456500  0.35588900  1
  O  O19  1  0.76974700  0.33582900  0.44059600  1
  O  O20  1  0.85022800  0.22415900  0.53145200  1
  O  O21  1  0.77117600  0.67164700  0.53620000  1
  O  O22  1  0.84964700  0.76254200  0.65595100  1
  O  O23  1  0.22930200  0.33266200  0.55209600  1
  O  O24  1  0.14821100  0.22538000  0.45504900  1
