# generated using pymatgen
data_ZnH9C23NO4
_symmetry_space_group_name_H-M   'P 1'
_cell_length_a   8.55152600
_cell_length_b   11.14509700
_cell_length_c   17.45268700
_cell_angle_alpha   90.55131500
_cell_angle_beta   92.64724300
_cell_angle_gamma   80.66742700
_symmetry_Int_Tables_number   1
_chemical_formula_structural   ZnH9C23NO4
_chemical_formula_sum   'Zn2 H18 C46 N2 O8'
_cell_volume   1639.60109529
_cell_formula_units_Z   2
loop_
 _symmetry_equiv_pos_site_id
 _symmetry_equiv_pos_as_xyz
  1  'x, y, z'
loop_
 _atom_site_type_symbol
 _atom_site_label
 _atom_site_symmetry_multiplicity
 _atom_site_fract_x
 _atom_site_fract_y
 _atom_site_fract_z
 _atom_site_occupancy
  Zn  Zn1  1  0.49555900  0.49156700  0.91472800  1
  Zn  Zn2  1  0.50444100  0.50843400  0.08527200  1
  H  H1  1  0.00445700  0.58356100  0.97398800  1
  H  H2  1  0.99554400  0.41643900  0.02601200  1
  H  H3  1  0.65231700  0.89066800  0.00834900  1
  H  H4  1  0.34768400  0.10933200  0.99165100  1
  H  H5  1  0.28325000  0.91289700  0.99283100  1
  H  H6  1  0.71675100  0.08710300  0.00716900  1
  H  H7  1  0.45459100  0.67633900  0.81093800  1
  H  H8  1  0.54540900  0.32366200  0.18906200  1
  H  H9  1  0.43288800  0.79240100  0.69514200  1
  H  H10  1  0.56711300  0.20759900  0.30485800  1
  H  H11  1  0.55100700  0.18889200  0.68278900  1
  H  H12  1  0.44899400  0.81110800  0.31721100  1
  H  H13  1  0.41535500  0.90749900  0.57857800  1
  H  H14  1  0.58464600  0.09250100  0.42142200  1
  H  H15  1  0.42185400  0.91443000  0.43853200  1
  H  H16  1  0.57814700  0.08557000  0.56146800  1
  H  H17  1  0.52750300  0.29438300  0.80442300  1
  H  H18  1  0.47249800  0.70561700  0.19557700  1
  C  C1  1  0.09250000  0.74796600  0.99064000  1
  C  C2  1  0.90750100  0.25203500  0.00936000  1
  C  C3  1  0.97353800  0.67917700  0.98407700  1
  C  C4  1  0.02646200  0.32082300  0.01592300  1
  C  C5  1  0.81829100  0.72972500  0.99391900  1
  C  C6  1  0.18171000  0.27027600  0.00608100  1
  C  C7  1  0.77560000  0.85222600  0.00240400  1
  C  C8  1  0.22440100  0.14777400  0.99759600  1
  C  C9  1  0.88923500  0.92535800  0.00051300  1
  C  C10  1  0.11076600  0.07464200  0.99948700  1
  C  C11  1  0.04854700  0.87400900  0.99668400  1
  C  C12  1  0.95145400  0.12599100  0.00331600  1
  C  C13  1  0.84099700  0.04978400  0.00357400  1
  C  C14  1  0.15900400  0.95021700  0.99642600  1
  C  C15  1  0.30081700  0.34762100  0.00317600  1
  C  C16  1  0.69918400  0.65237900  0.99682500  1
  C  C17  1  0.25662100  0.67852900  0.99370100  1
  C  C18  1  0.74338000  0.32147100  0.00629900  1
  C  C19  1  0.46942700  0.59308500  0.77790300  1
  C  C20  1  0.53057300  0.40691500  0.22209700  1
  C  C21  1  0.51027600  0.38015200  0.77430700  1
  C  C22  1  0.48972400  0.61984900  0.22569300  1
  C  C23  1  0.45035700  0.70898700  0.66225600  1
  C  C24  1  0.54964300  0.29101400  0.33774400  1
  C  C25  1  0.47016100  0.59821200  0.69914000  1
  C  C26  1  0.52984000  0.40178800  0.30086000  1
  C  C27  1  0.49236900  0.49212000  0.65748200  1
  C  C28  1  0.50763200  0.50788100  0.34251800  1
  C  C29  1  0.51214000  0.38225900  0.69511200  1
  C  C30  1  0.48786100  0.61774100  0.30488800  1
  C  C31  1  0.53521600  0.27535900  0.65352800  1
  C  C32  1  0.46478500  0.72464200  0.34647200  1
  C  C33  1  0.43380500  0.82366600  0.54615300  1
  C  C34  1  0.56619500  0.17633500  0.45384700  1
  C  C35  1  0.45345700  0.71317300  0.58336300  1
  C  C36  1  0.54654400  0.28682800  0.41663700  1
  C  C37  1  0.47663200  0.60661200  0.54162300  1
  C  C38  1  0.52336800  0.39338900  0.45837700  1
  C  C39  1  0.43753000  0.82757400  0.46731000  1
  C  C40  1  0.56247000  0.17242600  0.53269000  1
  C  C41  1  0.46113500  0.72097500  0.42548800  1
  C  C42  1  0.53886600  0.27902500  0.57451200  1
  C  C43  1  0.49590900  0.49605000  0.57873100  1
  C  C44  1  0.50409100  0.50395000  0.42126900  1
  C  C45  1  0.51932700  0.38943900  0.53719500  1
  C  C46  1  0.48067300  0.61056200  0.46280500  1
  N  N1  1  0.48988600  0.48518900  0.81424200  1
  N  N2  1  0.51011500  0.51481100  0.18575800  1
  O  O1  1  0.34878600  0.39248000  0.06776200  1
  O  O2  1  0.65121500  0.60752000  0.93223800  1
  O  O3  1  0.34850600  0.37306500  0.93588900  1
  O  O4  1  0.65149400  0.62693600  0.06411100  1
  O  O5  1  0.30998200  0.62526600  0.93013100  1
  O  O6  1  0.69001800  0.37473400  0.06986900  1
  O  O7  1  0.32175300  0.64389300  0.06163300  1
  O  O8  1  0.67824700  0.35610800  0.93836700  1
