# generated using pymatgen
data_ZnH14C15(NO)4
_symmetry_space_group_name_H-M   'P 1'
_cell_length_a   14.25856900
_cell_length_b   8.55961400
_cell_length_c   10.73276000
_cell_angle_alpha   90.00000000
_cell_angle_beta   97.71934000
_cell_angle_gamma   90.00000000
_symmetry_Int_Tables_number   1
_chemical_formula_structural   ZnH14C15(NO)4
_chemical_formula_sum   'Zn2 H28 C30 N8 O8'
_cell_volume   1298.03973274
_cell_formula_units_Z   2
loop_
 _symmetry_equiv_pos_site_id
 _symmetry_equiv_pos_as_xyz
  1  'x, y, z'
loop_
 _atom_site_type_symbol
 _atom_site_label
 _atom_site_symmetry_multiplicity
 _atom_site_fract_x
 _atom_site_fract_y
 _atom_site_fract_z
 _atom_site_occupancy
  Zn  Zn1  1  0.10408500  0.49582200  0.49451300  1
  Zn  Zn2  1  0.89591500  0.49582200  0.50548800  1
  H  H1  1  0.06406700  0.36637100  0.91413900  1
  H  H2  1  0.93593300  0.36637100  0.08586200  1
  H  H3  1  0.06270100  0.34617400  0.11919500  1
  H  H4  1  0.93729900  0.34617400  0.88080500  1
  H  H5  1  0.99937300  0.60967100  0.88487400  1
  H  H6  1  0.00062700  0.60967100  0.11512700  1
  H  H7  1  0.05643800  0.99414400  0.59232300  1
  H  H8  1  0.94356300  0.99414500  0.40767800  1
  H  H9  1  0.43264700  0.70880900  0.60345800  1
  H  H10  1  0.56735300  0.70880900  0.39654200  1
  H  H11  1  0.41514900  0.49027200  0.29551900  1
  H  H12  1  0.58485100  0.49027200  0.70448100  1
  H  H13  1  0.57126100  0.53842600  0.30420700  1
  H  H14  1  0.42874000  0.53842600  0.69579300  1
  H  H15  1  0.41100300  0.26293900  0.41708000  1
  H  H16  1  0.58899800  0.26294000  0.58292000  1
  H  H17  1  0.43193100  0.12844200  0.60011600  1
  H  H18  1  0.46725300  0.28376300  0.69095000  1
  H  H19  1  0.56806900  0.12844200  0.39988500  1
  H  H20  1  0.53274800  0.28376300  0.30905100  1
  H  H21  1  0.14496600  0.60908400  0.03971200  1
  H  H22  1  0.15356900  0.72572400  0.16734400  1
  H  H23  1  0.85503400  0.60908300  0.96029000  1
  H  H24  1  0.84643200  0.72572100  0.83265700  1
  H  H25  1  0.59960500  0.75123400  0.74054900  1
  H  H26  1  0.57549600  0.80365100  0.58843600  1
  H  H27  1  0.40039500  0.75123400  0.25945200  1
  H  H28  1  0.42450400  0.80365100  0.41156500  1
  C  C1  1  0.04527500  0.99501800  0.68985500  1
  C  C2  1  0.95472500  0.99501800  0.31014500  1
  C  C3  1  0.03186200  0.13520800  0.74778900  1
  C  C4  1  0.96813900  0.13520900  0.25221100  1
  C  C5  1  0.01583100  0.13795000  0.87160800  1
  C  C6  1  0.98416900  0.13795000  0.12839200  1
  C  C7  1  0.00287200  0.29256800  0.92977100  1
  C  C8  1  0.99712800  0.29256800  0.07022900  1
  C  C9  1  0.03049200  0.85602900  0.74869400  1
  C  C10  1  0.96950800  0.85602900  0.25130700  1
  C  C11  1  0.00806100  0.85893200  0.87041900  1
  C  C12  1  0.99193900  0.85893200  0.12958100  1
  C  C13  1  0.00803600  0.99921900  0.93449700  1
  C  C14  1  0.99196300  0.99921900  0.06550300  1
  C  C15  1  0.97765600  0.71548300  0.93214000  1
  C  C16  1  0.02234400  0.71548300  0.06786100  1
  C  C17  1  0.02178600  0.27670400  0.67069600  1
  C  C18  1  0.97821400  0.27670400  0.32930400  1
  C  C19  1  0.97864300  0.71484300  0.32909700  1
  C  C20  1  0.02135800  0.71484300  0.67090400  1
  C  C21  1  0.45475700  0.58498600  0.61043100  1
  C  C22  1  0.54524400  0.58498600  0.38956900  1
  C  C23  1  0.43825200  0.56857600  0.37606700  1
  C  C24  1  0.56174800  0.56857700  0.62393300  1
  C  C25  1  0.41074000  0.49459500  0.49475500  1
  C  C26  1  0.58926000  0.49459500  0.50524500  1
  C  C27  1  0.55354200  0.32655800  0.49967600  1
  C  C28  1  0.44645800  0.32655800  0.50032500  1
  C  C29  1  0.69234400  0.49513100  0.51058700  1
  C  C30  1  0.30765700  0.49513100  0.48941400  1
  N  N1  1  0.77372000  0.49549800  0.51303500  1
  N  N2  1  0.22628000  0.49549800  0.48696600  1
  N  N3  1  0.42175500  0.24807400  0.61180600  1
  N  N4  1  0.57824500  0.24807400  0.38819500  1
  N  N5  1  0.12459800  0.71680000  0.07299300  1
  N  N6  1  0.87540200  0.71679900  0.92700800  1
  N  N7  1  0.60832700  0.71886500  0.64902000  1
  N  N8  1  0.39167300  0.71886500  0.35098100  1
  O  O1  1  0.93569000  0.32735000  0.63272400  1
  O  O2  1  0.06431000  0.32735000  0.36727600  1
  O  O3  1  0.09703600  0.33212500  0.62790600  1
  O  O4  1  0.90296400  0.33212500  0.37209500  1
  O  O5  1  0.06440700  0.66382700  0.36697000  1
  O  O6  1  0.93559300  0.66382600  0.63303100  1
  O  O7  1  0.90316400  0.65998000  0.37234000  1
  O  O8  1  0.09683600  0.65998000  0.62766100  1
