# generated using pymatgen
data_CuH7C22N3O4
_symmetry_space_group_name_H-M   'P 1'
_cell_length_a   14.61075600
_cell_length_b   15.87707100
_cell_length_c   16.03824300
_cell_angle_alpha   89.99241000
_cell_angle_beta   90.00913200
_cell_angle_gamma   72.58832600
_symmetry_Int_Tables_number   1
_chemical_formula_structural   CuH7C22N3O4
_chemical_formula_sum   'Cu2 H14 C44 N6 O8'
_cell_volume   3550.01246367
_cell_formula_units_Z   2
loop_
 _symmetry_equiv_pos_site_id
 _symmetry_equiv_pos_as_xyz
  1  'x, y, z'
loop_
 _atom_site_type_symbol
 _atom_site_label
 _atom_site_symmetry_multiplicity
 _atom_site_fract_x
 _atom_site_fract_y
 _atom_site_fract_z
 _atom_site_occupancy
  Cu  Cu1  1  0.59071400  0.50213300  0.49969900  1
  Cu  Cu2  1  0.40928600  0.49786700  0.50030100  1
  H  H1  1  0.75322700  0.92412000  0.52117100  1
  H  H2  1  0.24677300  0.07588000  0.47882900  1
  H  H3  1  0.54724400  0.77378200  0.50822200  1
  H  H4  1  0.45275700  0.22621700  0.49177800  1
  H  H5  1  0.78983200  0.05692600  0.52561100  1
  H  H6  1  0.21016800  0.94307400  0.47438900  1
  H  H7  1  0.64541100  0.84141800  0.51127000  1
  H  H8  1  0.35459000  0.15858200  0.48873000  1
  H  H9  1  0.64606700  0.49854300  0.07701100  1
  H  H10  1  0.35393300  0.50145700  0.92298900  1
  H  H11  1  0.64562200  0.50113300  0.92363500  1
  H  H12  1  0.35437800  0.49886700  0.07636500  1
  H  H13  1  0.88519000  0.60069900  0.59424600  1
  H  H14  1  0.11481000  0.39930100  0.40575400  1
  C  C1  1  0.50080600  0.49694400  0.33998400  1
  C  C2  1  0.49919400  0.50305600  0.66001600  1
  C  C3  1  0.55999800  0.32976700  0.50359600  1
  C  C4  1  0.44000200  0.67023300  0.49640400  1
  C  C5  1  0.59325300  0.23197600  0.50648500  1
  C  C6  1  0.40674700  0.76802400  0.49351500  1
  C  C7  1  0.71494000  0.09353400  0.51831300  1
  C  C8  1  0.28506000  0.90646500  0.48168700  1
  C  C9  1  0.68929800  0.18395500  0.51600200  1
  C  C10  1  0.31070200  0.81604500  0.48399800  1
  C  C11  1  0.52554300  0.18671200  0.50020000  1
  C  C12  1  0.47445700  0.81328700  0.49980000  1
  C  C13  1  0.55117500  0.09451500  0.50358100  1
  C  C14  1  0.44882500  0.90548500  0.49641900  1
  C  C15  1  0.64731300  0.04932600  0.51221700  1
  C  C16  1  0.35268700  0.95067400  0.48778300  1
  C  C17  1  0.48422500  0.04628900  0.49847800  1
  C  C18  1  0.51577500  0.95371100  0.50152200  1
  C  C19  1  0.61375200  0.91165400  0.50928500  1
  C  C20  1  0.38624800  0.08834600  0.49071500  1
  C  C21  1  0.67774200  0.95905900  0.51485200  1
  C  C22  1  0.32225800  0.04094100  0.48514800  1
  C  C23  1  0.58162600  0.50067000  0.95719800  1
  C  C24  1  0.41837400  0.49932900  0.04280100  1
  C  C25  1  0.49971700  0.50155400  0.91404800  1
  C  C26  1  0.50028300  0.49844600  0.08595200  1
  C  C27  1  0.41810400  0.50085200  0.95684100  1
  C  C28  1  0.58189600  0.49914800  0.04315900  1
  C  C29  1  0.49954700  0.50267800  0.82459800  1
  C  C30  1  0.50045300  0.49732200  0.17540200  1
  C  C31  1  0.50060600  0.49681200  0.25052600  1
  C  C32  1  0.49939400  0.50318800  0.74947400  1
  C  C33  1  0.93561900  0.55649400  0.55279000  1
  C  C34  1  0.06438100  0.44350600  0.44721000  1
  C  C35  1  0.90484300  0.50246000  0.49945800  1
  C  C36  1  0.09515700  0.49754000  0.50054200  1
  C  C37  1  0.96925800  0.44591100  0.44669400  1
  C  C38  1  0.03074200  0.55408800  0.55330600  1
  C  C39  1  0.80601900  0.50436800  0.49944000  1
  C  C40  1  0.19398100  0.49563200  0.50056000  1
  C  C41  1  0.23520300  0.77584800  0.47488500  1
  C  C42  1  0.76479700  0.22415200  0.52511500  1
  C  C43  1  0.06260500  0.61051300  0.60874400  1
  C  C44  1  0.93739500  0.38948700  0.39125600  1
  N  N1  1  0.27343500  0.49480500  0.50052500  1
  N  N2  1  0.72656500  0.50519500  0.49947500  1
  N  N3  1  0.17409700  0.74390700  0.46749500  1
  N  N4  1  0.82590300  0.25609300  0.53250500  1
  N  N5  1  0.08825000  0.65601900  0.65345700  1
  N  N6  1  0.91175000  0.34398100  0.34654300  1
  O  O1  1  0.57986700  0.49627600  0.37862300  1
  O  O2  1  0.42013300  0.50372400  0.62137700  1
  O  O3  1  0.42161300  0.49886700  0.37908000  1
  O  O4  1  0.57838700  0.50113300  0.62092000  1
  O  O5  1  0.62293600  0.37357900  0.49918100  1
  O  O6  1  0.37706400  0.62642100  0.50081900  1
  O  O7  1  0.46735300  0.37002900  0.50553300  1
  O  O8  1  0.53264700  0.62997100  0.49446700  1
