# generated using pymatgen
data_ZnH21C37Br3(NO2)2
_symmetry_space_group_name_H-M   'P 1'
_cell_length_a   14.03314000
_cell_length_b   15.18554400
_cell_length_c   17.15615900
_cell_angle_alpha   89.64142000
_cell_angle_beta   93.58066300
_cell_angle_gamma   90.00486700
_symmetry_Int_Tables_number   1
_chemical_formula_structural   ZnH21C37Br3(NO2)2
_chemical_formula_sum   'Zn2 H42 C74 Br6 N4 O8'
_cell_volume   3648.78369437
_cell_formula_units_Z   2
loop_
 _symmetry_equiv_pos_site_id
 _symmetry_equiv_pos_as_xyz
  1  'x, y, z'
loop_
 _atom_site_type_symbol
 _atom_site_label
 _atom_site_symmetry_multiplicity
 _atom_site_fract_x
 _atom_site_fract_y
 _atom_site_fract_z
 _atom_site_occupancy
  Zn  Zn1  1  0.60876100  0.50466800  0.48274300  1
  Zn  Zn2  1  0.39183400  0.50201300  0.47895200  1
  H  H1  1  0.61194000  0.43992800  0.08897400  1
  H  H2  1  0.38363500  0.53947100  0.87525200  1
  H  H3  1  0.65759400  0.45784400  0.72671100  1
  H  H4  1  0.34848400  0.55635800  0.23342600  1
  H  H5  1  0.64356700  0.22505800  0.54002600  1
  H  H6  1  0.36178100  0.78115700  0.52864100  1
  H  H7  1  0.36532600  0.22319500  0.42508900  1
  H  H8  1  0.63191900  0.78448700  0.42812200  1
  H  H9  1  0.36739400  0.06355000  0.42402900  1
  H  H10  1  0.63162000  0.94420500  0.43006100  1
  H  H11  1  0.07664400  0.42538100  0.58461300  1
  H  H12  1  0.93055200  0.63427700  0.43375400  1
  H  H13  1  0.24912600  0.42373400  0.57969300  1
  H  H14  1  0.75755800  0.63305100  0.43490800  1
  H  H15  1  0.23172100  0.57711400  0.37462400  1
  H  H16  1  0.76366800  0.37854800  0.53307000  1
  H  H17  1  0.05819700  0.57742400  0.37314900  1
  H  H18  1  0.93586100  0.37301600  0.52916600  1
  H  H19  1  0.74538000  0.50218600  0.18909200  1
  H  H20  1  0.88344000  0.42180200  0.24854400  1
  H  H21  1  0.69673400  0.23966100  0.35133900  1
  H  H22  1  0.55833900  0.31904800  0.29138800  1
  H  H23  1  0.41171300  0.67776500  0.68067000  1
  H  H24  1  0.25891800  0.74217000  0.63095100  1
  H  H25  1  0.10983500  0.52643300  0.72564100  1
  H  H26  1  0.26179500  0.46156300  0.77551300  1
  H  H27  1  0.78111200  0.53111300  0.82122800  1
  H  H28  1  0.93204500  0.47630800  0.88275600  1
  H  H29  1  0.78148900  0.27952200  0.00315100  1
  H  H30  1  0.63035500  0.33250200  0.94087600  1
  H  H31  1  0.28464400  0.45225000  0.01079600  1
  H  H32  1  0.13765100  0.51047200  0.94535900  1
  H  H33  1  0.16703300  0.74495300  0.07949600  1
  H  H34  1  0.31528300  0.68825000  0.14422800  1
  H  H35  1  0.58718000  0.98213400  0.63956800  1
  H  H36  1  0.72676500  0.90824400  0.70107600  1
  H  H37  1  0.90521400  0.04238000  0.54750000  1
  H  H38  1  0.76538700  0.11695900  0.48501000  1
  H  H39  1  0.43179800  0.01976800  0.63630300  1
  H  H40  1  0.30005600  0.09866700  0.69005500  1
  H  H41  1  0.10378400  0.97213700  0.52802800  1
  H  H42  1  0.23595200  0.89324600  0.47259700  1
  C  C1  1  0.50279700  0.33103600  0.48318200  1
  C  C2  1  0.49776600  0.67570600  0.47819600  1
  C  C3  1  0.50847200  0.50606000  0.63407000  1
  C  C4  1  0.49211400  0.50024700  0.32782500  1
  C  C5  1  0.51370000  0.50538000  0.72032300  1
  C  C6  1  0.48708700  0.49743300  0.24187800  1
  C  C7  1  0.43676900  0.52778800  0.76396300  1
  C  C8  1  0.56036500  0.46331000  0.19989000  1
  C  C9  1  0.44476400  0.51967400  0.84429000  1
  C  C10  1  0.55378800  0.46759700  0.11923700  1
  C  C11  1  0.52866500  0.49012500  0.88283300  1
  C  C12  1  0.47320800  0.50241900  0.07937200  1
  C  C13  1  0.60527900  0.46863400  0.83965300  1
  C  C14  1  0.39866100  0.53243800  0.12116300  1
  C  C15  1  0.59770000  0.47727600  0.75929400  1
  C  C16  1  0.40659600  0.53100800  0.20172000  1
  C  C17  1  0.58266000  0.09819000  0.51842800  1
  C  C18  1  0.42296600  0.90805700  0.51332300  1
  C  C19  1  0.58290500  0.18924500  0.51455000  1
  C  C20  1  0.42101500  0.81725100  0.50708000  1
  C  C21  1  0.50416900  0.23468700  0.48325300  1
  C  C22  1  0.49679500  0.77215400  0.47860600  1
  C  C23  1  0.42650400  0.18879100  0.45180000  1
  C  C24  1  0.57293900  0.81847500  0.45223200  1
  C  C25  1  0.42744700  0.09822900  0.45180200  1
  C  C26  1  0.57319600  0.90904600  0.45414500  1
  C  C27  1  0.50350300  0.05185900  0.48705400  1
  C  C28  1  0.50024100  0.95477300  0.48651400  1
  C  C29  1  0.10833700  0.45772000  0.53632600  1
  C  C30  1  0.89569300  0.57618000  0.45483100  1
  C  C31  1  0.20638800  0.45752300  0.53424500  1
  C  C32  1  0.79749700  0.57623300  0.45657800  1
  C  C33  1  0.19671600  0.54310400  0.42040700  1
  C  C34  1  0.80085800  0.43491900  0.51120200  1
  C  C35  1  0.09834900  0.54411100  0.42032700  1
  C  C36  1  0.89893200  0.43233500  0.50969800  1
  C  C37  1  0.05280000  0.50162500  0.47911300  1
  C  C38  1  0.94782600  0.50341200  0.48115300  1
  C  C39  1  0.64277900  0.41691900  0.23757400  1
  C  C40  1  0.73428200  0.44463400  0.22480500  1
  C  C41  1  0.81193400  0.39961000  0.25828000  1
  C  C42  1  0.79848500  0.32612600  0.30387000  1
  C  C43  1  0.70732400  0.29759000  0.31597100  1
  C  C44  1  0.62960900  0.34251900  0.28253200  1
  C  C45  1  0.34686200  0.56417200  0.72948900  1
  C  C46  1  0.34567000  0.64353900  0.68955200  1
  C  C47  1  0.25998900  0.67995900  0.66185800  1
  C  C48  1  0.17538600  0.63763100  0.67435200  1
  C  C49  1  0.17623600  0.55932900  0.71534100  1
  C  C50  1  0.26171900  0.52288700  0.74316900  1
  C  C51  1  0.69523600  0.43666300  0.87799000  1
  C  C52  1  0.78055800  0.47566600  0.86101200  1
  C  C53  1  0.86557100  0.44515300  0.89578100  1
  C  C54  1  0.86590900  0.37500200  0.94711900  1
  C  C55  1  0.78119800  0.33508300  0.96344500  1
  C  C56  1  0.69610100  0.36554500  0.92880900  1
  C  C57  1  0.31108400  0.56709900  0.08087700  1
  C  C58  1  0.26026500  0.51730100  0.02528600  1
  C  C59  1  0.17703800  0.54960700  0.98882500  1
  C  C60  1  0.14366400  0.63144800  0.00812300  1
  C  C61  1  0.19335600  0.68086100  0.06415800  1
  C  C62  1  0.27660000  0.64866600  0.10070900  1
  C  C63  1  0.66622300  0.05394500  0.55716000  1
  C  C64  1  0.65635900  0.99572300  0.61847700  1
  C  C65  1  0.73514700  0.95410600  0.65355500  1
  C  C66  1  0.82445600  0.97051200  0.62796400  1
  C  C67  1  0.83513600  0.02950500  0.56775400  1
  C  C68  1  0.75636000  0.07163700  0.53283200  1
  C  C69  1  0.34347900  0.95203700  0.54961600  1
  C  C70  1  0.36034000  0.00872200  0.61179000  1
  C  C71  1  0.28598900  0.05318100  0.64250700  1
  C  C72  1  0.19402300  0.04086400  0.61196200  1
  C  C73  1  0.17608600  0.98213400  0.55186400  1
  C  C74  1  0.25053900  0.93742600  0.52103700  1
  Br  Br1  1  0.90586600  0.26311900  0.34908700  1
  Br  Br2  1  0.05718000  0.68764700  0.63550600  1
  Br  Br3  1  0.98350500  0.33274200  0.99494500  1
  Br  Br4  1  0.02842300  0.67590700  0.95788700  1
  Br  Br5  1  0.93256700  0.91114700  0.67598300  1
  Br  Br6  1  0.09267200  0.10667200  0.65222900  1
  N  N1  1  0.53847800  0.48462000  0.96545300  1
  N  N2  1  0.46541800  0.50873100  0.99684600  1
  N  N3  1  0.24915700  0.50038100  0.47711200  1
  N  N4  1  0.75148100  0.50614600  0.48460700  1
  O  O1  1  0.58439300  0.37319600  0.48473700  1
  O  O2  1  0.41613300  0.63353200  0.47768200  1
  O  O3  1  0.41985500  0.37112000  0.48076900  1
  O  O4  1  0.58064900  0.63554600  0.47982200  1
  O  O5  1  0.58890100  0.50640600  0.59871500  1
  O  O6  1  0.41160100  0.50108100  0.36297000  1
  O  O7  1  0.42468400  0.50322800  0.59562700  1
  O  O8  1  0.57604600  0.50252000  0.36608700  1
