# generated using pymatgen
data_Fe2H15C46IO16
_symmetry_space_group_name_H-M   'P 1'
_cell_length_a   15.92268300
_cell_length_b   11.76003200
_cell_length_c   15.56017100
_cell_angle_alpha   90.65952600
_cell_angle_beta   85.53956900
_cell_angle_gamma   99.75219900
_symmetry_Int_Tables_number   1
_chemical_formula_structural   Fe2H15C46IO16
_chemical_formula_sum   'Fe2 H15 C46 I1 O16'
_cell_volume   2862.85671163
_cell_formula_units_Z   1
loop_
 _symmetry_equiv_pos_site_id
 _symmetry_equiv_pos_as_xyz
  1  'x, y, z'
loop_
 _atom_site_type_symbol
 _atom_site_label
 _atom_site_symmetry_multiplicity
 _atom_site_fract_x
 _atom_site_fract_y
 _atom_site_fract_z
 _atom_site_occupancy
  Fe  Fe1  1  0.51675700  0.98202000  0.14846600  1
  Fe  Fe2  1  0.51895500  0.02212300  0.79019700  1
  H  H1  1  0.93869500  0.02039100  0.83024600  1
  H  H2  1  0.19608400  0.98495400  0.84101900  1
  H  H3  1  0.05121000  0.97712500  0.86796900  1
  H  H4  1  0.79940100  0.01982400  0.78748200  1
  H  H5  1  0.23054500  0.99071500  0.15170700  1
  H  H6  1  0.07976400  0.98337700  0.17918100  1
  H  H7  1  0.93329900  0.98585500  0.20821700  1
  H  H8  1  0.79427600  0.98585100  0.16358500  1
  H  H9  1  0.49605600  0.76747800  0.38081700  1
  H  H10  1  0.53305300  0.79784500  0.50250700  1
  H  H11  1  0.48898600  0.19921600  0.43829900  1
  H  H12  1  0.47937400  0.22427200  0.56740200  1
  H  H13  1  0.50528700  0.53970700  0.17151200  1
  H  H14  1  0.50477100  0.34467500  0.19201800  1
  H  H15  1  0.50080200  0.66109300  0.74993500  1
  C  C1  1  0.88758200  0.00385500  0.88015800  1
  C  C2  1  0.28581700  0.99329700  0.93775200  1
  C  C3  1  0.20470000  0.98585400  0.90919500  1
  C  C4  1  0.13395100  0.98353300  0.96677300  1
  C  C5  1  0.05428600  0.98183900  0.93667100  1
  C  C6  1  0.98232000  0.98396800  0.99362200  1
  C  C7  1  0.80730600  0.00631900  0.85477900  1
  C  C8  1  0.73681700  0.98566900  0.91249200  1
  C  C9  1  0.90036500  0.98661300  0.96612700  1
  C  C10  1  0.82979500  0.97664500  0.02647800  1
  C  C11  1  0.74679200  0.96929500  0.99924400  1
  C  C12  1  0.29472300  0.99467700  0.02621100  1
  C  C13  1  0.22311200  0.98822700  0.08320900  1
  C  C14  1  0.14322700  0.98438000  0.05359200  1
  C  C15  1  0.07261300  0.98292000  0.11065100  1
  C  C16  1  0.99299400  0.98252700  0.08100200  1
  C  C17  1  0.92444700  0.98324700  0.14000800  1
  C  C18  1  0.84397900  0.98020100  0.11353200  1
  C  C19  1  0.67013700  0.94922200  0.06104500  1
  C  C20  1  0.50185800  0.76090900  0.21308500  1
  C  C21  1  0.37813600  0.01103200  0.06220600  1
  C  C22  1  0.49531100  0.14817500  0.27643700  1
  C  C23  1  0.52312000  0.85190600  0.66426000  1
  C  C24  1  0.65284300  0.97861800  0.87850800  1
  C  C25  1  0.49540300  0.23073800  0.72928800  1
  C  C26  1  0.35893600  0.99909400  0.87252900  1
  C  C27  1  0.50219400  0.66404400  0.27201600  1
  C  C28  1  0.50382300  0.55505400  0.24016700  1
  C  C29  1  0.50222000  0.46419100  0.29567800  1
  C  C30  1  0.50251900  0.35628000  0.26111500  1
  C  C31  1  0.49650100  0.26266400  0.31420600  1
  C  C32  1  0.50162200  0.68181500  0.35967300  1
  C  C33  1  0.50378800  0.59153900  0.41685600  1
  C  C34  1  0.50044100  0.48074400  0.38421300  1
  C  C35  1  0.49546200  0.38649800  0.43891200  1
  C  C36  1  0.52027800  0.72032400  0.54042000  1
  C  C37  1  0.50776600  0.60953400  0.50561900  1
  C  C38  1  0.50182100  0.51549900  0.56090800  1
  C  C39  1  0.51534000  0.73622700  0.62771300  1
  C  C40  1  0.50546600  0.64361500  0.68199500  1
  C  C41  1  0.49190400  0.27688900  0.40203500  1
  C  C42  1  0.49512300  0.40408700  0.52837900  1
  C  C43  1  0.48940300  0.31298300  0.58649400  1
  C  C44  1  0.50408200  0.53354900  0.64946000  1
  C  C45  1  0.50634300  0.44268500  0.70522600  1
  C  C46  1  0.49652600  0.33135400  0.67332800  1
  I  I1  1  0.54278600  0.47597500  0.83364300  1
  O  O1  1  0.60484200  0.00146900  0.05036400  1
  O  O2  1  0.49254300  0.74105400  0.13091400  1
  O  O3  1  0.66577200  0.87700200  0.12543100  1
  O  O4  1  0.51546900  0.86795300  0.24141600  1
  O  O5  1  0.40406900  0.92525300  0.10001000  1
  O  O6  1  0.42551300  0.11391400  0.06043400  1
  O  O7  1  0.53844300  0.13915500  0.20215200  1
  O  O8  1  0.44844800  0.05699800  0.31383600  1
  O  O9  1  0.48112400  0.86666900  0.73826700  1
  O  O10  1  0.57704700  0.93756900  0.62764200  1
  O  O11  1  0.63726500  0.06221000  0.82999900  1
  O  O12  1  0.59436700  0.88640900  0.89290600  1
  O  O13  1  0.34480100  0.99116600  0.79053000  1
  O  O14  1  0.52321600  0.13831000  0.69817000  1
  O  O15  1  0.43823900  0.01534700  0.89411900  1
  O  O16  1  0.46172200  0.22907800  0.80890900  1
