# generated using pymatgen
data_Zn3H13C36NO14
_symmetry_space_group_name_H-M   'P 1'
_cell_length_a   38.41385700
_cell_length_b   32.24521600
_cell_length_c   21.78492400
_cell_angle_alpha   90.00000000
_cell_angle_beta   122.77592900
_cell_angle_gamma   90.00000000
_symmetry_Int_Tables_number   1
_chemical_formula_structural   Zn3H13C36NO14
_chemical_formula_sum   'Zn12 H52 C144 N4 O56'
_cell_volume   22688.14118519
_cell_formula_units_Z   4
loop_
 _symmetry_equiv_pos_site_id
 _symmetry_equiv_pos_as_xyz
  1  'x, y, z'
loop_
 _atom_site_type_symbol
 _atom_site_label
 _atom_site_symmetry_multiplicity
 _atom_site_fract_x
 _atom_site_fract_y
 _atom_site_fract_z
 _atom_site_occupancy
  Zn  Zn1  1  0.99954700  0.04713200  0.50156400  1
  Zn  Zn2  1  0.49954700  0.54713200  0.50156400  1
  Zn  Zn3  1  0.00024100  0.95324400  0.49682200  1
  Zn  Zn4  1  0.50024100  0.45324400  0.49682200  1
  Zn  Zn5  1  0.04684300  0.00018700  0.04026100  1
  Zn  Zn6  1  0.95311500  0.99989500  0.95829500  1
  Zn  Zn7  1  0.54684300  0.50018700  0.04026100  1
  Zn  Zn8  1  0.45311500  0.49989500  0.95829500  1
  Zn  Zn9  1  0.50006600  0.99853200  0.07028300  1
  Zn  Zn10  1  0.49962200  0.00157600  0.93081700  1
  Zn  Zn11  1  0.00006600  0.49853200  0.07028300  1
  Zn  Zn12  1  0.99962200  0.50157600  0.93081700  1
  H  H1  1  0.03922000  0.04150800  0.73098900  1
  H  H2  1  0.96065900  0.95875200  0.26751900  1
  H  H3  1  0.53922000  0.54150800  0.73098900  1
  H  H4  1  0.46065900  0.45875200  0.26751900  1
  H  H5  1  0.92923600  0.94996800  0.57060700  1
  H  H6  1  0.07055900  0.05041700  0.42777100  1
  H  H7  1  0.42923600  0.44996800  0.57060600  1
  H  H8  1  0.57055900  0.55041700  0.42777100  1
  H  H9  1  0.88692900  0.90137700  0.58579700  1
  H  H10  1  0.11285700  0.09898900  0.41252400  1
  H  H11  1  0.38692900  0.40137700  0.58579700  1
  H  H12  1  0.61285700  0.59898900  0.41252400  1
  H  H13  1  0.89570500  0.89224200  0.70516300  1
  H  H14  1  0.10412700  0.10802000  0.29317300  1
  H  H15  1  0.39570500  0.39224200  0.70516300  1
  H  H16  1  0.60412700  0.60802000  0.29317300  1
  H  H17  1  0.94573900  0.93276100  0.80851800  1
  H  H18  1  0.05416300  0.06740100  0.18990700  1
  H  H19  1  0.44574000  0.43276100  0.80851800  1
  H  H20  1  0.55416300  0.56740100  0.18990700  1
  H  H21  1  0.04120700  0.03945400  0.84423500  1
  H  H22  1  0.95875900  0.96067500  0.15435500  1
  H  H23  1  0.54120700  0.53945400  0.84423500  1
  H  H24  1  0.45875900  0.46067500  0.15435500  1
  H  H25  1  0.79143700  0.95782400  0.20604400  1
  H  H26  1  0.20807000  0.95766300  0.78959300  1
  H  H27  1  0.29143700  0.45782400  0.20604400  1
  H  H28  1  0.70807000  0.45766300  0.78959300  1
  H  H29  1  0.70997200  0.03660900  0.27877000  1
  H  H30  1  0.28993300  0.04515800  0.72868200  1
  H  H31  1  0.20997200  0.53660900  0.27877000  1
  H  H32  1  0.78993300  0.54515800  0.72868200  1
  H  H33  1  0.78588600  0.03801800  0.35485300  1
  H  H34  1  0.21404300  0.04572200  0.65091700  1
  H  H35  1  0.28588600  0.53801800  0.35485300  1
  H  H36  1  0.71404300  0.54572200  0.65091700  1
  H  H37  1  0.95373200  0.78817500  0.03319800  1
  H  H38  1  0.04939400  0.78829900  0.98988000  1
  H  H39  1  0.45373200  0.28817500  0.03319800  1
  H  H40  1  0.54939400  0.28829900  0.98988000  1
  H  H41  1  0.45360900  0.21185700  0.03269700  1
  H  H42  1  0.54926800  0.21201900  0.98937400  1
  H  H43  1  0.95360900  0.71185700  0.03269700  1
  H  H44  1  0.04926800  0.71201900  0.98937400  1
  H  H45  1  0.95373200  0.21237600  0.87496800  1
  H  H46  1  0.04465800  0.21132900  0.10340800  1
  H  H47  1  0.45373200  0.71237600  0.87496800  1
  H  H48  1  0.54465800  0.71132900  0.10340800  1
  H  H49  1  0.45378400  0.78869300  0.87622000  1
  H  H50  1  0.54470900  0.78760300  0.10466100  1
  H  H51  1  0.95378400  0.28869300  0.87622000  1
  H  H52  1  0.04470900  0.28760300  0.10466100  1
  C  C1  1  0.91911600  0.99894200  0.41333500  1
  C  C2  1  0.08067100  0.00143400  0.58504900  1
  C  C3  1  0.41911600  0.49894200  0.41333500  1
  C  C4  1  0.58067100  0.50143400  0.58504900  1
  C  C5  1  0.99324200  0.99794700  0.61242000  1
  C  C6  1  0.00655600  0.00241000  0.38597900  1
  C  C7  1  0.49324200  0.49794700  0.61242000  1
  C  C8  1  0.50655600  0.50241000  0.38597900  1
  C  C9  1  0.99881800  0.12542500  0.98946200  1
  C  C10  1  0.49881800  0.62542500  0.98946200  1
  C  C11  1  0.93464000  0.94679600  0.62436100  1
  C  C12  1  0.06517700  0.05354000  0.37402500  1
  C  C13  1  0.43464000  0.44679600  0.62436100  1
  C  C14  1  0.56517700  0.55354000  0.37402500  1
  C  C15  1  0.90983400  0.91940200  0.63208500  1
  C  C16  1  0.08997900  0.08092400  0.36627000  1
  C  C17  1  0.40983400  0.41940200  0.63208500  1
  C  C18  1  0.58997900  0.58092400  0.36627000  1
  C  C19  1  0.91454000  0.91450400  0.69872900  1
  C  C20  1  0.08529900  0.08576300  0.29963700  1
  C  C21  1  0.41454000  0.41450400  0.69872900  1
  C  C22  1  0.58529900  0.58576300  0.29963700  1
  C  C23  1  0.94279300  0.93830900  0.75711900  1
  C  C24  1  0.05708700  0.06190100  0.24130000  1
  C  C25  1  0.44279300  0.43830900  0.75711900  1
  C  C26  1  0.55708700  0.56190100  0.24130000  1
  C  C27  1  0.96693300  0.96736800  0.74947900  1
  C  C28  1  0.03295700  0.03284800  0.24898100  1
  C  C29  1  0.46693300  0.46736800  0.74947900  1
  C  C30  1  0.53295700  0.53284800  0.24898100  1
  C  C31  1  0.96450900  0.96988700  0.68357800  1
  C  C32  1  0.03534000  0.03040000  0.31485100  1
  C  C33  1  0.46450900  0.46988700  0.68357800  1
  C  C34  1  0.53534000  0.53040000  0.31485100  1
  C  C35  1  0.99121900  0.99628400  0.67747100  1
  C  C36  1  0.00861900  0.00402300  0.32096900  1
  C  C37  1  0.49121900  0.49628400  0.67747100  1
  C  C38  1  0.50861900  0.50402300  0.32096900  1
  C  C39  1  0.01835100  0.02107800  0.73535500  1
  C  C40  1  0.98153200  0.97916900  0.26314600  1
  C  C41  1  0.51835100  0.52107800  0.73535500  1
  C  C42  1  0.48153200  0.47916900  0.26314600  1
  C  C43  1  0.01998600  0.01938600  0.79970500  1
  C  C44  1  0.97994800  0.98078400  0.19884000  1
  C  C45  1  0.51998600  0.51938600  0.79970500  1
  C  C46  1  0.47994800  0.48078400  0.19884000  1
  C  C47  1  0.99431700  0.99308600  0.80720400  1
  C  C48  1  0.00562100  0.00706800  0.19132300  1
  C  C49  1  0.49431700  0.49308600  0.80720400  1
  C  C50  1  0.50562100  0.50706800  0.19132300  1
  C  C51  1  0.73003300  0.97341900  0.17786100  1
  C  C52  1  0.26950500  0.97646900  0.82227400  1
  C  C53  1  0.23003300  0.47341900  0.17786100  1
  C  C54  1  0.76950500  0.47646900  0.82227400  1
  C  C55  1  0.70725900  0.99595500  0.19905300  1
  C  C56  1  0.29239800  0.00132900  0.80428000  1
  C  C57  1  0.20725900  0.49595500  0.19905300  1
  C  C58  1  0.79239800  0.50132900  0.80428000  1
  C  C59  1  0.72764000  0.01904100  0.26247500  1
  C  C60  1  0.27216600  0.02603700  0.74281600  1
  C  C61  1  0.22764000  0.51904100  0.26247500  1
  C  C62  1  0.77216600  0.52603700  0.74281600  1
  C  C63  1  0.77024800  0.02000100  0.30509900  1
  C  C64  1  0.22957600  0.02627600  0.69895400  1
  C  C65  1  0.27024800  0.52000100  0.30509900  1
  C  C66  1  0.72957600  0.52627600  0.69895400  1
  C  C67  1  0.79289600  0.99806200  0.28423200  1
  C  C68  1  0.20682700  0.00146500  0.71599000  1
  C  C69  1  0.29289600  0.49806200  0.28423200  1
  C  C70  1  0.70682700  0.50146500  0.71599000  1
  C  C71  1  0.77290900  0.97510500  0.22077400  1
  C  C72  1  0.22668000  0.97658400  0.77712100  1
  C  C73  1  0.27290900  0.47510500  0.22077400  1
  C  C74  1  0.72668000  0.47658400  0.77712100  1
  C  C75  1  0.66269800  0.99725900  0.15600200  1
  C  C76  1  0.33697300  0.00107200  0.84594800  1
  C  C77  1  0.16269800  0.49725900  0.15600200  1
  C  C78  1  0.83697300  0.50107200  0.84594800  1
  C  C79  1  0.83736500  0.99857400  0.32919000  1
  C  C80  1  0.16238700  0.00148600  0.67007300  1
  C  C81  1  0.33736500  0.49857400  0.32919000  1
  C  C82  1  0.66238700  0.50148600  0.67007300  1
  C  C83  1  0.87467900  0.99883000  0.36733500  1
  C  C84  1  0.12509200  0.00147600  0.63140400  1
  C  C85  1  0.37467900  0.49883000  0.36733500  1
  C  C86  1  0.62509200  0.50147600  0.63140400  1
  C  C87  1  0.62534700  0.99832000  0.12048700  1
  C  C88  1  0.37433300  0.00095400  0.88074500  1
  C  C89  1  0.12534700  0.49832000  0.12048700  1
  C  C90  1  0.87433300  0.50095400  0.88074500  1
  C  C91  1  0.49910300  0.87456600  0.99285800  1
  C  C92  1  0.99910300  0.37456600  0.99285800  1
  C  C93  1  0.00115500  0.91911800  0.00722100  1
  C  C94  1  0.50115500  0.41911800  0.00722100  1
  C  C95  1  0.99646800  0.99466700  0.87623600  1
  C  C96  1  0.00348300  0.00543300  0.12231000  1
  C  C97  1  0.49646800  0.49466700  0.87623600  1
  C  C98  1  0.50348300  0.50543300  0.12231000  1
  C  C99  1  0.99880800  0.08096500  0.99136700  1
  C  C100  1  0.49880800  0.58096500  0.99136700  1
  C  C101  1  0.49921100  0.91903200  0.99479100  1
  C  C102  1  0.99921100  0.41903200  0.99479100  1
  C  C103  1  0.58085700  0.99925600  0.07849800  1
  C  C104  1  0.41883100  0.00073100  0.92255600  1
  C  C105  1  0.08085700  0.49925600  0.07849800  1
  C  C106  1  0.91883100  0.50073100  0.92255600  1
  C  C107  1  0.50048300  0.08104700  0.00630900  1
  C  C108  1  0.00048300  0.58104700  0.00630900  1
  C  C109  1  0.47473100  0.22866400  0.02349500  1
  C  C110  1  0.52836100  0.22875300  0.99920800  1
  C  C111  1  0.97473100  0.72866400  0.02349500  1
  C  C112  1  0.02836100  0.72875300  0.99920800  1
  C  C113  1  0.50147000  0.20734100  0.01108700  1
  C  C114  1  0.00147000  0.70734100  0.01108700  1
  C  C115  1  0.02843600  0.77149700  0.99950500  1
  C  C116  1  0.97480500  0.77143200  0.02379000  1
  C  C117  1  0.52843600  0.27149700  0.99950500  1
  C  C118  1  0.47480500  0.27143200  0.02379000  1
  C  C119  1  0.00162600  0.79283300  0.01169100  1
  C  C120  1  0.50162600  0.29283300  0.01169100  1
  C  C121  1  0.50109900  0.16286400  0.00982800  1
  C  C122  1  0.00109900  0.66286400  0.00982800  1
  C  C123  1  0.00136900  0.83731300  0.01085700  1
  C  C124  1  0.50136900  0.33731300  0.01085700  1
  C  C125  1  0.00122800  0.87466300  0.00955600  1
  C  C126  1  0.50122800  0.37466300  0.00955600  1
  C  C127  1  0.50081100  0.12551300  0.00839700  1
  C  C128  1  0.00081100  0.62551300  0.00839700  1
  C  C129  1  0.47380600  0.77168200  0.92609800  1
  C  C130  1  0.52478400  0.77107300  0.05417100  1
  C  C131  1  0.97380600  0.27168200  0.92609800  1
  C  C132  1  0.02478400  0.27107300  0.05417100  1
  C  C133  1  0.49927100  0.79274300  0.99052500  1
  C  C134  1  0.99927100  0.29274300  0.99052500  1
  C  C135  1  0.02476600  0.22833400  0.05346200  1
  C  C136  1  0.97378800  0.22891600  0.92538800  1
  C  C137  1  0.52476600  0.72833400  0.05346200  1
  C  C138  1  0.47378800  0.72891600  0.92538800  1
  C  C139  1  0.99924800  0.20725900  0.98910700  1
  C  C140  1  0.49924800  0.70725900  0.98910700  1
  C  C141  1  0.49912200  0.83721800  0.99156500  1
  C  C142  1  0.99912200  0.33721800  0.99156500  1
  C  C143  1  0.99895200  0.16277900  0.98883200  1
  C  C144  1  0.49895200  0.66277900  0.98883200  1
  N  N1  1  0.71046700  0.94875600  0.11277400  1
  N  N2  1  0.28894900  0.95044000  0.88568300  1
  N  N3  1  0.21046700  0.44875600  0.11277400  1
  N  N4  1  0.78894900  0.45044000  0.88568300  1
  O  O1  1  0.93816300  0.03470500  0.43711600  1
  O  O2  1  0.06126300  0.03715600  0.56813500  1
  O  O3  1  0.43816300  0.53470500  0.43711600  1
  O  O4  1  0.56126300  0.53715600  0.56813500  1
  O  O5  1  0.93852900  0.96322600  0.43023600  1
  O  O6  1  0.06162000  0.96567300  0.56130800  1
  O  O7  1  0.43852900  0.46322600  0.43023600  1
  O  O8  1  0.56162000  0.46567300  0.56130800  1
  O  O9  1  0.99606200  0.03451800  0.58915200  1
  O  O10  1  0.00517700  0.03736000  0.41547500  1
  O  O11  1  0.49606200  0.53451800  0.58915200  1
  O  O12  1  0.50517700  0.53736000  0.41547500  1
  O  O13  1  0.99463500  0.96301500  0.58289200  1
  O  O14  1  0.00371000  0.96585700  0.40926500  1
  O  O15  1  0.49463500  0.46301500  0.58289200  1
  O  O16  1  0.50371000  0.46585700  0.40926500  1
  O  O17  1  0.03675400  0.93826500  0.03527700  1
  O  O18  1  0.96543200  0.93840500  0.97582300  1
  O  O19  1  0.53675400  0.43826500  0.03527700  1
  O  O20  1  0.46543200  0.43840500  0.97582300  1
  O  O21  1  0.03324000  0.99568000  0.93678100  1
  O  O22  1  0.96671100  0.00440000  0.06177000  1
  O  O23  1  0.53324000  0.49568000  0.93678100  1
  O  O24  1  0.46671100  0.50440000  0.06177000  1
  O  O25  1  0.96189100  0.99724500  0.87464700  1
  O  O26  1  0.03806500  0.00288700  0.12390400  1
  O  O27  1  0.46189100  0.49724500  0.87464700  1
  O  O28  1  0.53806500  0.50288700  0.12390400  1
  O  O29  1  0.03452700  0.06167700  0.02278800  1
  O  O30  1  0.96319900  0.06182000  0.96325400  1
  O  O31  1  0.53452700  0.56167700  0.02278800  1
  O  O32  1  0.46319900  0.56182000  0.96325400  1
  O  O33  1  0.50049900  0.93726500  0.04983400  1
  O  O34  1  0.49816900  0.93928400  0.94161700  1
  O  O35  1  0.00049900  0.43726500  0.04983400  1
  O  O36  1  0.99816900  0.43928400  0.94161700  1
  O  O37  1  0.56189500  0.99924400  0.11366100  1
  O  O38  1  0.43778300  0.00067500  0.88736600  1
  O  O39  1  0.06189500  0.49924400  0.11366100  1
  O  O40  1  0.93778300  0.50067500  0.88736600  1
  O  O41  1  0.56127400  0.99956400  0.00699100  1
  O  O42  1  0.43842100  0.00032300  0.99404800  1
  O  O43  1  0.06127400  0.49956400  0.00699100  1
  O  O44  1  0.93842100  0.50032300  0.99404800  1
  O  O45  1  0.50154700  0.06079300  0.05949400  1
  O  O46  1  0.49917500  0.06280700  0.95126700  1
  O  O47  1  0.00154700  0.56079300  0.05949400  1
  O  O48  1  0.99917500  0.56280700  0.95126700  1
  O  O49  1  0.67370700  0.93331100  0.08602500  1
  O  O50  1  0.73179600  0.93680300  0.08570900  1
  O  O51  1  0.32506000  0.95972300  0.94268400  1
  O  O52  1  0.26790600  0.92051200  0.89062300  1
  O  O53  1  0.17370700  0.43331100  0.08602500  1
  O  O54  1  0.23179600  0.43680300  0.08570900  1
  O  O55  1  0.82506000  0.45972300  0.94268400  1
  O  O56  1  0.76790600  0.42051200  0.89062300  1
