# generated using pymatgen
data_Cu2H43C40N9O8
_symmetry_space_group_name_H-M   'P 1'
_cell_length_a   10.69880100
_cell_length_b   15.56084700
_cell_length_c   17.01470900
_cell_angle_alpha   96.35875800
_cell_angle_beta   90.00243500
_cell_angle_gamma   92.83473100
_symmetry_Int_Tables_number   1
_chemical_formula_structural   Cu2H43C40N9O8
_chemical_formula_sum   'Cu2 H43 C40 N9 O8'
_cell_volume   2811.73458989
_cell_formula_units_Z   1
loop_
 _symmetry_equiv_pos_site_id
 _symmetry_equiv_pos_as_xyz
  1  'x, y, z'
loop_
 _atom_site_type_symbol
 _atom_site_label
 _atom_site_symmetry_multiplicity
 _atom_site_fract_x
 _atom_site_fract_y
 _atom_site_fract_z
 _atom_site_occupancy
  Cu  Cu1  1  0.49478500  0.41294500  0.49009700  1
  Cu  Cu2  1  0.50743000  0.58564200  0.49759000  1
  H  H1  1  0.08194800  0.37364100  0.43508800  1
  H  H2  1  0.88213300  0.36439500  0.44694500  1
  H  H3  1  0.88302900  0.38231400  0.55305700  1
  H  H4  1  0.11392600  0.54692900  0.62244500  1
  H  H5  1  0.89812300  0.53387800  0.62111100  1
  H  H6  1  0.11438000  0.59988000  0.41846500  1
  H  H7  1  0.11047400  0.49226500  0.36810800  1
  H  H8  1  0.89855000  0.48814600  0.36714900  1
  H  H9  1  0.90434200  0.59769600  0.41500900  1
  H  H10  1  0.10916400  0.62744300  0.55705400  1
  H  H11  1  0.90320700  0.62426900  0.56371700  1
  H  H12  1  0.50057700  0.37774700  0.73650200  1
  H  H13  1  0.50001500  0.38581200  0.87810000  1
  H  H14  1  0.49591800  0.34459000  0.23877700  1
  H  H15  1  0.50645700  0.65359200  0.74881300  1
  H  H16  1  0.49980200  0.61259100  0.11027700  1
  H  H17  1  0.50578800  0.66307200  0.89262800  1
  H  H18  1  0.50128300  0.62065900  0.25095100  1
  H  H19  1  0.62270300  0.27987600  0.57376600  1
  H  H20  1  0.61077900  0.12584000  0.56997300  1
  H  H21  1  0.66690600  0.88820400  0.59966400  1
  H  H22  1  0.65438200  0.72960500  0.59235500  1
  H  H23  1  0.35284700  0.27145900  0.39301700  1
  H  H24  1  0.38489100  0.87120400  0.41894100  1
  H  H25  1  0.37708600  0.71629700  0.41534200  1
  H  H26  1  0.18912700  0.41185800  0.65946900  1
  H  H27  1  0.08331300  0.31985000  0.66688600  1
  H  H28  1  0.02206500  0.42017800  0.64947900  1
  H  H29  1  0.11712800  0.24361400  0.46752500  1
  H  H30  1  0.99636900  0.24045500  0.54169400  1
  H  H31  1  0.15814200  0.22640700  0.56638100  1
  H  H32  1  0.31848900  0.29972100  0.12929900  1
  H  H33  1  0.40510400  0.20252300  0.11274700  1
  H  H34  1  0.34144900  0.24961500  0.03019000  1
  H  H35  1  0.69432400  0.31474200  0.08415700  1
  H  H36  1  0.61372400  0.21365500  0.04827900  1
  H  H37  1  0.61609400  0.24977100  0.15293500  1
  H  H38  1  0.22028900  0.06125500  0.46734200  1
  H  H39  1  0.22478900  0.98307700  0.38021900  1
  H  H40  1  0.12440000  0.07306900  0.38251400  1
  H  H41  1  0.44643400  0.10233200  0.27841800  1
  H  H42  1  0.30404400  0.03734400  0.25622300  1
  H  H43  1  0.42007400  0.00080200  0.31968800  1
  C  C1  1  0.50052400  0.48871800  0.34181200  1
  C  C2  1  0.26104000  0.49882600  0.49523100  1
  C  C3  1  0.50339300  0.50973500  0.64570900  1
  C  C4  1  0.74206200  0.49971500  0.49356400  1
  C  C5  1  0.06199100  0.40567600  0.49493400  1
  C  C6  1  0.92053400  0.40717300  0.49883300  1
  C  C7  1  0.07567600  0.56029200  0.56487400  1
  C  C8  1  0.07655300  0.53261200  0.42089100  1
  C  C9  1  0.12067000  0.49835000  0.49594700  1
  C  C10  1  0.88174100  0.49916700  0.49447400  1
  C  C11  1  0.93362400  0.55753000  0.56580500  1
  C  C12  1  0.93428200  0.53129200  0.41941500  1
  C  C13  1  0.50048200  0.48302200  0.25519400  1
  C  C14  1  0.50099600  0.55727100  0.21757500  1
  C  C15  1  0.50049700  0.55227900  0.13628400  1
  C  C16  1  0.50036300  0.47229800  0.09135000  1
  C  C17  1  0.49936400  0.39784300  0.12868800  1
  C  C18  1  0.49903200  0.40319900  0.21035500  1
  C  C19  1  0.50130300  0.44602800  0.85160600  1
  C  C20  1  0.50173700  0.44088800  0.77006100  1
  C  C21  1  0.50255700  0.52630900  0.89638900  1
  C  C22  1  0.50349200  0.51515200  0.73227600  1
  C  C23  1  0.50483100  0.59481800  0.77692200  1
  C  C24  1  0.50438000  0.60022300  0.85836200  1
  C  C25  1  0.44222400  0.75416700  0.45573000  1
  C  C26  1  0.44669500  0.84315300  0.45808800  1
  C  C27  1  0.52840600  0.89258700  0.51000300  1
  C  C28  1  0.60359800  0.85092200  0.55791000  1
  C  C29  1  0.59681700  0.76183900  0.55382100  1
  C  C30  1  0.55128200  0.15423100  0.52961300  1
  C  C31  1  0.55809200  0.24308900  0.53288900  1
  C  C32  1  0.47112800  0.10545300  0.47579500  1
  C  C33  1  0.40786000  0.23796400  0.43248400  1
  C  C34  1  0.39809700  0.14861400  0.42664200  1
  C  C35  1  0.10105200  0.37820600  0.63575800  1
  C  C36  1  0.09492900  0.26134000  0.53069800  1
  C  C37  1  0.38547600  0.26439000  0.08947300  1
  C  C38  1  0.61139300  0.27122000  0.09293600  1
  C  C39  1  0.21603200  0.05235300  0.40191300  1
  C  C40  1  0.37492800  0.05864000  0.30276200  1
  N  N1  1  0.50071200  0.46408800  0.00768500  1
  N  N2  1  0.50217100  0.53493700  0.98016200  1
  N  N3  1  0.51552200  0.71493300  0.50399000  1
  N  N4  1  0.53676700  0.98412300  0.51587000  1
  N  N5  1  0.46389200  0.01387000  0.46985600  1
  N  N6  1  0.48889700  0.28360000  0.48384400  1
  N  N7  1  0.11464500  0.35350300  0.55178900  1
  N  N8  1  0.49938300  0.31662000  0.08241600  1
  N  N9  1  0.31441200  0.10405400  0.36954600  1
  O  O1  1  0.50101200  0.41690000  0.37556100  1
  O  O2  1  0.50021500  0.56544600  0.38234300  1
  O  O3  1  0.31547400  0.42466500  0.48763700  1
  O  O4  1  0.32422800  0.57342400  0.50070000  1
  O  O5  1  0.50186600  0.43316900  0.60513400  1
  O  O6  1  0.50359300  0.58126600  0.61194600  1
  O  O7  1  0.67863300  0.42518800  0.48786500  1
  O  O8  1  0.68776800  0.57403000  0.49917100  1
