# generated using pymatgen
data_VH9C12O5
_symmetry_space_group_name_H-M   'P 1'
_cell_length_a   6.32460200
_cell_length_b   15.59813300
_cell_length_c   16.46845600
_cell_angle_alpha   100.63290200
_cell_angle_beta   89.32146600
_cell_angle_gamma   90.72273400
_symmetry_Int_Tables_number   1
_chemical_formula_structural   VH9C12O5
_chemical_formula_sum   'V4 H36 C48 O20'
_cell_volume   1596.54808197
_cell_formula_units_Z   4
loop_
 _symmetry_equiv_pos_site_id
 _symmetry_equiv_pos_as_xyz
  1  'x, y, z'
loop_
 _atom_site_type_symbol
 _atom_site_label
 _atom_site_symmetry_multiplicity
 _atom_site_fract_x
 _atom_site_fract_y
 _atom_site_fract_z
 _atom_site_occupancy
  V  V1  1  0.97795000  0.50907200  0.50253300  1
  V  V2  1  0.47852800  0.53019300  0.50351400  1
  V  V3  1  0.36839800  0.03022500  0.00479800  1
  V  V4  1  0.86786800  0.00915900  0.00406200  1
  H  H1  1  0.45085100  0.76210600  0.64771900  1
  H  H2  1  0.43872300  0.88592600  0.76418300  1
  H  H3  1  0.89975100  0.65369100  0.74215900  1
  H  H4  1  0.96329100  0.72537100  0.38738100  1
  H  H5  1  0.50174000  0.59297200  0.26997600  1
  H  H6  1  0.82971400  0.84856900  0.33867600  1
  H  H7  1  0.52159100  0.69584200  0.17363500  1
  H  H8  1  0.38532200  0.81797900  0.12373000  1
  H  H9  1  0.89405200  0.30223800  0.61788300  1
  H  H10  1  0.40429300  0.46332200  0.74030800  1
  H  H11  1  0.99017600  0.17308000  0.66673700  1
  H  H12  1  0.35697800  0.36415100  0.83915300  1
  H  H13  1  0.94307200  0.07408400  0.76580200  1
  H  H14  1  0.45326300  0.23527600  0.88799500  1
  H  H15  1  0.96859200  0.37466200  0.25334500  1
  H  H16  1  0.93234400  0.24992100  0.13854700  1
  H  H17  1  0.37821400  0.16637700  0.25283000  1
  H  H18  1  0.41434400  0.29111700  0.36754400  1
  H  H19  1  0.69993900  0.73923800  0.84445000  1
  H  H20  1  0.78763800  0.84465900  0.89837100  1
  H  H21  1  0.01068200  0.77956100  0.98723200  1
  H  H22  1  0.00484700  0.67521100  0.91748700  1
  H  H23  1  0.61064900  0.66745400  0.94371600  1
  H  H24  1  0.63958000  0.76260300  0.02462100  1
  H  H25  1  0.88917400  0.59274700  0.01262500  1
  H  H26  1  0.65324100  0.61860600  0.07477000  1
  H  H27  1  0.88997000  0.68522600  0.09721300  1
  H  H28  1  0.70705100  0.95809400  0.18398800  1
  H  H29  1  0.88226300  0.03331900  0.24907000  1
  H  H30  1  0.74694400  0.97577300  0.37202000  1
  H  H31  1  0.56578000  0.90458600  0.30551400  1
  H  H32  1  0.40486300  0.03345200  0.26315600  1
  H  H33  1  0.58546500  0.10454600  0.32953300  1
  H  H34  1  0.26319900  0.97716800  0.38476900  1
  H  H35  1  0.23652000  0.09440800  0.39815300  1
  H  H36  1  0.44377500  0.04828200  0.45113800  1
  C  C1  1  0.67059200  0.44702400  0.61330600  1
  C  C2  1  0.71757500  0.41366600  0.38563300  1
  C  C3  1  0.22915800  0.59272500  0.39278400  1
  C  C4  1  0.17960800  0.62594200  0.62018200  1
  C  C5  1  0.32709000  0.76544400  0.69400000  1
  C  C6  1  0.31970500  0.83492900  0.75923800  1
  C  C7  1  0.16232100  0.83940800  0.81872700  1
  C  C8  1  0.00991500  0.77435100  0.81221400  1
  C  C9  1  0.01832000  0.70487100  0.74714300  1
  C  C10  1  0.17681900  0.70006800  0.68840000  1
  C  C11  1  0.22986100  0.65212100  0.33392100  1
  C  C12  1  0.11737000  0.89069200  0.17638200  1
  C  C13  1  0.95188300  0.84223900  0.29160800  1
  C  C14  1  0.96124400  0.89912900  0.23666500  1
  C  C15  1  0.26405200  0.82525600  0.17123900  1
  C  C16  1  0.25299600  0.76786800  0.22577700  1
  C  C17  1  0.09658800  0.77610200  0.28577000  1
  C  C18  1  0.08475800  0.71828400  0.33995000  1
  C  C19  1  0.38635300  0.64416500  0.27402400  1
  C  C20  1  0.39800400  0.70190100  0.22007000  1
  C  C21  1  0.65320900  0.38932900  0.67351500  1
  C  C22  1  0.69409300  0.14815000  0.83252200  1
  C  C23  1  0.87173100  0.18666100  0.71511500  1
  C  C24  1  0.84466900  0.13098500  0.77051200  1
  C  C25  1  0.57005200  0.22119500  0.83904100  1
  C  C26  1  0.59808200  0.27723100  0.78387100  1
  C  C27  1  0.74914000  0.26010200  0.72196300  1
  C  C28  1  0.77722500  0.31623000  0.66683500  1
  C  C29  1  0.50262900  0.40639000  0.73551300  1
  C  C30  1  0.47544700  0.35063200  0.79077900  1
  C  C31  1  0.83860700  0.32894900  0.25308600  1
  C  C32  1  0.81876400  0.25891200  0.18888600  1
  C  C33  1  0.65354100  0.20047200  0.18897100  1
  C  C34  1  0.50806300  0.21214400  0.25301900  1
  C  C35  1  0.52785900  0.28216700  0.31718000  1
  C  C36  1  0.69308700  0.34058400  0.31713900  1
  C  C37  1  0.62877500  0.12705500  0.12081000  1
  C  C38  1  0.67617300  0.09084900  0.89308100  1
  C  C39  1  0.16406100  0.91291600  0.88789100  1
  C  C40  1  0.11734600  0.94870800  0.11616700  1
  C  C41  1  0.83713300  0.77670700  0.87448900  1
  C  C42  1  0.91111400  0.73350000  0.94402000  1
  C  C43  1  0.72107400  0.70472900  0.98928700  1
  C  C44  1  0.79316300  0.64656200  0.04748600  1
  C  C45  1  0.80097200  0.96896500  0.24148300  1
  C  C46  1  0.65374900  0.96753000  0.31442600  1
  C  C47  1  0.49810000  0.04146900  0.32072800  1
  C  C48  1  0.35053000  0.04024900  0.39357200  1
  O  O1  1  0.59814600  0.41687600  0.45141500  1
  O  O2  1  0.79718500  0.42410000  0.54777100  1
  O  O3  1  0.01460600  0.57290700  0.61621600  1
  O  O4  1  0.89242100  0.45873700  0.38864300  1
  O  O5  1  0.10340400  0.60729700  0.45763800  1
  O  O6  1  0.51269900  0.50155300  0.61397400  1
  O  O7  1  0.70602100  0.58631900  0.50685100  1
  O  O8  1  0.39549700  0.54469600  0.39176300  1
  O  O9  1  0.30270700  0.63023400  0.55487800  1
  O  O10  1  0.20190200  0.45336800  0.50213200  1
  O  O11  1  0.83361900  0.03622800  0.89299500  1
  O  O12  1  0.45390900  0.08210400  0.11830800  1
  O  O13  1  0.24299600  0.93301800  0.05127700  1
  O  O14  1  0.54909600  0.11434200  0.95834900  1
  O  O15  1  0.33150200  0.96474500  0.89171400  1
  O  O16  1  0.74807900  0.12302700  0.05489100  1
  O  O17  1  0.64043100  0.95318400  0.00147600  1
  O  O18  1  0.04403400  0.90872400  0.95400000  1
  O  O19  1  0.95087800  0.99644800  0.11631800  1
  O  O20  1  0.14447400  0.08581400  0.00445600  1
