# generated using pymatgen
data_CuH11C15NO4
_symmetry_space_group_name_H-M   'P 1'
_cell_length_a   8.83358900
_cell_length_b   16.04012000
_cell_length_c   14.62844000
_cell_angle_alpha   90.00932500
_cell_angle_beta   97.89464200
_cell_angle_gamma   89.99046300
_symmetry_Int_Tables_number   1
_chemical_formula_structural   CuH11C15NO4
_chemical_formula_sum   'Cu2 H22 C30 N2 O8'
_cell_volume   2053.08565746
_cell_formula_units_Z   2
loop_
 _symmetry_equiv_pos_site_id
 _symmetry_equiv_pos_as_xyz
  1  'x, y, z'
loop_
 _atom_site_type_symbol
 _atom_site_label
 _atom_site_symmetry_multiplicity
 _atom_site_fract_x
 _atom_site_fract_y
 _atom_site_fract_z
 _atom_site_occupancy
  Cu  Cu1  1  0.50120300  0.49955000  0.59155300  1
  Cu  Cu2  1  0.49846800  0.50061400  0.40841300  1
  H  H1  1  0.97960000  0.50428500  0.39418900  1
  H  H2  1  0.02007200  0.49587900  0.60577600  1
  H  H3  1  0.49925500  0.07760900  0.64503300  1
  H  H4  1  0.50042400  0.92255600  0.35493300  1
  H  H5  1  0.50010400  0.92424800  0.64617400  1
  H  H6  1  0.49957500  0.07591700  0.35379200  1
  H  H7  1  0.66955700  0.58874800  0.92377900  1
  H  H8  1  0.33006600  0.41144300  0.07618200  1
  H  H9  1  0.95725500  0.66988100  0.21953600  1
  H  H10  1  0.81151300  0.75015900  0.20533100  1
  H  H11  1  0.85196100  0.69480600  0.31351600  1
  H  H12  1  0.61438100  0.64595800  0.22234100  1
  H  H13  1  0.76266700  0.56421900  0.23725900  1
  H  H14  1  0.82996300  0.59806100  0.08305400  1
  H  H15  1  0.68754000  0.67825100  0.06862100  1
  H  H16  1  0.18721700  0.25035500  0.79444500  1
  H  H17  1  0.04178500  0.33080400  0.78046200  1
  H  H18  1  0.14679400  0.30586800  0.68635900  1
  H  H19  1  0.23667700  0.43629100  0.76283500  1
  H  H20  1  0.38467100  0.35438600  0.77740500  1
  H  H21  1  0.31217300  0.32193600  0.93118900  1
  H  H22  1  0.16965600  0.40208400  0.91707100  1
  C  C1  1  0.49880800  0.34010000  0.49909500  1
  C  C2  1  0.50086300  0.66006400  0.50087000  1
  C  C3  1  0.20634400  0.50080400  0.47756200  1
  C  C4  1  0.79332700  0.49935900  0.52240300  1
  C  C5  1  0.03891700  0.50145100  0.46405100  1
  C  C6  1  0.96075400  0.49871300  0.53591400  1
  C  C7  1  0.49999900  0.95756700  0.58193600  1
  C  C8  1  0.49968000  0.04259800  0.41803000  1
  C  C9  1  0.50034700  0.91411200  0.50062400  1
  C  C10  1  0.49933200  0.08605200  0.49934200  1
  C  C11  1  0.50017800  0.95662800  0.41867600  1
  C  C12  1  0.49950100  0.04353600  0.58129000  1
  C  C13  1  0.50071600  0.82465100  0.50119800  1
  C  C14  1  0.49896000  0.17551400  0.49876800  1
  C  C15  1  0.49878400  0.25063800  0.49864200  1
  C  C16  1  0.50089000  0.74952700  0.50132400  1
  C  C17  1  0.59477400  0.54964200  0.95783900  1
  C  C18  1  0.40483500  0.45055700  0.04212100  1
  C  C19  1  0.49606300  0.49646200  0.90496600  1
  C  C20  1  0.50354200  0.50373900  0.09499300  1
  C  C21  1  0.39856300  0.44560100  0.94751200  1
  C  C22  1  0.60102100  0.55461200  0.05244600  1
  C  C23  1  0.50010100  0.49765800  0.80725900  1
  C  C24  1  0.49954500  0.50252000  0.19270400  1
  C  C25  1  0.71543200  0.61600400  0.09940800  1
  C  C26  1  0.72507300  0.62403100  0.20355000  1
  C  C27  1  0.84432800  0.68900700  0.23747700  1
  C  C28  1  0.28412600  0.38422200  0.90054800  1
  C  C29  1  0.27414300  0.37638600  0.79637100  1
  C  C30  1  0.15458700  0.31157600  0.76241400  1
  N  N1  1  0.49653200  0.50128200  0.27153800  1
  N  N2  1  0.50313800  0.49888200  0.72842700  1
  O  O1  1  0.49477200  0.37846900  0.57767700  1
  O  O2  1  0.50489900  0.62169500  0.42228800  1
  O  O3  1  0.50319800  0.37939300  0.42106100  1
  O  O4  1  0.49647200  0.62077000  0.57890300  1
  O  O5  1  0.27890700  0.49718300  0.56172400  1
  O  O6  1  0.72076400  0.50298100  0.43824100  1
  O  O7  1  0.27661900  0.50395700  0.40438400  1
  O  O8  1  0.72305200  0.49620700  0.59558100  1
