# generated using pymatgen
data_Fe2H23C62N2ClO20
_symmetry_space_group_name_H-M   'P 1'
_cell_length_a   13.73025000
_cell_length_b   23.05006100
_cell_length_c   11.04401300
_cell_angle_alpha   113.34880600
_cell_angle_beta   85.64106100
_cell_angle_gamma   80.03930900
_symmetry_Int_Tables_number   1
_chemical_formula_structural   Fe2H23C62N2ClO20
_chemical_formula_sum   'Fe2 H23 C62 N2 Cl1 O20'
_cell_volume   3119.99652497
_cell_formula_units_Z   1
loop_
 _symmetry_equiv_pos_site_id
 _symmetry_equiv_pos_as_xyz
  1  'x, y, z'
loop_
 _atom_site_type_symbol
 _atom_site_label
 _atom_site_symmetry_multiplicity
 _atom_site_fract_x
 _atom_site_fract_y
 _atom_site_fract_z
 _atom_site_occupancy
  Fe  Fe1  1  0.51614800  0.00490100  0.24440300  1
  Fe  Fe2  1  0.50166400  0.99373700  0.76190800  1
  H  H1  1  0.15131000  0.08193600  0.29222600  1
  H  H2  1  0.99475600  0.07083900  0.21026500  1
  H  H3  1  0.15556300  0.93692800  0.82479400  1
  H  H4  1  0.83091200  0.98237800  0.71786200  1
  H  H5  1  0.90269200  0.99373700  0.15343700  1
  H  H6  1  0.28658200  0.22607000  0.93270700  1
  H  H7  1  0.21059100  0.31307200  0.87586400  1
  H  H8  1  0.22447700  0.49925700  0.80069300  1
  H  H9  1  0.66126300  0.79386800  0.53563600  1
  H  H10  1  0.98483400  0.71635100  0.60344000  1
  H  H11  1  0.08116500  0.63970000  0.66073400  1
  H  H12  1  0.13166400  0.57900800  0.74813300  1
  H  H13  1  0.34709200  0.20236000  0.46990700  1
  H  H14  1  0.04033000  0.27129500  0.35752900  1
  H  H15  1  0.83774900  0.41881500  0.28970700  1
  H  H16  1  0.69385000  0.76355500  0.06763400  1
  H  H17  1  0.74603400  0.49832600  0.23553900  1
  H  H18  1  0.77031900  0.67628800  0.12333300  1
  H  H19  1  0.94617300  0.34754900  0.29730100  1
  H  H20  1  0.99106300  0.89740500  0.59707400  1
  H  H21  1  0.10161200  0.89528400  0.41043800  1
  H  H22  1  0.16500300  0.07451600  0.66496700  1
  H  H23  1  0.05292700  0.07748600  0.85316000  1
  C  C1  1  0.15256600  0.05080500  0.18854600  1
  C  C2  1  0.06352300  0.04340500  0.14205700  1
  C  C3  1  0.06234200  0.00182500  0.01150000  1
  C  C4  1  0.15339900  0.97085200  0.92624100  1
  C  C5  1  0.24321100  0.98334900  0.96944600  1
  C  C6  1  0.24262400  0.01962700  0.10467300  1
  C  C7  1  0.94271000  0.98920400  0.84359600  1
  C  C8  1  0.84774800  0.98550300  0.81400000  1
  C  C9  1  0.77303900  0.98570000  0.90375500  1
  C  C10  1  0.79218900  0.98944200  0.02740100  1
  C  C11  1  0.88786900  0.99221400  0.05773100  1
  C  C12  1  0.96399500  0.99344900  0.96812800  1
  C  C13  1  0.71116400  0.99261500  0.12688900  1
  C  C14  1  0.59870100  0.88418100  0.23216700  1
  C  C15  1  0.33404800  0.02782500  0.16317600  1
  C  C16  1  0.42236000  0.09525000  0.48905500  1
  C  C17  1  0.58491400  0.90035100  0.51690200  1
  C  C18  1  0.67675200  0.97775800  0.86019700  1
  C  C19  1  0.39749200  0.10904500  0.76980200  1
  C  C20  1  0.33173500  0.96868700  0.86825800  1
  C  C21  1  0.22687600  0.37384900  0.69371100  1
  C  C22  1  0.16002500  0.29402000  0.53974400  1
  C  C23  1  0.33564500  0.20789400  0.57215400  1
  C  C24  1  0.37543700  0.15671200  0.60160700  1
  C  C25  1  0.30125700  0.21995800  0.83038000  1
  C  C26  1  0.25914400  0.26999400  0.79892700  1
  C  C27  1  0.27451400  0.26365700  0.66905200  1
  C  C28  1  0.11071600  0.40355500  0.56571500  1
  C  C29  1  0.17232600  0.42049600  0.66082700  1
  C  C30  1  0.17835800  0.48415900  0.72378600  1
  C  C31  1  0.10512500  0.33963600  0.50489300  1
  C  C32  1  0.35764500  0.16221400  0.73209700  1
  C  C33  1  0.63599900  0.83083600  0.27093900  1
  C  C34  1  0.01131000  0.55991600  0.55373700  1
  C  C35  1  0.93058200  0.47933800  0.41113300  1
  C  C36  1  0.94314400  0.54264200  0.46610000  1
  C  C37  1  0.02578300  0.62301200  0.59978700  1
  C  C38  1  0.97098500  0.66804100  0.56495300  1
  C  C39  1  0.90057100  0.65157900  0.48296300  1
  C  C40  1  0.88709000  0.58909800  0.43302000  1
  C  C41  1  0.81718100  0.57362600  0.34924400  1
  C  C42  1  0.76197700  0.62036300  0.31717800  1
  C  C43  1  0.84489600  0.69725600  0.44895400  1
  C  C44  1  0.66622400  0.78697100  0.43248700  1
  C  C45  1  0.62557200  0.83807500  0.40331200  1
  C  C46  1  0.68498900  0.77118900  0.17124000  1
  C  C47  1  0.72746700  0.72103800  0.20216800  1
  C  C48  1  0.72036400  0.72932800  0.33333333  1
  C  C49  1  0.06389600  0.51392500  0.59220600  1
  C  C50  1  0.05492500  0.44997000  0.53229200  1
  C  C51  1  0.99054500  0.43200700  0.43943400  1
  C  C52  1  0.12488800  0.53029600  0.69053400  1
  C  C53  1  0.04469300  0.32134300  0.40911700  1
  C  C54  1  0.85723700  0.46520900  0.32981500  1
  C  C55  1  0.80178900  0.51168300  0.29922300  1
  C  C56  1  0.98851300  0.36663500  0.37622600  1
  C  C57  1  0.01564500  0.98721200  0.73764800  1
  C  C58  1  0.02939300  0.93641500  0.61298700  1
  C  C59  1  0.09166700  0.93497800  0.50791400  1
  C  C60  1  0.14005800  0.98457400  0.52639500  1
  C  C61  1  0.12731600  0.03537000  0.65086100  1
  C  C62  1  0.06493400  0.03681200  0.75676000  1
  N  N1  1  0.22031300  0.31148100  0.63271600  1
  N  N2  1  0.77618700  0.68131800  0.36772000  1
  Cl  Cl1  1  0.21554800  0.98294600  0.38984400  1
  O  O1  1  0.61747900  0.01282600  0.11801200  1
  O  O2  1  0.62135700  0.87613600  0.10811000  1
  O  O3  1  0.73203900  0.97688200  0.22541600  1
  O  O4  1  0.54437100  0.94005000  0.32000400  1
  O  O5  1  0.40421500  0.97698000  0.14468400  1
  O  O6  1  0.34182700  0.08596600  0.24367600  1
  O  O7  1  0.49168000  0.09262300  0.39731200  1
  O  O8  1  0.38311800  0.04478700  0.46755800  1
  O  O9  1  0.52024100  0.90450600  0.61563400  1
  O  O10  1  0.62663700  0.94940900  0.53212900  1
  O  O11  1  0.62070500  0.02400500  0.83948400  1
  O  O12  1  0.64690500  0.92400600  0.83979100  1
  O  O13  1  0.32048300  0.95034500  0.74249700  1
  O  O14  1  0.45929400  0.05588500  0.68339100  1
  O  O15  1  0.41375600  0.98793700  0.90545900  1
  O  O16  1  0.37304600  0.11538400  0.89230600  1
  O  O17  1  0.28808200  0.39045200  0.78512000  1
  O  O18  1  0.86125600  0.75755000  0.49421000  1
  O  O19  1  0.15065300  0.23220400  0.48378500  1
  O  O20  1  0.69261600  0.60539000  0.23722800  1
