# generated using pymatgen
data_ZnH18C38N2(ClO3)2
_symmetry_space_group_name_H-M   'P 1'
_cell_length_a   14.85395900
_cell_length_b   16.03329500
_cell_length_c   23.42560900
_cell_angle_alpha   89.98922200
_cell_angle_beta   103.57104200
_cell_angle_gamma   86.04118100
_symmetry_Int_Tables_number   1
_chemical_formula_structural   ZnH18C38N2(ClO3)2
_chemical_formula_sum   'Zn2 H36 C76 N4 Cl4 O12'
_cell_volume   5409.51411677
_cell_formula_units_Z   2
loop_
 _symmetry_equiv_pos_site_id
 _symmetry_equiv_pos_as_xyz
  1  'x, y, z'
loop_
 _atom_site_type_symbol
 _atom_site_label
 _atom_site_symmetry_multiplicity
 _atom_site_fract_x
 _atom_site_fract_y
 _atom_site_fract_z
 _atom_site_occupancy
  Zn  Zn1  1  0.39819400  0.47833000  0.48472700  1
  Zn  Zn2  1  0.60005000  0.52082900  0.51433100  1
  H  H1  1  0.41654600  0.69719500  0.04119000  1
  H  H2  1  0.58602500  0.30318500  0.95853100  1
  H  H3  1  0.35427600  0.49199600  0.76441300  1
  H  H4  1  0.35162100  0.49074800  0.19169600  1
  H  H5  1  0.35283600  0.49062000  0.66010200  1
  H  H6  1  0.35100800  0.49088000  0.29571700  1
  H  H7  1  0.64724500  0.50981600  0.70310000  1
  H  H8  1  0.64587200  0.50700100  0.33929200  1
  H  H9  1  0.64710200  0.51013900  0.80715000  1
  H  H10  1  0.64491800  0.50577100  0.23507700  1
  H  H11  1  0.25268500  0.01597500  0.46404700  1
  H  H12  1  0.74554300  0.98317700  0.53632600  1
  H  H13  1  0.44672100  0.21365500  0.49179400  1
  H  H14  1  0.55150400  0.78550700  0.50693800  1
  H  H15  1  0.72820600  0.27108400  0.53344200  1
  H  H16  1  0.27003100  0.72806500  0.46620600  1
  H  H17  1  0.22052900  0.87538600  0.45919300  1
  H  H18  1  0.77770200  0.12376200  0.54087500  1
  H  H19  1  0.35469900  0.12306800  0.47901700  1
  H  H20  1  0.64353000  0.87608800  0.52138200  1
  H  H21  1  0.02360500  0.65781100  0.60699700  1
  H  H22  1  0.97462700  0.34136800  0.39204400  1
  H  H23  1  0.23274500  0.53606900  0.52358900  1
  H  H24  1  0.76549300  0.46309500  0.47546500  1
  H  H25  1  0.28864000  0.35966400  0.40416800  1
  H  H26  1  0.70960100  0.63949300  0.59489100  1
  H  H27  1  0.87103900  0.67607600  0.61956600  1
  H  H28  1  0.12719800  0.32309200  0.37948400  1
  H  H29  1  0.13682300  0.59366400  0.56320600  1
  H  H30  1  0.86140600  0.40551900  0.43583200  1
  H  H31  1  0.22468000  0.84994200  0.86943400  1
  H  H32  1  0.51068200  0.89606300  0.89785400  1
  H  H33  1  0.55394500  0.75761100  0.94534900  1
  H  H34  1  0.51056200  0.09549400  0.10019000  1
  H  H35  1  0.78933900  0.16602400  0.13618600  1
  H  H36  1  0.73522800  0.30193700  0.08692500  1
  C  C1  1  0.44552700  0.65920200  0.49153700  1
  C  C2  1  0.55271300  0.33995700  0.50753500  1
  C  C3  1  0.49966000  0.49976600  0.61139200  1
  C  C4  1  0.49860600  0.49939100  0.38767000  1
  C  C5  1  0.52947600  0.42820800  0.12272400  1
  C  C6  1  0.46967400  0.57120100  0.87647400  1
  C  C7  1  0.46769100  0.56739100  0.11341100  1
  C  C8  1  0.53246800  0.43233600  0.88592600  1
  C  C9  1  0.46852800  0.56891300  0.05467100  1
  C  C10  1  0.53172000  0.43082800  0.94467800  1
  C  C11  1  0.49974900  0.49869400  0.02921600  1
  C  C12  1  0.50025600  0.50096700  0.97010300  1
  C  C13  1  0.53029500  0.42664500  0.06314000  1
  C  C14  1  0.46982400  0.57304500  0.93619600  1
  C  C15  1  0.43938900  0.64104000  0.02162300  1
  C  C16  1  0.56179100  0.35896500  0.97786600  1
  C  C17  1  0.44004600  0.64415700  0.96305600  1
  C  C18  1  0.56073900  0.35573100  0.03635000  1
  C  C19  1  0.41851900  0.49591000  0.75075400  1
  C  C20  1  0.41615100  0.49427600  0.22427000  1
  C  C21  1  0.41808600  0.49486300  0.69183800  1
  C  C22  1  0.41617600  0.49412500  0.28313200  1
  C  C23  1  0.49999500  0.50013200  0.67402900  1
  C  C24  1  0.49844000  0.49902500  0.32505900  1
  C  C25  1  0.58226200  0.50590800  0.71580900  1
  C  C26  1  0.58061400  0.50348200  0.30744100  1
  C  C27  1  0.58256700  0.50588400  0.77470200  1
  C  C28  1  0.58045900  0.50250300  0.24857400  1
  C  C29  1  0.50072300  0.50123500  0.79225800  1
  C  C30  1  0.49827500  0.49811900  0.20691100  1
  C  C31  1  0.41536600  0.74869200  0.48724000  1
  C  C32  1  0.58286800  0.25046500  0.51202800  1
  C  C33  1  0.29395200  0.85675700  0.46981700  1
  C  C34  1  0.70427800  0.14239400  0.53003100  1
  C  C35  1  0.32206200  0.77327700  0.47378200  1
  C  C36  1  0.67617200  0.22587400  0.52581500  1
  C  C37  1  0.48006600  0.80851200  0.49672400  1
  C  C38  1  0.51816200  0.19064800  0.50249200  1
  C  C39  1  0.45248200  0.89397300  0.49293300  1
  C  C40  1  0.54574400  0.10518500  0.50669200  1
  C  C41  1  0.35820600  0.91638700  0.47923900  1
  C  C42  1  0.64002200  0.08276700  0.52061200  1
  C  C43  1  0.51563800  0.95736500  0.50229400  1
  C  C44  1  0.48258800  0.04179200  0.49747100  1
  C  C45  1  0.38697400  0.06073000  0.48358100  1
  C  C46  1  0.61125200  0.93842600  0.51646700  1
  C  C47  1  0.32644700  0.99885900  0.47473500  1
  C  C48  1  0.67178000  0.00029500  0.52538700  1
  C  C49  1  0.84994900  0.62854900  0.58742100  1
  C  C50  1  0.14828800  0.37061800  0.41163000  1
  C  C51  1  0.75938700  0.60811100  0.57367600  1
  C  C52  1  0.23885300  0.39105000  0.42538100  1
  C  C53  1  0.79327100  0.50918600  0.50664000  1
  C  C54  1  0.20496800  0.48997900  0.49241200  1
  C  C55  1  0.88643200  0.52791300  0.51909300  1
  C  C56  1  0.11180300  0.47125800  0.47995500  1
  C  C57  1  0.91324300  0.58862900  0.56024200  1
  C  C58  1  0.08499200  0.41054300  0.43880600  1
  C  C59  1  0.95306000  0.48837200  0.49202200  1
  C  C60  1  0.04517300  0.51080200  0.50702300  1
  C  C61  1  0.06842100  0.57230300  0.54880700  1
  C  C62  1  0.92981100  0.42687500  0.45023500  1
  C  C63  1  0.00321200  0.61027100  0.57474700  1
  C  C64  1  0.99502000  0.38890600  0.42429700  1
  C  C65  1  0.41361800  0.72547400  0.93332400  1
  C  C66  1  0.32114600  0.75181100  0.91258200  1
  C  C67  1  0.29702800  0.82952400  0.88600400  1
  C  C68  1  0.36507400  0.88124000  0.88058200  1
  C  C69  1  0.45734400  0.85537400  0.90186600  1
  C  C70  1  0.48158800  0.77770200  0.92840900  1
  C  C71  1  0.59230600  0.27562600  0.06682700  1
  C  C72  1  0.52937600  0.21723800  0.06993900  1
  C  C73  1  0.55984800  0.14103300  0.09750900  1
  C  C74  1  0.65314700  0.12276700  0.12150300  1
  C  C75  1  0.71613500  0.18054600  0.11767100  1
  C  C76  1  0.68579200  0.25676800  0.09010200  1
  N  N1  1  0.49822000  0.49786500  0.14612800  1
  N  N2  1  0.50116100  0.50162400  0.85309600  1
  N  N3  1  0.73273300  0.54915700  0.53383800  1
  N  N4  1  0.26550900  0.45000300  0.46522000  1
  Cl  Cl1  1  0.23415800  0.68642200  0.91895600  1
  Cl  Cl2  1  0.33432500  0.97994100  0.84691400  1
  Cl  Cl3  1  0.41080200  0.23956700  0.03904200  1
  Cl  Cl4  1  0.69168800  0.02591800  0.15643900  1
  O  O1  1  0.38173000  0.60486800  0.48220800  1
  O  O2  1  0.61651300  0.39429100  0.51686700  1
  O  O3  1  0.53478800  0.63695200  0.50463000  1
  O  O4  1  0.46345400  0.36220700  0.49442700  1
  O  O5  1  0.42289700  0.48383900  0.57340700  1
  O  O6  1  0.57535200  0.51530500  0.42565800  1
  O  O7  1  0.57614600  0.51555000  0.59587000  1
  O  O8  1  0.42209400  0.48362400  0.40318200  1
  O  O9  1  0.55893500  0.36103100  0.15811800  1
  O  O10  1  0.43830000  0.63780400  0.84082000  1
  O  O11  1  0.43785600  0.63583400  0.13862700  1
  O  O12  1  0.56274900  0.36402900  0.86077300  1
