# generated using pymatgen
data_ZnH19C26NO4
_symmetry_space_group_name_H-M   'P 1'
_cell_length_a   11.89912500
_cell_length_b   13.08545300
_cell_length_c   15.91415700
_cell_angle_alpha   88.38407100
_cell_angle_beta   111.68430600
_cell_angle_gamma   91.19275300
_symmetry_Int_Tables_number   1
_chemical_formula_structural   ZnH19C26NO4
_chemical_formula_sum   'Zn2 H38 C52 N2 O8'
_cell_volume   2301.50795389
_cell_formula_units_Z   2
loop_
 _symmetry_equiv_pos_site_id
 _symmetry_equiv_pos_as_xyz
  1  'x, y, z'
loop_
 _atom_site_type_symbol
 _atom_site_label
 _atom_site_symmetry_multiplicity
 _atom_site_fract_x
 _atom_site_fract_y
 _atom_site_fract_z
 _atom_site_occupancy
  Zn  Zn1  1  0.62792100  0.48144100  0.50521800  1
  Zn  Zn2  1  0.36978100  0.49837100  0.49611800  1
  H  H1  1  0.80212600  0.40983200  0.09702500  1
  H  H2  1  0.20359100  0.59622300  0.90825800  1
  H  H3  1  0.53904900  0.45214300  0.22493700  1
  H  H4  1  0.44481700  0.50514100  0.77328300  1
  H  H5  1  0.85001900  0.40018700  0.97002400  1
  H  H6  1  0.15918300  0.61042400  0.03490200  1
  H  H7  1  0.66983700  0.44694700  0.17020900  1
  H  H8  1  0.33220000  0.55353200  0.83391100  1
  H  H9  1  0.35131000  0.82114100  0.48664500  1
  H  H10  1  0.64638800  0.15793200  0.51525200  1
  H  H11  1  0.72487100  0.80180800  0.53766100  1
  H  H12  1  0.27490700  0.18087800  0.46461700  1
  H  H13  1  0.79654600  0.60801700  0.44205600  1
  H  H14  1  0.20108400  0.37154500  0.55918500  1
  H  H15  1  0.81973600  0.32619200  0.58078100  1
  H  H16  1  0.17720200  0.65247400  0.41902100  1
  H  H17  1  0.96858800  0.67317600  0.40925700  1
  H  H18  1  0.02822300  0.30538600  0.59027100  1
  H  H19  1  0.24660300  0.66147000  0.27300000  1
  H  H20  1  0.14651700  0.55142800  0.23767900  1
  H  H21  1  0.12677500  0.75474400  0.12685100  1
  H  H22  1  0.95019600  0.59551900  0.15398200  1
  H  H23  1  0.91505800  0.71673400  0.08448900  1
  H  H24  1  0.80102900  0.35908000  0.74278900  1
  H  H25  1  0.90556600  0.36831000  0.85557300  1
  H  H26  1  0.84800300  0.57992400  0.78596500  1
  H  H27  1  0.02337800  0.43209000  0.75448900  1
  H  H28  1  0.02249500  0.57528300  0.74380700  1
  H  H29  1  0.23076000  0.92520400  0.52785500  1
  H  H30  1  0.19180600  0.92919100  0.40672500  1
  H  H31  1  0.12983700  0.09560100  0.51795400  1
  H  H32  1  0.01417900  0.01104500  0.32712500  1
  H  H33  1  0.95410100  0.10996500  0.38166700  1
  H  H34  1  0.77661200  0.05493500  0.48744300  1
  H  H35  1  0.84204200  0.93697200  0.53909700  1
  H  H36  1  0.77888200  0.04181500  0.67604300  1
  H  H37  1  0.99174100  0.09062800  0.61735000  1
  H  H38  1  0.97626800  0.12157200  0.72695000  1
  C  C1  1  0.47232600  0.29063600  0.49028700  1
  C  C2  1  0.52528400  0.68912000  0.51099500  1
  C  C3  1  0.57526800  0.47333200  0.67816700  1
  C  C4  1  0.42274800  0.50761100  0.32350600  1
  C  C5  1  0.61669600  0.46332300  0.77840400  1
  C  C6  1  0.38235700  0.52315300  0.22411400  1
  C  C7  1  0.76046800  0.42335900  0.92605900  1
  C  C8  1  0.24447000  0.57961800  0.07928800  1
  C  C9  1  0.73322400  0.43333000  0.83425200  1
  C  C10  1  0.27419300  0.57115300  0.17199200  1
  C  C11  1  0.53325200  0.48345600  0.81811200  1
  C  C12  1  0.45981100  0.49223900  0.18272100  1
  C  C13  1  0.56228200  0.47590000  0.91158700  1
  C  C14  1  0.43439300  0.50927000  0.09062900  1
  C  C15  1  0.67704200  0.44404300  0.96411700  1
  C  C16  1  0.32364200  0.55018900  0.03975700  1
  C  C17  1  0.48090400  0.49940700  0.95410900  1
  C  C18  1  0.51567000  0.48631400  0.04805200  1
  C  C19  1  0.63277300  0.45419300  0.09776800  1
  C  C20  1  0.36651600  0.53824900  0.90548200  1
  C  C21  1  0.71149300  0.43369200  0.05607300  1
  C  C22  1  0.29043000  0.56393100  0.94812700  1
  C  C23  1  0.53627300  0.80121700  0.51224600  1
  C  C24  1  0.46134700  0.17845000  0.48997400  1
  C  C25  1  0.34098000  0.02624100  0.48103500  1
  C  C26  1  0.65653400  0.95320500  0.52466700  1
  C  C27  1  0.35154700  0.13211000  0.47762300  1
  C  C28  1  0.64597000  0.84793900  0.52557800  1
  C  C29  1  0.56187200  0.11936400  0.50528200  1
  C  C30  1  0.43584400  0.86028100  0.49787900  1
  C  C31  1  0.55441100  0.01335300  0.50877000  1
  C  C32  1  0.44336000  0.96657400  0.49595300  1
  C  C33  1  0.01855600  0.60605400  0.44257100  1
  C  C34  1  0.97841600  0.37271500  0.55732100  1
  C  C35  1  0.13607900  0.59434700  0.44826100  1
  C  C36  1  0.86099000  0.38452900  0.55184800  1
  C  C37  1  0.14915000  0.43784700  0.52609700  1
  C  C38  1  0.84838400  0.54159400  0.47494200  1
  C  C39  1  0.03144000  0.44726400  0.52106200  1
  C  C40  1  0.96581900  0.53185700  0.47941900  1
  C  C41  1  0.19192800  0.61488800  0.21450500  1
  C  C42  1  0.09855100  0.68501700  0.15229800  1
  C  C43  1  0.98106500  0.66426800  0.12908700  1
  C  C44  1  0.83286000  0.41000900  0.80162200  1
  C  C45  1  0.88666600  0.50707500  0.78108100  1
  C  C46  1  0.98331500  0.50461300  0.75828000  1
  C  C47  1  0.22055300  0.97579000  0.46842200  1
  C  C48  1  0.12249100  0.04927900  0.46067300  1
  C  C49  1  0.02458300  0.05692300  0.38525000  1
  C  C50  1  0.77981300  0.99786900  0.54110300  1
  C  C51  1  0.83052100  0.04424200  0.63236900  1
  C  C52  1  0.93952200  0.08812000  0.66058800  1
  N  N1  1  0.79809200  0.46842300  0.51149700  1
  N  N2  1  0.19958000  0.51118200  0.48982000  1
  O  O1  1  0.57579000  0.33247500  0.49582000  1
  O  O2  1  0.42168600  0.64735600  0.50527800  1
  O  O3  1  0.38015300  0.34470500  0.48902600  1
  O  O4  1  0.61777300  0.63514000  0.51250800  1
  O  O5  1  0.65414500  0.47189400  0.63843200  1
  O  O6  1  0.34339000  0.50781700  0.36288600  1
  O  O7  1  0.45883300  0.48362600  0.63163800  1
  O  O8  1  0.53907400  0.49662300  0.36972700  1
