# generated using pymatgen
data_ZnH11C14(NO2)2
_symmetry_space_group_name_H-M   'P 1'
_cell_length_a   12.47772500
_cell_length_b   8.56667100
_cell_length_c   10.81074100
_cell_angle_alpha   90.00000000
_cell_angle_beta   95.78189200
_cell_angle_gamma   90.00000000
_symmetry_Int_Tables_number   1
_chemical_formula_structural   ZnH11C14(NO2)2
_chemical_formula_sum   'Zn2 H22 C28 N4 O8'
_cell_volume   1149.70889345
_cell_formula_units_Z   2
loop_
 _symmetry_equiv_pos_site_id
 _symmetry_equiv_pos_as_xyz
  1  'x, y, z'
loop_
 _atom_site_type_symbol
 _atom_site_label
 _atom_site_symmetry_multiplicity
 _atom_site_fract_x
 _atom_site_fract_y
 _atom_site_fract_z
 _atom_site_occupancy
  Zn  Zn1  1  0.11926500  0.51750300  0.49806500  1
  Zn  Zn2  1  0.88073500  0.51750300  0.50193500  1
  H  H1  1  0.88397100  0.73341500  0.93888900  1
  H  H2  1  0.07346800  0.37143500  0.11265000  1
  H  H3  1  0.11602900  0.73341500  0.06111100  1
  H  H4  1  0.92653200  0.37143500  0.88735000  1
  H  H5  1  0.00289900  0.63106200  0.11463300  1
  H  H6  1  0.07137000  0.38506100  0.90873000  1
  H  H7  1  0.99710100  0.63106200  0.88536700  1
  H  H8  1  0.92863000  0.38506100  0.09127000  1
  H  H9  1  0.05086400  0.01578300  0.58979100  1
  H  H10  1  0.94913700  0.01578300  0.41020900  1
  H  H11  1  0.39132800  0.64324200  0.73661500  1
  H  H12  1  0.47792600  0.54424900  0.85398700  1
  H  H13  1  0.37939800  0.43336200  0.75578600  1
  H  H14  1  0.57409900  0.29033200  0.62466900  1
  H  H15  1  0.55731300  0.31747900  0.78629800  1
  H  H16  1  0.66704000  0.41377600  0.72077300  1
  H  H17  1  0.60867200  0.64324100  0.26338500  1
  H  H18  1  0.52207400  0.54424900  0.14601300  1
  H  H19  1  0.62060200  0.43336200  0.24421400  1
  H  H20  1  0.42590100  0.29033200  0.37533100  1
  H  H21  1  0.44268700  0.31747900  0.21370200  1
  H  H22  1  0.33296100  0.41377600  0.27922700  1
  C  C1  1  0.03707100  0.01665000  0.68648800  1
  C  C2  1  0.96292900  0.01665000  0.31351200  1
  C  C3  1  0.02152500  0.87786200  0.74582500  1
  C  C4  1  0.97721000  0.15658000  0.25522800  1
  C  C5  1  0.97847500  0.87786200  0.25417500  1
  C  C6  1  0.02279000  0.15658000  0.74477200  1
  C  C7  1  0.00167700  0.88026400  0.86963300  1
  C  C8  1  0.98984400  0.15949000  0.13008800  1
  C  C9  1  0.99832300  0.88026400  0.13036700  1
  C  C10  1  0.01015700  0.15949000  0.86991200  1
  C  C11  1  0.97238600  0.73575500  0.93461400  1
  C  C12  1  0.99891800  0.31433300  0.07019200  1
  C  C13  1  0.02761400  0.73575500  0.06538600  1
  C  C14  1  0.00108300  0.31433300  0.92980700  1
  C  C15  1  0.00470700  0.02061000  0.93353900  1
  C  C16  1  0.99529300  0.02061000  0.06646000  1
  C  C17  1  0.53165200  0.50774200  0.45393100  1
  C  C18  1  0.46834800  0.50774200  0.54606800  1
  C  C19  1  0.35305000  0.51375500  0.51800100  1
  C  C20  1  0.64695100  0.51375500  0.48199900  1
  C  C21  1  0.98564600  0.73616700  0.33052200  1
  C  C22  1  0.01479900  0.29855300  0.66913100  1
  C  C23  1  0.01435400  0.73616700  0.66947800  1
  C  C24  1  0.98520100  0.29855300  0.33086900  1
  C  C25  1  0.43619900  0.53329900  0.75878800  1
  C  C26  1  0.58198000  0.37579600  0.70209100  1
  C  C27  1  0.56380100  0.53329900  0.24121200  1
  C  C28  1  0.41802000  0.37579600  0.29790900  1
  N  N1  1  0.73989600  0.51742100  0.50074400  1
  N  N2  1  0.26010400  0.51742100  0.49925600  1
  N  N3  1  0.51442600  0.50947900  0.67134500  1
  N  N4  1  0.48557400  0.50947900  0.32865500  1
  O  O1  1  0.89788500  0.68653400  0.37556400  1
  O  O2  1  0.10230000  0.34868300  0.62450200  1
  O  O3  1  0.10211500  0.68653400  0.62443500  1
  O  O4  1  0.89770000  0.34868300  0.37549800  1
  O  O5  1  0.08179300  0.68028600  0.36615300  1
  O  O6  1  0.91836500  0.35423900  0.63351800  1
  O  O7  1  0.91820700  0.68028600  0.63384700  1
  O  O8  1  0.08163500  0.35423900  0.36648200  1
