# generated using pymatgen
data_CuH17C25NO4
_symmetry_space_group_name_H-M   'P 1'
_cell_length_a   13.00764500
_cell_length_b   15.10986000
_cell_length_c   13.67716100
_cell_angle_alpha   89.99676400
_cell_angle_beta   95.45883800
_cell_angle_gamma   90.00362700
_symmetry_Int_Tables_number   1
_chemical_formula_structural   CuH17C25NO4
_chemical_formula_sum   'Cu2 H34 C50 N2 O8'
_cell_volume   2675.96840282
_cell_formula_units_Z   2
loop_
 _symmetry_equiv_pos_site_id
 _symmetry_equiv_pos_as_xyz
  1  'x, y, z'
loop_
 _atom_site_type_symbol
 _atom_site_label
 _atom_site_symmetry_multiplicity
 _atom_site_fract_x
 _atom_site_fract_y
 _atom_site_fract_z
 _atom_site_occupancy
  Cu  Cu1  1  0.50041800  0.50106200  0.59775400  1
  Cu  Cu2  1  0.50053300  0.49931400  0.40231000  1
  H  H1  1  0.82369100  0.47925300  0.37569500  1
  H  H2  1  0.17794700  0.52060400  0.62476300  1
  H  H3  1  0.82498900  0.52494700  0.68207000  1
  H  H4  1  0.17584100  0.47685800  0.31821400  1
  H  H5  1  0.54765200  0.06099200  0.65447300  1
  H  H6  1  0.55823400  0.93788100  0.35859300  1
  H  H7  1  0.54408200  0.22086400  0.65507400  1
  H  H8  1  0.55274400  0.77810700  0.35711200  1
  H  H9  1  0.45973800  0.22127000  0.34518700  1
  H  H10  1  0.44590700  0.77876800  0.64311200  1
  H  H11  1  0.45577300  0.06149000  0.34523300  1
  H  H12  1  0.44386500  0.93859100  0.64218200  1
  H  H13  1  0.64067700  0.57365900  0.08261100  1
  H  H14  1  0.42890100  0.37177300  0.92288700  1
  H  H15  1  0.63551300  0.57506100  0.25902500  1
  H  H16  1  0.42799000  0.37612600  0.74648600  1
  H  H17  1  0.36353300  0.42280000  0.23362500  1
  H  H18  1  0.57591300  0.62418500  0.76177200  1
  H  H19  1  0.35898100  0.42498700  0.05617600  1
  H  H20  1  0.57004700  0.62823900  0.93795200  1
  H  H21  1  0.92041600  0.61079300  0.26855800  1
  H  H22  1  0.83955200  0.59947200  0.10017400  1
  H  H23  1  0.79657600  0.51959100  0.95696100  1
  H  H24  1  0.77743800  0.40291400  0.97730600  1
  H  H25  1  0.89464300  0.44113600  0.92948400  1
  H  H26  1  0.94519400  0.33292400  0.08515400  1
  H  H27  1  0.02730700  0.34490500  0.25390500  1
  H  H28  1  0.95837000  0.66107700  0.73984100  1
  H  H29  1  0.03478700  0.68394800  0.90810900  1
  H  H30  1  0.13347500  0.63582800  0.04882200  1
  H  H31  1  0.24227200  0.56956800  0.02081900  1
  H  H32  1  0.13191300  0.51763200  0.06828600  1
  H  H33  1  0.17172400  0.42727700  0.90683100  1
  H  H34  1  0.09267000  0.40371500  0.73866200  1
  C  C1  1  0.50179400  0.32971300  0.50015600  1
  C  C2  1  0.49880800  0.67001900  0.49983100  1
  C  C3  1  0.30193200  0.49851200  0.48334400  1
  C  C4  1  0.69924100  0.50128000  0.51697300  1
  C  C5  1  0.81264300  0.50328000  0.52679600  1
  C  C6  1  0.18853300  0.49744300  0.47356500  1
  C  C7  1  0.02870000  0.48571800  0.37225200  1
  C  C8  1  0.97227400  0.51768900  0.62821800  1
  C  C9  1  0.13508100  0.48532000  0.38273700  1
  C  C10  1  0.86590400  0.51672300  0.61750600  1
  C  C11  1  0.13464600  0.50925700  0.55484500  1
  C  C12  1  0.86670600  0.49204200  0.44559900  1
  C  C13  1  0.02730900  0.50683200  0.54634000  1
  C  C14  1  0.97395500  0.49526400  0.45437000  1
  C  C15  1  0.52553500  0.09513000  0.58631800  1
  C  C16  1  0.53044000  0.90410600  0.42048700  1
  C  C17  1  0.52466500  0.18641800  0.58658000  1
  C  C18  1  0.52844400  0.81289600  0.41997400  1
  C  C19  1  0.50189600  0.23270500  0.50014700  1
  C  C20  1  0.49887800  0.76699700  0.49989300  1
  C  C21  1  0.47909500  0.18660500  0.41358500  1
  C  C22  1  0.47027900  0.81326300  0.58003500  1
  C  C23  1  0.47758700  0.09532300  0.41364400  1
  C  C24  1  0.46997100  0.90451900  0.57968800  1
  C  C25  1  0.50120000  0.04860300  0.49998900  1
  C  C26  1  0.50048500  0.95095200  0.50004800  1
  C  C27  1  0.57651000  0.54217700  0.11320600  1
  C  C28  1  0.45980200  0.42963900  0.88973700  1
  C  C29  1  0.57444300  0.54227700  0.21383700  1
  C  C30  1  0.46073000  0.43131100  0.78904700  1
  C  C31  1  0.42336600  0.45786800  0.19979300  1
  C  C32  1  0.54237400  0.56909100  0.79756900  1
  C  C33  1  0.42213200  0.45764000  0.09880100  1
  C  C34  1  0.54065000  0.57047300  0.89817800  1
  C  C35  1  0.49931200  0.50005500  0.05393400  1
  C  C36  1  0.49973500  0.49996400  0.94595300  1
  C  C37  1  0.97730300  0.47794900  0.27262100  1
  C  C38  1  0.92535200  0.54942900  0.22864900  1
  C  C39  1  0.87979100  0.54294300  0.13371700  1
  C  C40  1  0.88593500  0.46485000  0.08223500  1
  C  C41  1  0.83555800  0.45676500  0.98019900  1
  C  C42  1  0.93929000  0.39390600  0.12555900  1
  C  C43  1  0.98554400  0.40065600  0.22029000  1
  C  C44  1  0.02270600  0.53181900  0.72747900  1
  C  C45  1  0.00552900  0.60966000  0.77619700  1
  C  C46  1  0.04879700  0.62253900  0.87109300  1
  C  C47  1  0.10932100  0.55735600  0.91802300  1
  C  C48  1  0.15703100  0.57100900  0.02023700  1
  C  C49  1  0.12531500  0.47892400  0.87005100  1
  C  C50  1  0.08122200  0.46577300  0.77540600  1
  N  N1  1  0.49941600  0.49927100  0.25592200  1
  N  N2  1  0.50252800  0.49977800  0.74433000  1
  O  O1  1  0.50038000  0.37140400  0.58391900  1
  O  O2  1  0.50420400  0.62833500  0.41643000  1
  O  O3  1  0.50341400  0.37110100  0.41627300  1
  O  O4  1  0.49463500  0.62857800  0.58348800  1
  O  O5  1  0.35099700  0.50088300  0.57150100  1
  O  O6  1  0.65031500  0.49630300  0.42885400  1
  O  O7  1  0.35017000  0.49696400  0.40352100  1
  O  O8  1  0.65108300  0.50561200  0.59673600  1
