# generated using pymatgen
data_Zn3H28C40(SO6)2
_symmetry_space_group_name_H-M   'P 1'
_cell_length_a   21.85084300
_cell_length_b   21.84557600
_cell_length_c   22.18548400
_cell_angle_alpha   119.48069200
_cell_angle_beta   119.49218600
_cell_angle_gamma   90.01200300
_symmetry_Int_Tables_number   1
_chemical_formula_structural   Zn3H28C40(SO6)2
_chemical_formula_sum   'Zn6 H56 C80 S4 O24'
_cell_volume   7602.36053062
_cell_formula_units_Z   2
loop_
 _symmetry_equiv_pos_site_id
 _symmetry_equiv_pos_as_xyz
  1  'x, y, z'
loop_
 _atom_site_type_symbol
 _atom_site_label
 _atom_site_symmetry_multiplicity
 _atom_site_fract_x
 _atom_site_fract_y
 _atom_site_fract_z
 _atom_site_occupancy
  Zn  Zn1  1  0.42789300  0.00119700  0.49546000  1
  Zn  Zn2  1  0.57102700  0.00341600  0.50489000  1
  Zn  Zn3  1  0.00194800  0.57398200  0.50530100  1
  Zn  Zn4  1  0.99724900  0.43049500  0.49515500  1
  Zn  Zn5  1  0.54013800  0.54199500  0.59394700  1
  Zn  Zn6  1  0.45900500  0.46249800  0.40617800  1
  H  H1  1  0.82492900  0.75086600  0.75474600  1
  H  H2  1  0.17036500  0.25670800  0.23945600  1
  H  H3  1  0.71261000  0.64778800  0.64406400  1
  H  H4  1  0.28376200  0.35790100  0.35150500  1
  H  H5  1  0.77878300  0.39423500  0.06452400  1
  H  H6  1  0.25320900  0.61289200  0.93661200  1
  H  H7  1  0.79227700  0.18824400  0.92521700  1
  H  H8  1  0.19883200  0.78415300  0.07451100  1
  H  H9  1  0.79829100  0.27648300  0.93866700  1
  H  H10  1  0.21972100  0.70086100  0.06169100  1
  H  H11  1  0.87258800  0.32892300  0.07863600  1
  H  H12  1  0.14022800  0.64553300  0.92155700  1
  H  H13  1  0.85092000  0.24110100  0.06446400  1
  H  H14  1  0.13452300  0.73347500  0.93517000  1
  H  H15  1  0.70751700  0.13794400  0.93964800  1
  H  H16  1  0.26008500  0.86131400  0.06001000  1
  H  H17  1  0.67819100  0.25290900  0.05874200  1
  H  H18  1  0.30303600  0.77810200  0.94151200  1
  H  H19  1  0.62598000  0.28784700  0.93878400  1
  H  H20  1  0.38620900  0.74613300  0.06116500  1
  H  H21  1  0.70782300  0.37420800  0.07796700  1
  H  H22  1  0.31134800  0.65659800  0.92314900  1
  H  H23  1  0.74793500  0.20722300  0.07613400  1
  H  H24  1  0.21870900  0.80061400  0.92365900  1
  H  H25  1  0.60238100  0.24221400  0.58952200  1
  H  H26  1  0.39845500  0.76076400  0.40753900  1
  H  H27  1  0.37392300  0.05787400  0.34111400  1
  H  H28  1  0.62132700  0.94835400  0.66155100  1
  H  H29  1  0.26438800  0.05703200  0.23307200  1
  H  H30  1  0.72916500  0.95140400  0.77326300  1
  H  H31  1  0.25589800  0.17098800  0.23776900  1
  H  H32  1  0.73899400  0.83784900  0.76924200  1
  H  H33  1  0.35697900  0.28445500  0.34868700  1
  H  H34  1  0.64087000  0.72275700  0.65578200  1
  H  H35  1  0.59960000  0.35300300  0.58897700  1
  H  H36  1  0.40142400  0.65013800  0.40824400  1
  H  H37  1  0.64903400  0.40352100  0.41041100  1
  H  H38  1  0.35119800  0.59954200  0.59203100  1
  H  H39  1  0.76030100  0.40182100  0.41065600  1
  H  H40  1  0.24016600  0.60136400  0.59214900  1
  H  H41  1  0.94192900  0.63306400  0.65745200  1
  H  H42  1  0.05616600  0.37352600  0.34183900  1
  H  H43  1  0.94024700  0.74327300  0.76241900  1
  H  H44  1  0.05589300  0.26465400  0.23366500  1
  H  H45  1  0.61255100  0.42168700  0.88771400  1
  H  H46  1  0.62480100  0.41075500  0.96781500  1
  H  H47  1  0.56038500  0.33596700  0.85716100  1
  H  H48  1  0.46182300  0.67518500  0.09305000  1
  H  H49  1  0.47755100  0.67189900  0.17888700  1
  H  H50  1  0.47560100  0.75763900  0.18641000  1
  H  H51  1  0.52651800  0.01280700  0.81437900  1
  H  H52  1  0.61934800  0.04155000  0.90328000  1
  H  H53  1  0.60373300  0.03584100  0.81159400  1
  H  H54  1  0.41531400  0.02145800  0.18806800  1
  H  H55  1  0.34896800  0.97283400  0.18813000  1
  H  H56  1  0.32027100  0.97725300  0.09831300  1
  C  C1  1  0.49664300  0.11412600  0.48537700  1
  C  C2  1  0.50219800  0.89045000  0.51484700  1
  C  C3  1  0.57696400  0.09383900  0.66365100  1
  C  C4  1  0.42198200  0.91074700  0.33669700  1
  C  C5  1  0.76140700  0.64108900  0.64453900  1
  C  C6  1  0.23552400  0.36488900  0.35215600  1
  C  C7  1  0.69799600  0.45194100  0.45954900  1
  C  C8  1  0.30176500  0.55172100  0.54195100  1
  C  C9  1  0.69673600  0.51391900  0.52067400  1
  C  C10  1  0.30226200  0.49049500  0.47936600  1
  C  C11  1  0.82495100  0.57388200  0.58499600  1
  C  C12  1  0.17348400  0.43152300  0.41429100  1
  C  C13  1  0.68284000  0.29887200  0.95389000  1
  C  C14  1  0.33353900  0.71957500  0.04696100  1
  C  C15  1  0.78140400  0.24131100  0.95407500  1
  C  C16  1  0.22118400  0.74153700  0.04603000  1
  C  C17  1  0.82690000  0.27980700  0.04839800  1
  C  C18  1  0.17302300  0.70276600  0.95164000  1
  C  C19  1  0.86152700  0.38414300  0.24679700  1
  C  C20  1  0.13774800  0.62025000  0.75360800  1
  C  C21  1  0.69963900  0.22594900  0.92090200  1
  C  C22  1  0.29982300  0.77842500  0.07946300  1
  C  C23  1  0.73778800  0.34931500  0.04831100  1
  C  C24  1  0.28032900  0.66642700  0.95257600  1
  C  C25  1  0.77737300  0.30390100  0.07943300  1
  C  C26  1  0.22206300  0.70037000  0.92092900  1
  C  C27  1  0.72037900  0.23591300  0.04563900  1
  C  C28  1  0.26000900  0.77859500  0.95447400  1
  C  C29  1  0.68338300  0.18376300  0.95184700  1
  C  C30  1  0.29561600  0.82750400  0.04817000  1
  C  C31  1  0.82288600  0.34840600  0.17122000  1
  C  C32  1  0.17646600  0.65590200  0.82916600  1
  C  C33  1  0.65482500  0.18039500  0.82909100  1
  C  C34  1  0.34446700  0.82407700  0.17127600  1
  C  C35  1  0.61878800  0.14155400  0.75349600  1
  C  C36  1  0.38028000  0.86295300  0.24686200  1
  C  C37  1  0.37260500  0.10963500  0.34657900  1
  C  C38  1  0.62323800  0.89684200  0.65661900  1
  C  C39  1  0.31008300  0.10819700  0.28393700  1
  C  C40  1  0.68473700  0.89950300  0.72124200  1
  C  C41  1  0.30552400  0.17181900  0.28635500  1
  C  C42  1  0.69002400  0.83608400  0.71916200  1
  C  C43  1  0.36427800  0.23653900  0.34996900  1
  C  C44  1  0.63284900  0.77033400  0.65396200  1
  C  C45  1  0.42904200  0.23882700  0.41265000  1
  C  C46  1  0.56887600  0.76675800  0.58925600  1
  C  C47  1  0.43171800  0.17507900  0.41256300  1
  C  C48  1  0.56579600  0.83042200  0.58916800  1
  C  C49  1  0.49385700  0.17696800  0.47750800  1
  C  C50  1  0.50485400  0.82754100  0.52250900  1
  C  C51  1  0.55399300  0.24061800  0.53906600  1
  C  C52  1  0.44596700  0.76301200  0.45925700  1
  C  C53  1  0.55185600  0.30346700  0.53916300  1
  C  C54  1  0.44830500  0.70026500  0.45932500  1
  C  C55  1  0.49010200  0.30383200  0.47690300  1
  C  C56  1  0.50907300  0.70077000  0.52328200  1
  C  C57  1  0.76112200  0.45046800  0.46018500  1
  C  C58  1  0.23878600  0.55331600  0.54160100  1
  C  C59  1  0.82412900  0.51139700  0.52126400  1
  C  C60  1  0.17513700  0.49320100  0.47939300  1
  C  C61  1  0.88738900  0.50884600  0.51413900  1
  C  C62  1  0.11186800  0.49570600  0.48645500  1
  C  C63  1  0.90892300  0.42553600  0.33667300  1
  C  C64  1  0.09028100  0.57891800  0.66376300  1
  C  C65  1  0.62605700  0.51071900  0.51369600  1
  C  C66  1  0.37301600  0.49369600  0.48636100  1
  C  C67  1  0.49247200  0.37487800  0.48453500  1
  C  C68  1  0.50675600  0.62967500  0.51565100  1
  C  C69  1  0.76075900  0.57596400  0.58392700  1
  C  C70  1  0.23742500  0.42931700  0.41479800  1
  C  C71  1  0.88968600  0.63389800  0.65083100  1
  C  C72  1  0.10808700  0.37248500  0.34767200  1
  C  C73  1  0.88968600  0.69679600  0.71178200  1
  C  C74  1  0.10697900  0.31035700  0.28495700  1
  C  C75  1  0.82531100  0.70086400  0.70774200  1
  C  C76  1  0.17089800  0.30609800  0.28799400  1
  C  C77  1  0.61433100  0.38132000  0.90458000  1
  C  C78  1  0.45116400  0.69633100  0.14265400  1
  C  C79  1  0.58406800  0.05000500  0.85295200  1
  C  C80  1  0.36524700  0.97278300  0.14802400  1
  S  S1  1  0.68880300  0.34394300  0.90557600  1
  S  S2  1  0.35198200  0.66855100  0.09543500  1
  S  S3  1  0.58395600  0.14553900  0.89874000  1
  S  S4  1  0.38728300  0.88871900  0.10108300  1
  O  O1  1  0.44273200  0.08554400  0.48403900  1
  O  O2  1  0.55626000  0.91913700  0.51644400  1
  O  O3  1  0.55393600  0.09048100  0.49573300  1
  O  O4  1  0.44492200  0.91408500  0.50451600  1
  O  O5  1  0.50433500  0.06956000  0.62109700  1
  O  O6  1  0.49460300  0.93497700  0.37926600  1
  O  O7  1  0.61368400  0.07483600  0.62859700  1
  O  O8  1  0.38523200  0.92983900  0.37173400  1
  O  O9  1  0.91640400  0.56287500  0.51599300  1
  O  O10  1  0.08277200  0.44157700  0.48441700  1
  O  O11  1  0.91097500  0.45149900  0.50388000  1
  O  O12  1  0.08825400  0.55301800  0.49663800  1
  O  O13  1  0.93068700  0.49830400  0.37984600  1
  O  O14  1  0.06854800  0.50615800  0.62060100  1
  O  O15  1  0.93014300  0.38842500  0.37115400  1
  O  O16  1  0.06903000  0.61605400  0.62930600  1
  O  O17  1  0.62597900  0.53633000  0.58106100  1
  O  O18  1  0.37319600  0.46830900  0.41911300  1
  O  O19  1  0.56484100  0.47905100  0.43844200  1
  O  O20  1  0.43426900  0.52528300  0.56160700  1
  O  O21  1  0.52432100  0.43572300  0.56016200  1
  O  O22  1  0.47499500  0.56880000  0.44003500  1
  O  O23  1  0.46601300  0.37578300  0.41755400  1
  O  O24  1  0.53300300  0.62867800  0.58252500  1
