# generated using pymatgen
data_VH20C40N2O9
_symmetry_space_group_name_H-M   'P 1'
_cell_length_a   6.32419800
_cell_length_b   30.29677000
_cell_length_c   33.85473100
_cell_angle_alpha   90.00000000
_cell_angle_beta   90.00000000
_cell_angle_gamma   90.00000000
_symmetry_Int_Tables_number   1
_chemical_formula_structural   VH20C40N2O9
_chemical_formula_sum   'V4 H80 C160 N8 O36'
_cell_volume   6486.66031306
_cell_formula_units_Z   4
loop_
 _symmetry_equiv_pos_site_id
 _symmetry_equiv_pos_as_xyz
  1  'x, y, z'
loop_
 _atom_site_type_symbol
 _atom_site_label
 _atom_site_symmetry_multiplicity
 _atom_site_fract_x
 _atom_site_fract_y
 _atom_site_fract_z
 _atom_site_occupancy
  V  V1  1  0.81408700  0.24467400  0.24960000  1
  V  V2  1  0.18591300  0.75532600  0.74960000  1
  V  V3  1  0.31408700  0.25532500  0.24960000  1
  V  V4  1  0.68591300  0.74467500  0.74960000  1
  H  H1  1  0.99764000  0.44792100  0.59341400  1
  H  H2  1  0.01200600  0.55158000  0.40604900  1
  H  H3  1  0.00236000  0.55207900  0.09341400  1
  H  H4  1  0.98799400  0.44842000  0.90604900  1
  H  H5  1  0.48799400  0.05158100  0.90604900  1
  H  H6  1  0.50235900  0.94792200  0.09341300  1
  H  H7  1  0.51200600  0.94841900  0.40604900  1
  H  H8  1  0.49764100  0.05207800  0.59341300  1
  H  H9  1  0.00065800  0.39220700  0.54043100  1
  H  H10  1  0.00296200  0.60729100  0.45901700  1
  H  H11  1  0.99934200  0.60779300  0.04043100  1
  H  H12  1  0.99703800  0.39270900  0.95901700  1
  H  H13  1  0.49703700  0.10729100  0.95901600  1
  H  H14  1  0.49934200  0.89220700  0.04043000  1
  H  H15  1  0.50296300  0.89270900  0.45901600  1
  H  H16  1  0.50065800  0.10779300  0.54043000  1
  H  H17  1  0.85505100  0.42947100  0.35335100  1
  H  H18  1  0.82044100  0.56911300  0.64463300  1
  H  H19  1  0.14494900  0.57052900  0.85335100  1
  H  H20  1  0.17955900  0.43088700  0.14463300  1
  H  H21  1  0.67955900  0.06911400  0.14463200  1
  H  H22  1  0.64495200  0.92947200  0.85335100  1
  H  H23  1  0.32044100  0.93088600  0.64463200  1
  H  H24  1  0.35504800  0.07052800  0.35335100  1
  H  H25  1  0.86987300  0.37386500  0.30099700  1
  H  H26  1  0.81264900  0.62487800  0.69683300  1
  H  H27  1  0.13012700  0.62613500  0.80099700  1
  H  H28  1  0.18735100  0.37512200  0.19683300  1
  H  H29  1  0.68735300  0.12487900  0.19683200  1
  H  H30  1  0.63012900  0.87386500  0.80099700  1
  H  H31  1  0.31264700  0.87512100  0.69683200  1
  H  H32  1  0.36987100  0.12613500  0.30099700  1
  H  H33  1  0.18454200  0.34206800  0.43058300  1
  H  H34  1  0.15916100  0.65828700  0.57045900  1
  H  H35  1  0.81545800  0.65793200  0.93058300  1
  H  H36  1  0.84083900  0.34171300  0.07045900  1
  H  H37  1  0.34083800  0.15828800  0.07045800  1
  H  H38  1  0.31545900  0.84206900  0.93058300  1
  H  H39  1  0.65916200  0.84171200  0.57045800  1
  H  H40  1  0.68454100  0.15793100  0.43058300  1
  H  H41  1  0.98345000  0.24173800  0.33973800  1
  H  H42  1  0.06823200  0.16652100  0.36024300  1
  H  H43  1  0.30135500  0.15370400  0.41706000  1
  H  H44  1  0.46607200  0.21662100  0.45123500  1
  H  H45  1  0.38737800  0.29212500  0.43027900  1
  H  H46  1  0.92202800  0.75799500  0.65867800  1
  H  H47  1  0.01155900  0.83342400  0.63953700  1
  H  H48  1  0.26523100  0.84681500  0.58600400  1
  H  H49  1  0.44353100  0.78430600  0.55368800  1
  H  H50  1  0.35986600  0.70858300  0.57336200  1
  H  H51  1  0.01655000  0.75826200  0.83973800  1
  H  H52  1  0.93176800  0.83347900  0.86024300  1
  H  H53  1  0.69864500  0.84629600  0.91706000  1
  H  H54  1  0.53392800  0.78337900  0.95123500  1
  H  H55  1  0.61262200  0.70787500  0.93027900  1
  H  H56  1  0.07797200  0.24200500  0.15867800  1
  H  H57  1  0.98844100  0.16657600  0.13953700  1
  H  H58  1  0.73476900  0.15318500  0.08600400  1
  H  H59  1  0.55646900  0.21569400  0.05368800  1
  H  H60  1  0.64013400  0.29141700  0.07336200  1
  H  H61  1  0.14013200  0.20858300  0.07336200  1
  H  H62  1  0.05646500  0.28430600  0.05368800  1
  H  H63  1  0.23476900  0.34681500  0.08600300  1
  H  H64  1  0.48844100  0.33342400  0.13953600  1
  H  H65  1  0.57797200  0.25799600  0.15867800  1
  H  H66  1  0.11262000  0.79212700  0.93027800  1
  H  H67  1  0.03392600  0.71662300  0.95123500  1
  H  H68  1  0.19864200  0.65370500  0.91706000  1
  H  H69  1  0.43176700  0.66652100  0.86024300  1
  H  H70  1  0.51654800  0.74173900  0.83973700  1
  H  H71  1  0.85986700  0.79141700  0.57336200  1
  H  H72  1  0.94353500  0.71569400  0.55368800  1
  H  H73  1  0.76523100  0.65318500  0.58600300  1
  H  H74  1  0.51155900  0.66657600  0.63953600  1
  H  H75  1  0.42202800  0.74200400  0.65867800  1
  H  H76  1  0.88738000  0.20787300  0.43027800  1
  H  H77  1  0.96607400  0.28337700  0.45123500  1
  H  H78  1  0.80135800  0.34629500  0.41706000  1
  H  H79  1  0.56823300  0.33347900  0.36024300  1
  H  H80  1  0.48345200  0.25826100  0.33973700  1
  C  C1  1  0.55167000  0.20552600  0.30462200  1
  C  C2  1  0.47979000  0.79449400  0.69471500  1
  C  C3  1  0.44833000  0.79447400  0.80462200  1
  C  C4  1  0.52021000  0.20550600  0.19471500  1
  C  C5  1  0.02020900  0.29449500  0.19471600  1
  C  C6  1  0.94833000  0.70552600  0.80462200  1
  C  C7  1  0.97979100  0.70550500  0.69471600  1
  C  C8  1  0.05167000  0.29447400  0.30462200  1
  C  C9  1  0.99722800  0.59026900  0.53526500  1
  C  C10  1  0.00816000  0.40922900  0.46420800  1
  C  C11  1  0.00277200  0.40973100  0.03526500  1
  C  C12  1  0.99184000  0.59077100  0.96420800  1
  C  C13  1  0.49184200  0.90923000  0.96420700  1
  C  C14  1  0.50277100  0.09027000  0.03526400  1
  C  C15  1  0.50815800  0.09077000  0.46420700  1
  C  C16  1  0.49722900  0.90973000  0.53526400  1
  C  C17  1  0.99890000  0.53403100  0.58278100  1
  C  C18  1  0.01571500  0.46545200  0.41669700  1
  C  C19  1  0.00110000  0.46596900  0.08278100  1
  C  C20  1  0.98428500  0.53454800  0.91669700  1
  C  C21  1  0.48428700  0.96545300  0.91669700  1
  C  C22  1  0.50110000  0.03403200  0.08278000  1
  C  C23  1  0.51571300  0.03454700  0.41669700  1
  C  C24  1  0.49890000  0.96596800  0.58278000  1
  C  C25  1  0.00036400  0.50247600  0.55340800  1
  C  C26  1  0.01002100  0.49702100  0.44605200  1
  C  C27  1  0.99963600  0.49752400  0.05340800  1
  C  C28  1  0.98997900  0.50297900  0.94605200  1
  C  C29  1  0.48998000  0.99702200  0.94605100  1
  C  C30  1  0.49963600  0.00247700  0.05340800  1
  C  C31  1  0.51002000  0.00297800  0.44605100  1
  C  C32  1  0.50036400  0.99752300  0.55340800  1
  C  C33  1  0.00320200  0.51530300  0.51452000  1
  C  C34  1  0.00652400  0.48420100  0.48494300  1
  C  C35  1  0.99679800  0.48469700  0.01452000  1
  C  C36  1  0.99347600  0.51579900  0.98494300  1
  C  C37  1  0.49347600  0.98420200  0.98494200  1
  C  C38  1  0.49679700  0.01530400  0.01452000  1
  C  C39  1  0.50652400  0.01579800  0.48494200  1
  C  C40  1  0.50320300  0.98469600  0.51452000  1
  C  C41  1  0.00208200  0.55940400  0.50535700  1
  C  C42  1  0.00578500  0.44010200  0.49410900  1
  C  C43  1  0.99791700  0.44059600  0.00535700  1
  C  C44  1  0.99421500  0.55989800  0.99410900  1
  C  C45  1  0.49421500  0.94010300  0.99410800  1
  C  C46  1  0.49791600  0.05940500  0.00535600  1
  C  C47  1  0.50578500  0.05989700  0.49410800  1
  C  C48  1  0.50208400  0.94059500  0.50535600  1
  C  C49  1  0.99992200  0.45816800  0.56282900  1
  C  C50  1  0.00924200  0.54133100  0.43663300  1
  C  C51  1  0.00007800  0.54183200  0.06282900  1
  C  C52  1  0.99075800  0.45866900  0.93663300  1
  C  C53  1  0.49075800  0.04133200  0.93663200  1
  C  C54  1  0.50007700  0.95816900  0.06282800  1
  C  C55  1  0.50924200  0.95866800  0.43663200  1
  C  C56  1  0.49992300  0.04183100  0.56282800  1
  C  C57  1  0.00155700  0.42693700  0.53312500  1
  C  C58  1  0.00420500  0.57256300  0.46633000  1
  C  C59  1  0.99844300  0.57306300  0.03312500  1
  C  C60  1  0.99579500  0.42743700  0.96633000  1
  C  C61  1  0.49579300  0.07256400  0.96632900  1
  C  C62  1  0.49844300  0.92693800  0.03312500  1
  C  C63  1  0.50420700  0.92743600  0.46632900  1
  C  C64  1  0.50155700  0.07306200  0.53312500  1
  C  C65  1  0.93251900  0.39835000  0.35897800  1
  C  C66  1  0.89567900  0.60061300  0.63970000  1
  C  C67  1  0.06748100  0.60165000  0.85897800  1
  C  C68  1  0.10432100  0.39938700  0.13970000  1
  C  C69  1  0.60432200  0.10061400  0.13969900  1
  C  C70  1  0.56748300  0.89835100  0.85897700  1
  C  C71  1  0.39567800  0.89938600  0.63969900  1
  C  C72  1  0.43251700  0.10164900  0.35897700  1
  C  C73  1  0.93668300  0.36670300  0.32968300  1
  C  C74  1  0.88719700  0.63232900  0.66888100  1
  C  C75  1  0.06331700  0.63329700  0.82968300  1
  C  C76  1  0.11280300  0.36767100  0.16888100  1
  C  C77  1  0.61280400  0.13233000  0.16888000  1
  C  C78  1  0.56331900  0.86670400  0.82968200  1
  C  C79  1  0.38719600  0.86767000  0.66888000  1
  C  C80  1  0.43668100  0.13329600  0.32968200  1
  C  C81  1  0.02916000  0.32625400  0.33669900  1
  C  C82  1  0.97530900  0.67335500  0.66265500  1
  C  C83  1  0.97084000  0.67374600  0.83669900  1
  C  C84  1  0.02469100  0.32664500  0.16265500  1
  C  C85  1  0.52469100  0.17335500  0.16265500  1
  C  C86  1  0.47084100  0.82625500  0.83669900  1
  C  C87  1  0.47530900  0.82664500  0.66265500  1
  C  C88  1  0.52915900  0.17374500  0.33669900  1
  C  C89  1  0.11387700  0.31703600  0.37337100  1
  C  C90  1  0.06951900  0.68297700  0.62687500  1
  C  C91  1  0.88612300  0.68296400  0.87337100  1
  C  C92  1  0.93048100  0.31702300  0.12687500  1
  C  C93  1  0.43048100  0.18297800  0.12687500  1
  C  C94  1  0.38612400  0.81703700  0.87337000  1
  C  C95  1  0.56951900  0.81702200  0.62687500  1
  C  C96  1  0.61387600  0.18296300  0.37337000  1
  C  C97  1  0.11492400  0.34916200  0.40226000  1
  C  C98  1  0.08274700  0.65081700  0.59809100  1
  C  C99  1  0.88507600  0.65083800  0.90226000  1
  C  C100  1  0.91725300  0.34918300  0.09809100  1
  C  C101  1  0.41725300  0.15081700  0.09809100  1
  C  C102  1  0.38507800  0.84916300  0.90225900  1
  C  C103  1  0.58274700  0.84918300  0.59809100  1
  C  C104  1  0.61492200  0.15083700  0.40225900  1
  C  C105  1  0.02263100  0.38976400  0.39536000  1
  C  C106  1  0.99422800  0.60968000  0.60419400  1
  C  C107  1  0.97736800  0.61023600  0.89536000  1
  C  C108  1  0.00577200  0.39032000  0.10419400  1
  C  C109  1  0.50577200  0.10968100  0.10419400  1
  C  C110  1  0.47737000  0.88976500  0.89536000  1
  C  C111  1  0.49422800  0.89031900  0.60419400  1
  C  C112  1  0.52263000  0.11023500  0.39536000  1
  C  C113  1  0.18261200  0.27218100  0.38308400  1
  C  C114  1  0.09574000  0.23664900  0.36329700  1
  C  C115  1  0.14057200  0.19417600  0.37522000  1
  C  C116  1  0.27202900  0.18698100  0.40699600  1
  C  C117  1  0.36250400  0.22226500  0.42633800  1
  C  C118  1  0.31736600  0.26480300  0.41453200  1
  C  C119  1  0.13775400  0.72804400  0.61788900  1
  C  C120  1  0.04234500  0.76334900  0.63659600  1
  C  C121  1  0.09002500  0.80593600  0.62541300  1
  C  C122  1  0.23284700  0.81345700  0.59546200  1
  C  C123  1  0.33114400  0.77839600  0.57716000  1
  C  C124  1  0.28318000  0.73574900  0.58821900  1
  C  C125  1  0.81738800  0.72781900  0.88308400  1
  C  C126  1  0.90426000  0.76335100  0.86329700  1
  C  C127  1  0.85942800  0.80582400  0.87522000  1
  C  C128  1  0.72797100  0.81301900  0.90699600  1
  C  C129  1  0.63749600  0.77773500  0.92633800  1
  C  C130  1  0.68263400  0.73519700  0.91453200  1
  C  C131  1  0.86224600  0.27195600  0.11788900  1
  C  C132  1  0.95765500  0.23665100  0.13659600  1
  C  C133  1  0.90997500  0.19406400  0.12541300  1
  C  C134  1  0.76715300  0.18654300  0.09546200  1
  C  C135  1  0.66885600  0.22160400  0.07716000  1
  C  C136  1  0.71682000  0.26425100  0.08821900  1
  C  C137  1  0.36224500  0.22804400  0.11788800  1
  C  C138  1  0.21681800  0.23575000  0.08821900  1
  C  C139  1  0.16885400  0.27839700  0.07716000  1
  C  C140  1  0.26715200  0.31345700  0.09546200  1
  C  C141  1  0.40997500  0.30593600  0.12541200  1
  C  C142  1  0.45765400  0.26335000  0.13659600  1
  C  C143  1  0.31738800  0.77218200  0.88308400  1
  C  C144  1  0.18263300  0.76480500  0.91453200  1
  C  C145  1  0.13749400  0.72226700  0.92633800  1
  C  C146  1  0.22797000  0.68698200  0.90699600  1
  C  C147  1  0.35942800  0.69417700  0.87522100  1
  C  C148  1  0.40426000  0.73665000  0.86329700  1
  C  C149  1  0.63775500  0.77195600  0.61788800  1
  C  C150  1  0.78318200  0.76425000  0.58821900  1
  C  C151  1  0.83114600  0.72160300  0.57716000  1
  C  C152  1  0.73284800  0.68654300  0.59546200  1
  C  C153  1  0.59002500  0.69406400  0.62541200  1
  C  C154  1  0.54234600  0.73665000  0.63659600  1
  C  C155  1  0.68261200  0.22781800  0.38308400  1
  C  C156  1  0.81736700  0.23519500  0.41453200  1
  C  C157  1  0.86250600  0.27773300  0.42633800  1
  C  C158  1  0.77203000  0.31301800  0.40699600  1
  C  C159  1  0.64057200  0.30582300  0.37522100  1
  C  C160  1  0.59574000  0.26335000  0.36329700  1
  N  N1  1  0.99772700  0.57737600  0.57348500  1
  N  N2  1  0.01552200  0.42211100  0.42601100  1
  N  N3  1  0.00227300  0.42262400  0.07348500  1
  N  N4  1  0.98447800  0.57788900  0.92601100  1
  N  N5  1  0.48448000  0.92211200  0.92601100  1
  N  N6  1  0.50227200  0.07737700  0.07348400  1
  N  N7  1  0.51552000  0.07788800  0.42601100  1
  N  N8  1  0.49772800  0.92262300  0.57348400  1
  O  O1  1  0.35302900  0.23167000  0.19596200  1
  O  O2  1  0.56424500  0.79869600  0.77290100  1
  O  O3  1  0.64697100  0.76833000  0.69596200  1
  O  O4  1  0.43575500  0.20130400  0.27290100  1
  O  O5  1  0.93575500  0.29869600  0.27290200  1
  O  O6  1  0.14697200  0.73166900  0.69596200  1
  O  O7  1  0.06424500  0.70130400  0.77290200  1
  O  O8  1  0.85302800  0.26833100  0.19596200  1
  O  O9  1  0.72636800  0.22816200  0.30358600  1
  O  O10  1  0.36355600  0.80260200  0.72660400  1
  O  O11  1  0.27363200  0.77183800  0.80358600  1
  O  O12  1  0.63644400  0.19739800  0.22660400  1
  O  O13  1  0.13644400  0.30260200  0.22660500  1
  O  O14  1  0.77363200  0.72816300  0.80358600  1
  O  O15  1  0.86355600  0.69739800  0.72660500  1
  O  O16  1  0.22636800  0.27183700  0.30358600  1
  O  O17  1  0.53979500  0.28405200  0.24888500  1
  O  O18  1  0.46020500  0.71594800  0.74888500  1
  O  O19  1  0.03979500  0.21594800  0.24888500  1
  O  O20  1  0.96020500  0.78405200  0.74888500  1
  O  O21  1  0.98537900  0.63327500  0.52599600  1
  O  O22  1  0.99689300  0.36620000  0.47341600  1
  O  O23  1  0.01462100  0.36672500  0.02599600  1
  O  O24  1  0.00310700  0.63380000  0.97341600  1
  O  O25  1  0.50311000  0.86620100  0.97341500  1
  O  O26  1  0.51462000  0.13327600  0.02599600  1
  O  O27  1  0.49689000  0.13379900  0.47341500  1
  O  O28  1  0.48538000  0.86672400  0.52599600  1
  O  O29  1  0.00348100  0.52131900  0.62076100  1
  O  O30  1  0.02675700  0.47815400  0.37876100  1
  O  O31  1  0.99651900  0.47868100  0.12076100  1
  O  O32  1  0.97324300  0.52184600  0.87876100  1
  O  O33  1  0.47324700  0.97815500  0.87876000  1
  O  O34  1  0.49652000  0.02132000  0.12076000  1
  O  O35  1  0.52675300  0.02184500  0.37876000  1
  O  O36  1  0.50348000  0.97868000  0.62076000  1
