# generated using pymatgen
data_Fe2H16C41(N2O9)2
_symmetry_space_group_name_H-M   'P 1'
_cell_length_a   12.15634800
_cell_length_b   17.10562200
_cell_length_c   13.05161100
_cell_angle_alpha   107.16421400
_cell_angle_beta   91.56667100
_cell_angle_gamma   107.08623800
_symmetry_Int_Tables_number   1
_chemical_formula_structural   Fe2H16C41(N2O9)2
_chemical_formula_sum   'Fe2 H16 C41 N4 O18'
_cell_volume   2459.25213879
_cell_formula_units_Z   1
loop_
 _symmetry_equiv_pos_site_id
 _symmetry_equiv_pos_as_xyz
  1  'x, y, z'
loop_
 _atom_site_type_symbol
 _atom_site_label
 _atom_site_symmetry_multiplicity
 _atom_site_fract_x
 _atom_site_fract_y
 _atom_site_fract_z
 _atom_site_occupancy
  Fe  Fe1  1  0.52831600  0.01834300  0.28816200  1
  Fe  Fe2  1  0.52477100  0.01835500  0.72564500  1
  H  H1  1  0.09608300  0.97729800  0.73246900  1
  H  H2  1  0.90903700  0.99108100  0.73857700  1
  H  H3  1  0.13136000  0.01648400  0.26007200  1
  H  H4  1  0.94358100  0.03047500  0.26477300  1
  H  H5  1  0.37708200  0.96994000  0.99645700  1
  H  H6  1  0.65472600  0.01736300  0.99980600  1
  H  H7  1  0.49092300  0.27859800  0.41812600  1
  H  H8  1  0.44106400  0.42479500  0.73050900  1
  H  H9  1  0.44736600  0.30988200  0.79995400  1
  H  H10  1  0.46757100  0.57425800  0.26103700  1
  H  H11  1  0.48311700  0.69531700  0.19855800  1
  H  H12  1  0.54148600  0.66436400  0.76966400  1
  H  H13  1  0.61817100  0.77872600  0.82250900  1
  H  H14  1  0.72663800  0.63669000  0.72473300  1
  H  H15  1  0.73377300  0.69311800  0.86722300  1
  H  H16  1  0.80294500  0.75129500  0.77852700  1
  C  C1  1  0.29028600  0.97425000  0.99288300  1
  C  C2  1  0.23550400  0.97382400  0.89867900  1
  C  C3  1  0.12341900  0.98169300  0.89911400  1
  C  C4  1  0.06209600  0.98254200  0.80827800  1
  C  C5  1  0.95283000  0.99066300  0.81143400  1
  C  C6  1  0.24298400  0.98878500  0.08769000  1
  C  C7  1  0.13365500  0.99730200  0.08946600  1
  C  C8  1  0.07257800  0.99209800  0.99507500  1
  C  C9  1  0.96229300  0.00104800  0.99831200  1
  C  C10  1  0.90231400  0.00002800  0.90576700  1
  C  C11  1  0.79295300  0.00950800  0.90926400  1
  C  C12  1  0.08551600  0.01146600  0.18519500  1
  C  C13  1  0.97565700  0.01758800  0.18742900  1
  C  C14  1  0.91164400  0.01034900  0.09398900  1
  C  C15  1  0.79897900  0.01480700  0.09483000  1
  C  C16  1  0.74329100  0.01666800  0.00288300  1
  C  C17  1  0.72989700  0.01270500  0.18562000  1
  C  C18  1  0.51019200  0.85856000  0.31034700  1
  C  C19  1  0.32203500  0.01197600  0.18570600  1
  C  C20  1  0.48093400  0.13674500  0.46338500  1
  C  C21  1  0.53590100  0.88353300  0.54847300  1
  C  C22  1  0.71454500  0.99415200  0.81361600  1
  C  C23  1  0.48007600  0.16001300  0.69593500  1
  C  C24  1  0.31004000  0.97688500  0.81094400  1
  C  C25  1  0.48136300  0.21852000  0.54087100  1
  C  C26  1  0.48338100  0.28635300  0.50258400  1
  C  C27  1  0.46791300  0.36086600  0.56947100  1
  C  C28  1  0.45261200  0.36732400  0.67588200  1
  C  C29  1  0.45576700  0.30152700  0.71549900  1
  C  C30  1  0.47143700  0.22698700  0.64910900  1
  C  C31  1  0.47466600  0.56852200  0.46283100  1
  C  C32  1  0.46662300  0.43246200  0.52884900  1
  C  C33  1  0.47987300  0.63657600  0.32011400  1
  C  C34  1  0.48831300  0.70617400  0.28462200  1
  C  C35  1  0.50382400  0.78764700  0.35646300  1
  C  C36  1  0.50972300  0.79790400  0.46722200  1
  C  C37  1  0.49970300  0.72674800  0.50267300  1
  C  C38  1  0.48438300  0.64545700  0.42872500  1
  C  C39  1  0.51766700  0.73933500  0.61900600  1
  C  C40  1  0.61661200  0.71714200  0.76232000  1
  C  C41  1  0.72739900  0.69828300  0.78468800  1
  N  N1  1  0.42341800  0.49378400  0.58538400  1
  N  N2  1  0.42657600  0.56036000  0.55240900  1
  N  N3  1  0.51435300  0.50556000  0.40416600  1
  N  N4  1  0.51041800  0.43845500  0.43670800  1
  O  O1  1  0.64328300  0.04418100  0.18855100  1
  O  O2  1  0.49347300  0.84030300  0.20505300  1
  O  O3  1  0.73755200  0.96558300  0.24700100  1
  O  O4  1  0.53211500  0.93921000  0.37161700  1
  O  O5  1  0.37371200  0.95697900  0.19716700  1
  O  O6  1  0.36867400  0.09416200  0.23935300  1
  O  O7  1  0.55819000  0.13608600  0.39541300  1
  O  O8  1  0.39805500  0.06517600  0.45615400  1
  O  O9  1  0.46092300  0.90065800  0.61555100  1
  O  O10  1  0.63760300  0.94150100  0.55838700  1
  O  O11  1  0.68875200  0.05939100  0.79757200  1
  O  O12  1  0.63793600  0.91749900  0.77531300  1
  O  O13  1  0.26873700  0.94915800  0.70833600  1
  O  O14  1  0.53146400  0.10329300  0.64880200  1
  O  O15  1  0.42297800  0.00671200  0.83974100  1
  O  O16  1  0.44164700  0.15989600  0.78880600  1
  O  O17  1  0.44452200  0.75590800  0.67624000  1
  O  O18  1  0.60836600  0.72247300  0.65959000  1
