# generated using pymatgen
data_Cu3H9C26ClO12
_symmetry_space_group_name_H-M   'P 1'
_cell_length_a   28.71882600
_cell_length_b   18.34825000
_cell_length_c   18.34958000
_cell_angle_alpha   90.00000000
_cell_angle_beta   48.81058900
_cell_angle_gamma   90.00000000
_symmetry_Int_Tables_number   1
_chemical_formula_structural   Cu3H9C26ClO12
_chemical_formula_sum   'Cu12 H36 C104 Cl4 O48'
_cell_volume   7276.37551685
_cell_formula_units_Z   4
loop_
 _symmetry_equiv_pos_site_id
 _symmetry_equiv_pos_as_xyz
  1  'x, y, z'
loop_
 _atom_site_type_symbol
 _atom_site_label
 _atom_site_symmetry_multiplicity
 _atom_site_fract_x
 _atom_site_fract_y
 _atom_site_fract_z
 _atom_site_occupancy
  Cu  Cu1  1  0.99999100  0.43349000  0.00000800  1
  Cu  Cu2  1  0.99999200  0.57613200  0.00000800  1
  Cu  Cu3  1  0.49999100  0.93349000  0.00000800  1
  Cu  Cu4  1  0.49999200  0.07613200  0.00000800  1
  Cu  Cu5  1  0.49471600  0.50970700  0.57776400  1
  Cu  Cu6  1  0.50526700  0.50970700  0.42225500  1
  Cu  Cu7  1  0.99471600  0.00970700  0.57776400  1
  Cu  Cu8  1  0.00526700  0.00970700  0.42225500  1
  Cu  Cu9  1  0.06045700  0.50944800  0.43717700  1
  Cu  Cu10  1  0.93952800  0.50944900  0.56283700  1
  Cu  Cu11  1  0.56045700  0.00944800  0.43717700  1
  Cu  Cu12  1  0.43952800  0.00944900  0.56283700  1
  H  H1  1  0.13801700  0.54688000  0.72198100  1
  H  H2  1  0.86196700  0.54688500  0.27803400  1
  H  H3  1  0.63801700  0.04688000  0.72198100  1
  H  H4  1  0.36196700  0.04688500  0.27803400  1
  H  H5  1  0.19210200  0.61328200  0.57319300  1
  H  H6  1  0.80788200  0.61328700  0.42682200  1
  H  H7  1  0.69210200  0.11328200  0.57319300  1
  H  H8  1  0.30788200  0.11328700  0.42682200  1
  H  H9  1  0.30231200  0.64185900  0.47335400  1
  H  H10  1  0.69767200  0.64186200  0.52666200  1
  H  H11  1  0.80231200  0.14185900  0.47335400  1
  H  H12  1  0.19767200  0.14186200  0.52666200  1
  H  H13  1  0.35871200  0.60049300  0.51991000  1
  H  H14  1  0.64127200  0.60049500  0.48010800  1
  H  H15  1  0.85871200  0.10049300  0.51991000  1
  H  H16  1  0.14127200  0.10049500  0.48010800  1
  H  H17  1  0.30620600  0.45471000  0.78215800  1
  H  H18  1  0.69377700  0.45471000  0.21786100  1
  H  H19  1  0.80620600  0.95471000  0.78215800  1
  H  H20  1  0.19377700  0.95471000  0.21786100  1
  H  H21  1  0.19351900  0.33452000  0.87618300  1
  H  H22  1  0.12356100  0.35929600  0.16393600  1
  H  H23  1  0.14068700  0.49159100  0.13864700  1
  H  H24  1  0.18244700  0.54561400  0.98337400  1
  H  H25  1  0.80644600  0.33451900  0.12384300  1
  H  H26  1  0.87641200  0.35930000  0.83608600  1
  H  H27  1  0.85930500  0.49159800  0.86136700  1
  H  H28  1  0.81755000  0.54561900  0.01663600  1
  H  H29  1  0.69351900  0.83452000  0.87618300  1
  H  H30  1  0.62356100  0.85929600  0.16393600  1
  H  H31  1  0.64068700  0.99159100  0.13864700  1
  H  H32  1  0.68244700  0.04561400  0.98337400  1
  H  H33  1  0.30644600  0.83451900  0.12384300  1
  H  H34  1  0.37641200  0.85930000  0.83608600  1
  H  H35  1  0.35930500  0.99159800  0.86136700  1
  H  H36  1  0.31755000  0.04561900  0.01663600  1
  C  C1  1  0.99919400  0.50504700  0.86236000  1
  C  C2  1  0.00078900  0.50504700  0.13765600  1
  C  C3  1  0.49919400  0.00504700  0.86236000  1
  C  C4  1  0.50078900  0.00504700  0.13765600  1
  C  C5  1  0.11750900  0.50430700  0.87599700  1
  C  C6  1  0.88247400  0.50430900  0.12401900  1
  C  C7  1  0.61750900  0.00430700  0.87599700  1
  C  C8  1  0.38247400  0.00430900  0.12401900  1
  C  C9  1  0.18629100  0.55840100  0.68132700  1
  C  C10  1  0.81369300  0.55840500  0.31868800  1
  C  C11  1  0.68629100  0.05840100  0.68132700  1
  C  C12  1  0.31369300  0.05840500  0.31868800  1
  C  C13  1  0.21694100  0.59523500  0.59542800  1
  C  C14  1  0.78304300  0.59523900  0.40458700  1
  C  C15  1  0.71694100  0.09523500  0.59542800  1
  C  C16  1  0.28304300  0.09523900  0.40458700  1
  C  C17  1  0.27865200  0.61063300  0.53920000  1
  C  C18  1  0.72133200  0.61063600  0.46081600  1
  C  C19  1  0.77865200  0.11063300  0.53920000  1
  C  C20  1  0.22133200  0.11063600  0.46081600  1
  C  C21  1  0.31073400  0.58521800  0.56560900  1
  C  C22  1  0.68925000  0.58522000  0.43440800  1
  C  C23  1  0.81073400  0.08521800  0.56560900  1
  C  C24  1  0.18925000  0.08522000  0.43440800  1
  C  C25  1  0.28125300  0.54397100  0.64936100  1
  C  C26  1  0.71873100  0.54397300  0.35065700  1
  C  C27  1  0.78125300  0.04397100  0.64936100  1
  C  C28  1  0.21873100  0.04397300  0.35065700  1
  C  C29  1  0.21732800  0.53565600  0.71179300  1
  C  C30  1  0.78265600  0.53566000  0.28822400  1
  C  C31  1  0.71732800  0.03565600  0.71179300  1
  C  C32  1  0.28265600  0.03566000  0.28822400  1
  C  C33  1  0.18549300  0.50381100  0.80276900  1
  C  C34  1  0.81449100  0.50381400  0.19724700  1
  C  C35  1  0.68549300  0.00381100  0.80276900  1
  C  C36  1  0.31449100  0.00381400  0.19724700  1
  C  C37  1  0.21867400  0.47508900  0.82641900  1
  C  C38  1  0.78130900  0.47509100  0.17359800  1
  C  C39  1  0.71867400  0.97508900  0.82641900  1
  C  C40  1  0.28130900  0.97509100  0.17359800  1
  C  C41  1  0.28192200  0.47884100  0.76173800  1
  C  C42  1  0.71806100  0.47884200  0.23828100  1
  C  C43  1  0.78192200  0.97884100  0.76173800  1
  C  C44  1  0.21806100  0.97884200  0.23828100  1
  C  C45  1  0.31389500  0.51289900  0.67357800  1
  C  C46  1  0.68608800  0.51290000  0.32644000  1
  C  C47  1  0.81389500  0.01289900  0.67357800  1
  C  C48  1  0.18608800  0.01290000  0.32644000  1
  C  C49  1  0.00020400  0.50606600  0.78267200  1
  C  C50  1  0.99978100  0.50606500  0.21734300  1
  C  C51  1  0.50020400  0.00606600  0.78267200  1
  C  C52  1  0.49978100  0.00606500  0.21734300  1
  C  C53  1  0.00073400  0.50740000  0.71619300  1
  C  C54  1  0.99925100  0.50740000  0.28382100  1
  C  C55  1  0.50073400  0.00740000  0.71619300  1
  C  C56  1  0.49925100  0.00740000  0.28382100  1
  C  C57  1  0.49999100  0.64954700  0.50000900  1
  C  C58  1  0.49999200  0.36971800  0.50000900  1
  C  C59  1  0.99999100  0.14954700  0.50000900  1
  C  C60  1  0.99999200  0.86971800  0.50000900  1
  C  C61  1  0.38166900  0.51303300  0.60925100  1
  C  C62  1  0.61831400  0.51303400  0.39076800  1
  C  C63  1  0.88166900  0.01303300  0.60925100  1
  C  C64  1  0.11831400  0.01303400  0.39076800  1
  C  C65  1  0.99999300  0.64749000  0.50000700  1
  C  C66  1  0.99999200  0.37148000  0.50000800  1
  C  C67  1  0.49999300  0.14749000  0.50000700  1
  C  C68  1  0.49999200  0.87148000  0.50000800  1
  C  C69  1  0.00072700  0.50892800  0.63755200  1
  C  C70  1  0.99925800  0.50892800  0.36246200  1
  C  C71  1  0.50072700  0.00892800  0.63755200  1
  C  C72  1  0.49925800  0.00892800  0.36246200  1
  C  C73  1  0.49999200  0.72769400  0.50000900  1
  C  C74  1  0.49999200  0.29145700  0.50000800  1
  C  C75  1  0.99999200  0.22769400  0.50000900  1
  C  C76  1  0.99999200  0.79145700  0.50000800  1
  C  C77  1  0.99999200  0.29333300  0.50000800  1
  C  C78  1  0.99999300  0.72575000  0.50000800  1
  C  C79  1  0.49999200  0.79333300  0.50000800  1
  C  C80  1  0.49999300  0.22575000  0.50000800  1
  C  C81  1  0.18883500  0.44363000  0.92125200  1
  C  C82  1  0.18081800  0.36917700  0.93450100  1
  C  C83  1  0.15673700  0.33896600  0.02200500  1
  C  C84  1  0.14197400  0.38298900  0.09557100  1
  C  C85  1  0.15136700  0.45717900  0.08154100  1
  C  C86  1  0.17455900  0.48752400  0.99459300  1
  C  C87  1  0.81114700  0.44363100  0.07876600  1
  C  C88  1  0.81915400  0.36917800  0.06552200  1
  C  C89  1  0.84323200  0.33896700  0.97801900  1
  C  C90  1  0.85800200  0.38299200  0.90444900  1
  C  C91  1  0.84862000  0.45718300  0.91847500  1
  C  C92  1  0.82543100  0.48752800  0.00542100  1
  C  C93  1  0.68883500  0.94363000  0.92125200  1
  C  C94  1  0.68081800  0.86917700  0.93450100  1
  C  C95  1  0.65673700  0.83896600  0.02200500  1
  C  C96  1  0.64197400  0.88298900  0.09557100  1
  C  C97  1  0.65136700  0.95717900  0.08154100  1
  C  C98  1  0.67455900  0.98752400  0.99459300  1
  C  C99  1  0.31114700  0.94363100  0.07876600  1
  C  C100  1  0.31915400  0.86917800  0.06552200  1
  C  C101  1  0.34323200  0.83896700  0.97801900  1
  C  C102  1  0.35800200  0.88299200  0.90444900  1
  C  C103  1  0.34862000  0.95718300  0.91847500  1
  C  C104  1  0.32543100  0.98752800  0.00542100  1
  Cl  Cl1  1  0.14599600  0.24457200  0.03907700  1
  Cl  Cl2  1  0.85395900  0.24457100  0.96095400  1
  Cl  Cl3  1  0.64599600  0.74457200  0.03907700  1
  Cl  Cl4  1  0.35395900  0.74457100  0.96095400  1
  O  O1  1  0.01533500  0.44449000  0.87978800  1
  O  O2  1  0.01721300  0.56516500  0.08622700  1
  O  O3  1  0.98464700  0.44449000  0.12022900  1
  O  O4  1  0.98277100  0.56516500  0.91378800  1
  O  O5  1  0.51533500  0.94449000  0.87978800  1
  O  O6  1  0.51721300  0.06516500  0.08622700  1
  O  O7  1  0.48464700  0.94449000  0.12022900  1
  O  O8  1  0.48277100  0.06516500  0.91378800  1
  O  O9  1  0.08857400  0.44446800  0.92664200  1
  O  O10  1  0.91178800  0.56507500  0.11119200  1
  O  O11  1  0.91140900  0.44446900  0.07337500  1
  O  O12  1  0.08819600  0.56507300  0.88882400  1
  O  O13  1  0.58857400  0.94446800  0.92664200  1
  O  O14  1  0.41178800  0.06507500  0.11119200  1
  O  O15  1  0.41140900  0.94446900  0.07337500  1
  O  O16  1  0.58819600  0.06507300  0.88882400  1
  O  O17  1  0.49929300  0.61564500  0.56361900  1
  O  O18  1  0.50337200  0.40365400  0.43372800  1
  O  O19  1  0.50069000  0.61564500  0.43640000  1
  O  O20  1  0.49661200  0.40365400  0.56629000  1
  O  O21  1  0.99929300  0.11564500  0.56361900  1
  O  O22  1  0.00337200  0.90365400  0.43372800  1
  O  O23  1  0.00069000  0.11564500  0.43640000  1
  O  O24  1  0.99661200  0.90365400  0.56629000  1
  O  O25  1  0.40594100  0.50893800  0.64961200  1
  O  O26  1  0.59404200  0.50893900  0.35040600  1
  O  O27  1  0.90594100  0.00893800  0.64961200  1
  O  O28  1  0.09404200  0.00893900  0.35040600  1
  O  O29  1  0.41495600  0.50560300  0.51567000  1
  O  O30  1  0.58502700  0.50560400  0.48434900  1
  O  O31  1  0.91495600  0.00560300  0.51567000  1
  O  O32  1  0.08502700  0.00560400  0.48434900  1
  O  O33  1  0.05120100  0.61344100  0.46680200  1
  O  O34  1  0.94902500  0.40546800  0.57297700  1
  O  O35  1  0.94878400  0.61344200  0.53321200  1
  O  O36  1  0.05096000  0.40546700  0.42703800  1
  O  O37  1  0.55120100  0.11344100  0.46680200  1
  O  O38  1  0.44902500  0.90546800  0.57297700  1
  O  O39  1  0.44878400  0.11344200  0.53321200  1
  O  O40  1  0.55096000  0.90546700  0.42703800  1
  O  O41  1  0.05170600  0.48939000  0.55029400  1
  O  O42  1  0.94827800  0.48939100  0.44972100  1
  O  O43  1  0.55170600  0.98939000  0.55029400  1
  O  O44  1  0.44827800  0.98939100  0.44972100  1
  O  O45  1  0.94956200  0.52937100  0.65645600  1
  O  O46  1  0.05042300  0.52937100  0.34355900  1
  O  O47  1  0.44956200  0.02937100  0.65645600  1
  O  O48  1  0.55042300  0.02937100  0.34355900  1
