# generated using pymatgen
data_ZnH32C45(NO2)2
_symmetry_space_group_name_H-M   'P 1'
_cell_length_a   14.98399000
_cell_length_b   16.14019400
_cell_length_c   17.14800700
_cell_angle_alpha   89.65033400
_cell_angle_beta   93.56065800
_cell_angle_gamma   90.00822700
_symmetry_Int_Tables_number   1
_chemical_formula_structural   ZnH32C45(NO2)2
_chemical_formula_sum   'Zn2 H64 C90 N4 O8'
_cell_volume   4139.06845087
_cell_formula_units_Z   2
loop_
 _symmetry_equiv_pos_site_id
 _symmetry_equiv_pos_as_xyz
  1  'x, y, z'
loop_
 _atom_site_type_symbol
 _atom_site_label
 _atom_site_symmetry_multiplicity
 _atom_site_fract_x
 _atom_site_fract_y
 _atom_site_fract_z
 _atom_site_occupancy
  Zn  Zn1  1  0.61404200  0.50790400  0.50349200  1
  Zn  Zn2  1  0.41172800  0.50376900  0.50716800  1
  H  H1  1  0.58302200  0.41405700  0.11144400  1
  H  H2  1  0.39965800  0.53361400  0.89667800  1
  H  H3  1  0.67320000  0.46618600  0.90335700  1
  H  H4  1  0.38471000  0.60255300  0.11465800  1
  H  H5  1  0.64753100  0.92326600  0.53086200  1
  H  H6  1  0.37605700  0.08868000  0.47384100  1
  H  H7  1  0.92348000  0.37900700  0.48510000  1
  H  H8  1  0.10253900  0.63073600  0.52885100  1
  H  H9  1  0.59268100  0.37271200  0.32414700  1
  H  H10  1  0.67177000  0.39578800  0.25263300  1
  H  H11  1  0.44425200  0.29893600  0.26076600  1
  H  H12  1  0.40726900  0.16363300  0.20271000  1
  H  H13  1  0.52048400  0.08641200  0.13489400  1
  H  H14  1  0.67104100  0.14468900  0.12522500  1
  H  H15  1  0.70856400  0.27977500  0.18254800  1
  H  H16  1  0.32565700  0.53851800  0.73627700  1
  H  H17  1  0.39664500  0.61721000  0.69641900  1
  H  H18  1  0.22069700  0.59232000  0.81668800  1
  H  H19  1  0.16836100  0.70215400  0.90058700  1
  H  H20  1  0.26451900  0.82201500  0.93329300  1
  H  H21  1  0.41362800  0.83192500  0.88163500  1
  H  H22  1  0.46686500  0.72210500  0.79767000  1
  H  H23  1  0.75583300  0.50277400  0.80548700  1
  H  H24  1  0.71374300  0.54436000  0.71619200  1
  H  H25  1  0.85342000  0.45719400  0.68984800  1
  H  H26  1  0.90036900  0.32600400  0.63438900  1
  H  H27  1  0.80179800  0.20462800  0.63531600  1
  H  H28  1  0.65406400  0.21556100  0.68970400  1
  H  H29  1  0.60592400  0.34469600  0.74501800  1
  H  H30  1  0.37113200  0.67446800  0.22906000  1
  H  H31  1  0.41387100  0.63998100  0.32192600  1
  H  H32  1  0.25379200  0.70405700  0.33320100  1
  H  H33  1  0.10158000  0.66209400  0.35975400  1
  H  H34  1  0.04718000  0.52300400  0.32392900  1
  H  H35  1  0.14650100  0.42513600  0.26246000  1
  H  H36  1  0.29713300  0.46450900  0.23551400  1
  H  H37  1  0.70855600  0.05825500  0.59778500  1
  H  H38  1  0.67659300  0.15231400  0.54847200  1
  H  H39  1  0.83978400  0.00412500  0.55530800  1
  H  H40  1  0.94467200  0.98247300  0.45377800  1
  H  H41  1  0.90853600  0.03220400  0.31968000  1
  H  H42  1  0.76733900  0.10638200  0.28800700  1
  H  H43  1  0.66277900  0.13074800  0.38991500  1
  H  H44  1  0.35094500  0.88081200  0.41455400  1
  H  H45  1  0.29367100  0.97267800  0.44143100  1
  H  H46  1  0.29974400  0.76334200  0.47797200  1
  H  H47  1  0.24170800  0.69453500  0.59196600  1
  H  H48  1  0.21347300  0.77477000  0.70926700  1
  H  H49  1  0.24565900  0.92400800  0.71323300  1
  H  H50  1  0.30493000  0.99349200  0.59994100  1
  H  H51  1  0.17030100  0.35062300  0.47860100  1
  H  H52  1  0.06744600  0.32105200  0.42821100  1
  H  H53  1  0.00146900  0.20416300  0.47949400  1
  H  H54  1  0.97357100  0.11206500  0.58936300  1
  H  H55  1  0.03474700  0.14533200  0.72171700  1
  H  H56  1  0.12500200  0.27117900  0.74414400  1
  H  H57  1  0.15405700  0.36366500  0.63456600  1
  H  H58  1  0.95960400  0.69019900  0.58392200  1
  H  H59  1  0.85627600  0.66059800  0.53424700  1
  H  H60  1  0.04172400  0.79511900  0.52767700  1
  H  H61  1  0.07419700  0.88229100  0.41557000  1
  H  H62  1  0.99845300  0.85651900  0.28667300  1
  H  H63  1  0.89112500  0.74176100  0.26972300  1
  H  H64  1  0.85962100  0.65279000  0.38132600  1
  C  C1  1  0.51604100  0.34390800  0.51036400  1
  C  C2  1  0.50948900  0.66771900  0.49956500  1
  C  C3  1  0.52702400  0.51277400  0.65904400  1
  C  C4  1  0.49891100  0.50058700  0.35234500  1
  C  C5  1  0.53464500  0.51747100  0.74620900  1
  C  C6  1  0.49081200  0.50043500  0.26631100  1
  C  C7  1  0.46001900  0.53919600  0.78760700  1
  C  C8  1  0.54266600  0.44724500  0.22352500  1
  C  C9  1  0.46040000  0.52385300  0.86727600  1
  C  C10  1  0.54037700  0.45427100  0.14286600  1
  C  C11  1  0.53682800  0.49594500  0.90829300  1
  C  C12  1  0.48312200  0.51005700  0.10385400  1
  C  C13  1  0.61295000  0.48414800  0.86955900  1
  C  C14  1  0.42901800  0.55914500  0.14580000  1
  C  C15  1  0.61400300  0.49566300  0.78975600  1
  C  C16  1  0.43311900  0.55620800  0.22627600  1
  C  C17  1  0.58791000  0.95986000  0.51821000  1
  C  C18  1  0.43545800  0.05174000  0.48624700  1
  C  C19  1  0.50784200  0.92024900  0.50016500  1
  C  C20  1  0.51538400  0.09135100  0.50526500  1
  C  C21  1  0.43082000  0.96623800  0.48395900  1
  C  C22  1  0.59256900  0.04517300  0.52087200  1
  C  C23  1  0.50683500  0.83127200  0.49856500  1
  C  C24  1  0.51632600  0.18037100  0.50762000  1
  C  C25  1  0.51706000  0.25501900  0.50938300  1
  C  C26  1  0.50750100  0.75660200  0.49840300  1
  C  C27  1  0.96324300  0.43425100  0.49509000  1
  C  C28  1  0.06276200  0.57548700  0.51939500  1
  C  C29  1  0.92067000  0.50873900  0.50557000  1
  C  C30  1  0.10534100  0.50118300  0.50872200  1
  C  C31  1  0.97077200  0.58029100  0.51773800  1
  C  C32  1  0.05532200  0.42958100  0.49639200  1
  C  C33  1  0.82467000  0.50951600  0.50322400  1
  C  C34  1  0.20126300  0.50119300  0.50947800  1
  C  C35  1  0.60091000  0.38034600  0.26100100  1
  C  C36  1  0.57839300  0.29864600  0.22474000  1
  C  C37  1  0.49411400  0.26552300  0.23056900  1
  C  C38  1  0.47332000  0.18943600  0.19816200  1
  C  C39  1  0.53678800  0.14611400  0.16019600  1
  C  C40  1  0.62116000  0.17880500  0.15474100  1
  C  C41  1  0.64209400  0.25489500  0.18705400  1
  C  C42  1  0.37985300  0.58385300  0.75011100  1
  C  C43  1  0.34775500  0.64966800  0.80234300  1
  C  C44  1  0.26365400  0.64458800  0.83086600  1
  C  C45  1  0.23403900  0.70632700  0.87811400  1
  C  C46  1  0.28792200  0.77353700  0.89643400  1
  C  C47  1  0.37152200  0.77905600  0.86752100  1
  C  C48  1  0.40140100  0.71727200  0.82048200  1
  C  C49  1  0.70463300  0.49218100  0.75714600  1
  C  C50  1  0.72680500  0.41109700  0.72103700  1
  C  C51  1  0.80904500  0.40436600  0.68955600  1
  C  C52  1  0.83567200  0.33062600  0.65847900  1
  C  C53  1  0.78023500  0.26272000  0.65885800  1
  C  C54  1  0.69763600  0.26893500  0.68952600  1
  C  C55  1  0.67063000  0.34274700  0.72071400  1
  C  C56  1  0.37875300  0.61868400  0.26691800  1
  C  C57  1  0.28682800  0.58846400  0.28239300  1
  C  C58  1  0.23058300  0.64264300  0.31739000  1
  C  C59  1  0.14483100  0.61928400  0.33214700  1
  C  C60  1  0.11443900  0.54133900  0.31211800  1
  C  C61  1  0.17019800  0.48653500  0.27774900  1
  C  C62  1  0.25609700  0.50964000  0.26263600  1
  C  C63  1  0.68126900  0.08456400  0.54139400  1
  C  C64  1  0.74382300  0.06812700  0.47909300  1
  C  C65  1  0.82303600  0.02644000  0.49666700  1
  C  C66  1  0.88219300  0.01396600  0.43948800  1
  C  C67  1  0.86206600  0.04221400  0.36445700  1
  C  C68  1  0.78294600  0.08372700  0.34672300  1
  C  C69  1  0.72407400  0.09707000  0.40404000  1
  C  C70  1  0.34309600  0.92532400  0.46264400  1
  C  C71  1  0.30769500  0.88284000  0.53186100  1
  C  C72  1  0.28863300  0.79907700  0.52957300  1
  C  C73  1  0.25560900  0.76022300  0.59354000  1
  C  C74  1  0.24011000  0.80510200  0.65943500  1
  C  C75  1  0.25809800  0.88880000  0.66159800  1
  C  C76  1  0.29172100  0.92768900  0.59790100  1
  C  C77  1  0.09717400  0.34691700  0.48364800  1
  C  C78  1  0.07939700  0.29032500  0.54992700  1
  C  C79  1  0.02900300  0.21938600  0.53739300  1
  C  C80  1  0.01309500  0.16743000  0.59913100  1
  C  C81  1  0.04740600  0.18607200  0.67337900  1
  C  C82  1  0.09792400  0.25663300  0.68594500  1
  C  C83  1  0.11402300  0.30863600  0.62431600  1
  C  C84  1  0.92944200  0.66343000  0.52903800  1
  C  C85  1  0.94821300  0.71827700  0.46177800  1
  C  C86  1  0.00802600  0.78313900  0.47130300  1
  C  C87  1  0.02660900  0.83217200  0.40822900  1
  C  C88  1  0.98425600  0.81766300  0.33594500  1
  C  C89  1  0.92409100  0.75336200  0.32646300  1
  C  C90  1  0.90645100  0.70343900  0.38919400  1
  N  N1  1  0.54125600  0.48478500  0.99036200  1
  N  N2  1  0.47855300  0.51927000  0.02161800  1
  N  N3  1  0.27847500  0.50179900  0.50956600  1
  N  N4  1  0.74737000  0.50965600  0.50183300  1
  O  O1  1  0.59190300  0.38412200  0.50803200  1
  O  O2  1  0.43369900  0.62753100  0.50254000  1
  O  O3  1  0.43838900  0.38078400  0.51075900  1
  O  O4  1  0.58741000  0.63093600  0.49933500  1
  O  O5  1  0.59953800  0.51227300  0.62006200  1
  O  O6  1  0.42548800  0.49969000  0.39046600  1
  O  O7  1  0.44722500  0.50712300  0.62307500  1
  O  O8  1  0.57933000  0.50427400  0.38747400  1
