# generated using pymatgen
data_ZnH3C8(NO2)2
_symmetry_space_group_name_H-M   'P 1'
_cell_length_a   8.79237800
_cell_length_b   10.15207500
_cell_length_c   8.56150900
_cell_angle_alpha   90.00000000
_cell_angle_beta   97.78411800
_cell_angle_gamma   90.00000000
_symmetry_Int_Tables_number   1
_chemical_formula_structural   ZnH3C8(NO2)2
_chemical_formula_sum   'Zn2 H6 C16 N4 O8'
_cell_volume   757.16598221
_cell_formula_units_Z   2
loop_
 _symmetry_equiv_pos_site_id
 _symmetry_equiv_pos_as_xyz
  1  'x, y, z'
loop_
 _atom_site_type_symbol
 _atom_site_label
 _atom_site_symmetry_multiplicity
 _atom_site_fract_x
 _atom_site_fract_y
 _atom_site_fract_z
 _atom_site_occupancy
  Zn  Zn1  1  0.48459800  0.85463000  0.49701500  1
  Zn  Zn2  1  0.51106800  0.14465300  0.50972400  1
  H  H1  1  0.38960800  0.05605100  0.97878500  1
  H  H2  1  0.60433800  0.94132000  0.02688100  1
  H  H3  1  0.03349800  0.87184800  0.60107300  1
  H  H4  1  0.92264100  0.01335200  0.58744800  1
  H  H5  1  0.09582100  0.00986900  0.41362300  1
  H  H6  1  0.07696300  0.16456200  0.32942500  1
  C  C1  1  0.19610400  0.02639400  0.09766600  1
  C  C2  1  0.79865700  0.97293800  0.90983000  1
  C  C3  1  0.26811000  0.03703500  0.96554400  1
  C  C4  1  0.72571900  0.96093400  0.04074100  1
  C  C5  1  0.19205900  0.00994000  0.81824300  1
  C  C6  1  0.80109300  0.98904700  0.18768800  1
  C  C7  1  0.03741600  0.97881900  0.80143400  1
  C  C8  1  0.95465200  0.02128000  0.20664500  1
  C  C9  1  0.95759200  0.98859700  0.92958100  1
  C  C10  1  0.03711600  0.01028800  0.07974100  1
  C  C11  1  0.69984900  0.98339800  0.75667100  1
  C  C12  1  0.29648500  0.01592900  0.24955800  1
  C  C13  1  0.28480800  0.00522800  0.68867800  1
  C  C14  1  0.70983700  0.99404900  0.31760700  1
  C  C15  1  0.48823900  0.56863300  0.49771400  1
  C  C16  1  0.50742900  0.43064900  0.50915600  1
  N  N1  1  0.47490000  0.68193900  0.48987600  1
  N  N2  1  0.52073300  0.31734200  0.51698100  1
  N  N3  1  0.96020400  0.93190400  0.65558700  1
  N  N4  1  0.02132400  0.07720900  0.35202000  1
  O  O1  1  0.66420600  0.10156600  0.69928600  1
  O  O2  1  0.33140500  0.89772900  0.30748800  1
  O  O3  1  0.35715800  0.12398900  0.31512400  1
  O  O4  1  0.63924800  0.87533800  0.69106700  1
  O  O5  1  0.32338800  0.88970000  0.63775800  1
  O  O6  1  0.67262100  0.10966300  0.36936800  1
  O  O7  1  0.64693600  0.88384100  0.35618500  1
  O  O8  1  0.34824600  0.11535200  0.65014400  1
