# generated using pymatgen
data_Fe2H19C48N5O18
_symmetry_space_group_name_H-M   'P 1'
_cell_length_a   9.39485800
_cell_length_b   16.15584600
_cell_length_c   19.17122400
_cell_angle_alpha   104.04526200
_cell_angle_beta   84.60493400
_cell_angle_gamma   82.55432500
_symmetry_Int_Tables_number   1
_chemical_formula_structural   Fe2H19C48N5O18
_chemical_formula_sum   'Fe2 H19 C48 N5 O18'
_cell_volume   2775.13698409
_cell_formula_units_Z   1
loop_
 _symmetry_equiv_pos_site_id
 _symmetry_equiv_pos_as_xyz
  1  'x, y, z'
loop_
 _atom_site_type_symbol
 _atom_site_label
 _atom_site_symmetry_multiplicity
 _atom_site_fract_x
 _atom_site_fract_y
 _atom_site_fract_z
 _atom_site_occupancy
  Fe  Fe1  1  0.27218600  0.14916900  0.53058900  1
  Fe  Fe2  1  0.27865200  0.17607800  0.79450400  1
  H  H1  1  0.95747400  0.87325900  0.14273100  1
  H  H2  1  0.68914100  0.31105700  0.33292900  1
  H  H3  1  0.60183600  0.44597600  0.30786700  1
  H  H4  1  0.59142700  0.45573800  0.18278300  1
  H  H5  1  0.66859700  0.33069300  0.08259800  1
  H  H6  1  0.85954800  0.01789100  0.99258100  1
  H  H7  1  0.94691600  0.88299200  0.01764900  1
  H  H8  1  0.88036000  0.99831600  0.24290800  1
  H  H9  1  0.01508000  0.16017000  0.30015400  1
  H  H10  1  0.81972600  0.13386400  0.50162600  1
  H  H11  1  0.56463500  0.14903200  0.33064300  1
  H  H12  1  0.98471400  0.17935600  0.99485500  1
  H  H13  1  0.73016200  0.19468800  0.82366200  1
  H  H14  1  0.53400800  0.16897400  0.02514400  1
  H  H15  1  0.98056100  0.44213600  0.59871900  1
  H  H16  1  0.98412700  0.61305200  0.80690000  1
  H  H17  1  0.12663400  0.49974100  0.84287500  1
  H  H18  1  0.58801600  0.71450100  0.52124100  1
  H  H19  1  0.44460300  0.82417600  0.48178300  1
  C  C1  1  0.68531100  0.31129700  0.27691200  1
  C  C2  1  0.63558300  0.38901000  0.26333200  1
  C  C3  1  0.62972100  0.39446800  0.19332100  1
  C  C4  1  0.67358300  0.32225300  0.13648900  1
  C  C5  1  0.72320000  0.24304700  0.14933700  1
  C  C6  1  0.72899100  0.23753900  0.22006700  1
  C  C7  1  0.76875600  0.17002000  0.09206100  1
  C  C8  1  0.81985200  0.09144600  0.10543500  1
  C  C9  1  0.82566900  0.08594600  0.17616500  1
  C  C10  1  0.78013900  0.15897500  0.23343900  1
  C  C11  1  0.86347100  0.01767400  0.04859600  1
  C  C12  1  0.91321600  0.93996600  0.06218000  1
  C  C13  1  0.91915800  0.93452400  0.13218900  1
  C  C14  1  0.87532600  0.00674700  0.18901700  1
  C  C15  1  0.92085500  0.15417600  0.33442600  1
  C  C16  1  0.93200800  0.14587000  0.40368600  1
  C  C17  1  0.81084700  0.13809100  0.44679400  1
  C  C18  1  0.67753900  0.14109100  0.42166900  1
  C  C19  1  0.66743300  0.14775900  0.35168000  1
  C  C20  1  0.78945200  0.15333900  0.30795300  1
  C  C21  1  0.88193400  0.18087700  0.97379800  1
  C  C22  1  0.87212000  0.18740600  0.90375300  1
  C  C23  1  0.73884200  0.19074800  0.87858200  1
  C  C24  1  0.61751200  0.18316700  0.92166000  1
  C  C25  1  0.62838100  0.17495500  0.99096600  1
  C  C26  1  0.75968000  0.17568400  0.01753500  1
  C  C27  1  0.54796400  0.13986300  0.47019400  1
  C  C28  1  0.36113800  0.98960900  0.55023100  1
  C  C29  1  0.06935600  0.15084200  0.43328400  1
  C  C30  1  0.13076000  0.30537800  0.61925200  1
  C  C31  1  0.09883400  0.39012700  0.67167400  1
  C  C32  1  0.01459900  0.45548800  0.65207700  1
  C  C33  1  0.97044600  0.53553800  0.70037900  1
  C  C34  1  0.01525600  0.55086400  0.76816200  1
  C  C35  1  0.09773500  0.48604700  0.78847400  1
  C  C36  1  0.13735400  0.40444600  0.74175500  1
  C  C37  1  0.69432700  0.72653200  0.64726300  1
  C  C38  1  0.87329900  0.60300200  0.68116600  1
  C  C39  1  0.55477800  0.77713400  0.55907100  1
  C  C40  1  0.47126500  0.83972600  0.53659100  1
  C  C41  1  0.42640600  0.92141000  0.58200400  1
  C  C42  1  0.46181000  0.93848300  0.65254100  1
  C  C43  1  0.54965500  0.87622200  0.67453300  1
  C  C44  1  0.59799200  0.79477000  0.62740900  1
  C  C45  1  0.48058400  0.17734500  0.89180400  1
  C  C46  1  0.42517700  0.02496300  0.70202200  1
  C  C47  1  0.00206900  0.18783500  0.85517500  1
  C  C48  1  0.20016900  0.33461500  0.77242400  1
  N  N1  1  0.80718000  0.67291000  0.73305600  1
  N  N2  1  0.71859700  0.73355800  0.71635300  1
  N  N3  1  0.75923700  0.65588000  0.59552200  1
  N  N4  1  0.84723000  0.59482200  0.61220800  1
  N  N5  1  0.59600400  0.89933700  0.74444600  1
  O  O1  1  0.41872600  0.15051700  0.44986200  1
  O  O2  1  0.37698000  0.97669000  0.47947700  1
  O  O3  1  0.56005000  0.13164300  0.53590400  1
  O  O4  1  0.30176200  0.06626800  0.59078700  1
  O  O5  1  0.09492900  0.11619000  0.48711300  1
  O  O6  1  0.16050400  0.19642300  0.41033700  1
  O  O7  1  0.26527500  0.26754500  0.59615300  1
  O  O8  1  0.02370100  0.26906200  0.59274300  1
  O  O9  1  0.45344100  0.21273600  0.83856500  1
  O  O10  1  0.39165400  0.12983900  0.91365900  1
  O  O11  1  0.29051800  0.05597600  0.73105800  1
  O  O12  1  0.52836700  0.07071700  0.71897000  1
  O  O13  1  0.19308100  0.34854600  0.84310200  1
  O  O14  1  0.13130500  0.17539600  0.87518500  1
  O  O15  1  0.24787500  0.25617500  0.73196600  1
  O  O16  1  0.99023900  0.19686000  0.78967200  1
  O  O17  1  0.73006500  0.90948400  0.74958800  1
  O  O18  1  0.50064200  0.92552900  0.80209800  1
