# generated using pymatgen
data_ZnH9C20N2ClO4
_symmetry_space_group_name_H-M   'P 1'
_cell_length_a   8.52829900
_cell_length_b   10.85092000
_cell_length_c   13.43534700
_cell_angle_alpha   90.50514900
_cell_angle_beta   90.09915100
_cell_angle_gamma   89.99827600
_symmetry_Int_Tables_number   1
_chemical_formula_structural   ZnH9C20N2ClO4
_chemical_formula_sum   'Zn2 H18 C40 N4 Cl2 O8'
_cell_volume   1243.25535295
_cell_formula_units_Z   2
loop_
 _symmetry_equiv_pos_site_id
 _symmetry_equiv_pos_as_xyz
  1  'x, y, z'
loop_
 _atom_site_type_symbol
 _atom_site_label
 _atom_site_symmetry_multiplicity
 _atom_site_fract_x
 _atom_site_fract_y
 _atom_site_fract_z
 _atom_site_occupancy
  Zn  Zn1  1  0.50036400  0.49715200  0.11079300  1
  Zn  Zn2  1  0.50052500  0.50800700  0.88882400  1
  H  H1  1  0.38866900  0.89518200  0.99916200  1
  H  H2  1  0.00359600  0.59034600  0.03508800  1
  H  H3  1  0.00488000  0.41642800  0.96750200  1
  H  H4  1  0.74321200  0.91011900  0.98468900  1
  H  H5  1  0.74361800  0.09580100  0.01145200  1
  H  H6  1  0.50073200  0.68730400  0.25232300  1
  H  H7  1  0.49975000  0.80032200  0.40818200  1
  H  H8  1  0.50407000  0.30190400  0.57682200  1
  H  H9  1  0.49500300  0.29616500  0.42638000  1
  H  H10  1  0.49871500  0.70245400  0.74287000  1
  H  H11  1  0.24600800  0.25173700  0.24920000  1
  H  H12  1  0.48858200  0.92323400  0.16768200  1
  H  H13  1  0.74024200  0.02950700  0.19240600  1
  H  H14  1  0.74480500  0.24657700  0.24568300  1
  H  H15  1  0.75523300  0.26607900  0.75023600  1
  H  H16  1  0.51640100  0.93757300  0.83082300  1
  H  H17  1  0.26350200  0.04039500  0.80148700  1
  H  H18  1  0.25696700  0.25692400  0.75049600  1
  C  C1  1  0.00180400  0.68701700  0.02036600  1
  C  C2  1  0.86120200  0.74533200  0.00807900  1
  C  C3  1  0.85722200  0.87050400  0.99569400  1
  C  C4  1  0.14045500  0.74850200  0.00792400  1
  C  C5  1  0.13868000  0.87625500  0.00071200  1
  C  C6  1  0.99602300  0.93850700  0.99894600  1
  C  C7  1  0.99630100  0.06712100  0.99784800  1
  C  C8  1  0.85780800  0.13543800  0.00185800  1
  C  C9  1  0.86236800  0.26104500  0.99223500  1
  C  C10  1  0.27718500  0.94236000  0.99840800  1
  C  C11  1  0.13899900  0.12945100  0.99611400  1
  C  C12  1  0.14093900  0.25702000  0.99062200  1
  C  C13  1  0.00274500  0.31938500  0.98051000  1
  C  C14  1  0.72077200  0.33597400  0.99587700  1
  C  C15  1  0.71903700  0.67062700  0.00465300  1
  C  C16  1  0.28248200  0.67219200  0.00396600  1
  C  C17  1  0.28356900  0.33208500  0.99465100  1
  C  C18  1  0.49939300  0.61434700  0.70469000  1
  C  C19  1  0.50204500  0.39929200  0.70902400  1
  C  C20  1  0.50163100  0.39336300  0.60755000  1
  C  C21  1  0.49974700  0.49868400  0.55136600  1
  C  C22  1  0.49930700  0.61050500  0.60095600  1
  C  C23  1  0.49756200  0.38589600  0.39364400  1
  C  C24  1  0.49915400  0.49495700  0.44770200  1
  C  C25  1  0.49969200  0.60367200  0.39602500  1
  C  C26  1  0.49963100  0.71426000  0.44809400  1
  C  C27  1  0.49812600  0.38634700  0.29174300  1
  C  C28  1  0.50009400  0.60150200  0.29257200  1
  C  C29  1  0.49554700  0.26595100  0.24257900  1
  C  C30  1  0.35457000  0.20457100  0.23239200  1
  C  C31  1  0.35179200  0.08228800  0.20376800  1
  C  C32  1  0.49036600  0.01982200  0.18791400  1
  C  C33  1  0.63150200  0.07947700  0.20164800  1
  C  C34  1  0.63403700  0.20176600  0.23034300  1
  C  C35  1  0.50559200  0.27977600  0.75819600  1
  C  C36  1  0.64703700  0.21867800  0.76693100  1
  C  C37  1  0.65113400  0.09703100  0.79548900  1
  C  C38  1  0.51330800  0.03366800  0.81041900  1
  C  C39  1  0.37167200  0.09156600  0.79481600  1
  C  C40  1  0.36800900  0.21363000  0.76720300  1
  N  N1  1  0.27495900  0.06643600  0.99672000  1
  N  N2  1  0.50071600  0.50916300  0.75803300  1
  N  N3  1  0.49917300  0.71589300  0.54859700  1
  N  N4  1  0.49966000  0.49353600  0.24143500  1
  Cl  Cl1  1  0.17234800  0.00491500  0.19257500  1
  Cl  Cl2  1  0.83147500  0.02155900  0.80800400  1
  O  O1  1  0.67093100  0.38319300  0.91246600  1
  O  O2  1  0.66486800  0.36806700  0.08317300  1
  O  O3  1  0.66958800  0.62354900  0.08878900  1
  O  O4  1  0.66356000  0.63841300  0.91658000  1
  O  O5  1  0.33124700  0.62353600  0.08773400  1
  O  O6  1  0.33627000  0.63775700  0.91597200  1
  O  O7  1  0.33204300  0.38133900  0.91174700  1
  O  O8  1  0.33711500  0.36714800  0.08206300  1
