# generated using pymatgen
data_FeH11C24NO10
_symmetry_space_group_name_H-M   'P 1'
_cell_length_a   15.24582100
_cell_length_b   14.51944800
_cell_length_c   11.29815700
_cell_angle_alpha   86.85874000
_cell_angle_beta   101.60090000
_cell_angle_gamma   106.53575800
_symmetry_Int_Tables_number   1
_chemical_formula_structural   FeH11C24NO10
_chemical_formula_sum   'Fe2 H22 C48 N2 O20'
_cell_volume   2348.55132520
_cell_formula_units_Z   2
loop_
 _symmetry_equiv_pos_site_id
 _symmetry_equiv_pos_as_xyz
  1  'x, y, z'
loop_
 _atom_site_type_symbol
 _atom_site_label
 _atom_site_symmetry_multiplicity
 _atom_site_fract_x
 _atom_site_fract_y
 _atom_site_fract_z
 _atom_site_occupancy
  Fe  Fe1  1  0.48634600  0.98049500  0.73415400  1
  Fe  Fe2  1  0.50498800  0.99125700  0.26529500  1
  H  H1  1  0.94411900  0.00571100  0.24939800  1
  H  H2  1  0.04379100  0.93635000  0.75537600  1
  H  H3  1  0.19754900  0.94732200  0.71783600  1
  H  H4  1  0.37541000  0.65685800  0.73804100  1
  H  H5  1  0.34053100  0.49670500  0.81524400  1
  H  H6  1  0.59749800  0.75973600  0.26953100  1
  H  H7  1  0.34850900  0.33605200  0.81484000  1
  H  H8  1  0.38743000  0.21024100  0.72789000  1
  H  H9  1  0.64682200  0.47086800  0.18306800  1
  H  H10  1  0.61152000  0.31246000  0.26063700  1
  H  H11  1  0.82535600  0.14130900  0.27887500  1
  H  H12  1  0.90012700  0.09964200  0.40332100  1
  H  H13  1  0.78596000  0.10495700  0.41875400  1
  H  H14  1  0.75995500  0.66115600  0.30513000  1
  H  H15  1  0.75624500  0.76233800  0.20476400  1
  H  H16  1  0.78556200  0.65997600  0.15638900  1
  H  H17  1  0.86060500  0.14826400  0.90135400  1
  H  H18  1  0.83301700  0.12736300  0.74051400  1
  H  H19  1  0.94865800  0.13284600  0.82443700  1
  H  H20  1  0.18751400  0.15167200  0.05842100  1
  H  H21  1  0.26018400  0.14904400  0.20571600  1
  H  H22  1  0.13998700  0.14812300  0.19295900  1
  C  C1  1  0.80040800  0.99805900  0.19575700  1
  C  C2  1  0.88670800  0.00232600  0.17435600  1
  C  C3  1  0.90149500  0.00074900  0.05903500  1
  C  C4  1  0.82813000  0.99842200  0.96128200  1
  C  C5  1  0.73763900  0.98730900  0.98142800  1
  C  C6  1  0.72482200  0.98672800  0.10110700  1
  C  C7  1  0.10317000  0.95348100  0.82924100  1
  C  C8  1  0.18988700  0.95845400  0.80859200  1
  C  C9  1  0.26687300  0.98031900  0.90071500  1
  C  C10  1  0.25604800  0.99222700  0.01838700  1
  C  C11  1  0.16911600  0.99715600  0.03644200  1
  C  C12  1  0.09136100  0.97536100  0.94071700  1
  C  C13  1  0.45280300  0.13060400  0.58879300  1
  C  C14  1  0.35744800  0.99439400  0.86632700  1
  C  C15  1  0.65891100  0.98096900  0.87643900  1
  C  C16  1  0.48535100  0.80623300  0.64832400  1
  C  C17  1  0.50377600  0.16388600  0.35205400  1
  C  C18  1  0.33276100  0.99302400  0.12400000  1
  C  C19  1  0.63388900  0.97359700  0.13419300  1
  C  C20  1  0.53453300  0.83963400  0.40986000  1
  C  C21  1  0.51847400  0.74395800  0.46510000  1
  C  C22  1  0.48274300  0.72566300  0.57087000  1
  C  C23  1  0.45374200  0.63062200  0.60937900  1
  C  C24  1  0.40206200  0.60618500  0.70035400  1
  C  C25  1  0.37924900  0.51383900  0.74280300  1
  C  C26  1  0.58045300  0.68960200  0.31006800  1
  C  C27  1  0.53829500  0.67078000  0.41011600  1
  C  C28  1  0.51740900  0.57836900  0.45603500  1
  C  C29  1  0.60519600  0.61874200  0.26029500  1
  C  C30  1  0.58353600  0.52658000  0.30564900  1
  C  C31  1  0.47325800  0.55792800  0.55349600  1
  C  C32  1  0.44942900  0.46451600  0.59610800  1
  C  C33  1  0.40459300  0.44367900  0.69277000  1
  C  C34  1  0.38331200  0.35221900  0.73863500  1
  C  C35  1  0.53841200  0.50568600  0.40234900  1
  C  C36  1  0.51443000  0.41218300  0.44510400  1
  C  C37  1  0.47014900  0.39176200  0.54245300  1
  C  C38  1  0.44844200  0.29920700  0.58808900  1
  C  C39  1  0.40605900  0.28053200  0.68804600  1
  C  C40  1  0.60827800  0.45558500  0.25565600  1
  C  C41  1  0.58528100  0.36340400  0.29848900  1
  C  C42  1  0.53394000  0.33932700  0.38966800  1
  C  C43  1  0.50527900  0.24439600  0.42867600  1
  C  C44  1  0.46806700  0.22595900  0.53316400  1
  C  C45  1  0.82711300  0.09007800  0.35526500  1
  C  C46  1  0.74193500  0.68308700  0.20980400  1
  C  C47  1  0.87327600  0.10946500  0.82748000  1
  C  C48  1  0.18877900  0.12250100  0.15135000  1
  N  N1  1  0.99342700  0.00511000  0.04728600  1
  N  N2  1  0.99890700  0.97173500  0.95103300  1
  O  O1  1  0.52435000  0.10641000  0.65453100  1
  O  O2  1  0.42402400  0.07442500  0.89518100  1
  O  O3  1  0.36824200  0.07224600  0.57898100  1
  O  O4  1  0.36589800  0.93480300  0.78908500  1
  O  O5  1  0.57706400  0.98629900  0.89117100  1
  O  O6  1  0.67018500  0.97047400  0.76636900  1
  O  O7  1  0.48154700  0.89050600  0.60291100  1
  O  O8  1  0.50199100  0.79733900  0.76635600  1
  O  O9  1  0.51229500  0.08106600  0.39815400  1
  O  O10  1  0.48432500  0.17154400  0.23401800  1
  O  O11  1  0.41472700  0.98908800  0.10858200  1
  O  O12  1  0.31742000  0.98871200  0.23464200  1
  O  O13  1  0.61930000  0.89779800  0.42225200  1
  O  O14  1  0.62545500  0.03435200  0.21017200  1
  O  O15  1  0.46390700  0.86491000  0.34301100  1
  O  O16  1  0.56641100  0.89449400  0.10391900  1
  O  O17  1  0.78821300  0.99569700  0.31279600  1
  O  O18  1  0.64784200  0.63980200  0.16252500  1
  O  O19  1  0.84509100  0.01010700  0.84595800  1
  O  O20  1  0.16130700  0.02183900  0.14855800  1
