# generated using pymatgen
data_Fe2H12C45(N2O9)3
_symmetry_space_group_name_H-M   'P 1'
_cell_length_a   9.49149700
_cell_length_b   16.75294500
_cell_length_c   17.37418100
_cell_angle_alpha   105.47795600
_cell_angle_beta   89.04430900
_cell_angle_gamma   75.75084100
_symmetry_Int_Tables_number   1
_chemical_formula_structural   Fe2H12C45(N2O9)3
_chemical_formula_sum   'Fe2 H12 C45 N6 O27'
_cell_volume   2570.51956141
_cell_formula_units_Z   1
loop_
 _symmetry_equiv_pos_site_id
 _symmetry_equiv_pos_as_xyz
  1  'x, y, z'
loop_
 _atom_site_type_symbol
 _atom_site_label
 _atom_site_symmetry_multiplicity
 _atom_site_fract_x
 _atom_site_fract_y
 _atom_site_fract_z
 _atom_site_occupancy
  Fe  Fe1  1  0.49364000  0.01063700  0.34513800  1
  Fe  Fe2  1  0.52722200  0.00824500  0.65932500  1
  H  H1  1  0.98933400  0.01031600  0.68758200  1
  H  H2  1  0.35598000  0.03101900  0.88758600  1
  H  H3  1  0.71399900  0.51384600  0.28357000  1
  H  H4  1  0.67316500  0.62309500  0.21916700  1
  H  H5  1  0.83680500  0.69280400  0.61217000  1
  H  H6  1  0.83552100  0.89755000  0.93591800  1
  H  H7  1  0.69739300  0.02396700  0.06579000  1
  H  H8  1  0.19840400  0.07926600  0.05144900  1
  H  H9  1  0.12143200  0.97186300  0.36428600  1
  H  H10  1  0.15457100  0.21172400  0.38995500  1
  H  H11  1  0.21086400  0.49936100  0.73637900  1
  H  H12  1  0.23337100  0.38751900  0.79617700  1
  C  C1  1  0.14433100  0.99540700  0.77437600  1
  C  C2  1  0.16495100  0.98033600  0.84918800  1
  C  C3  1  0.05125200  0.96856100  0.89259100  1
  C  C4  1  0.91888000  0.96632500  0.85985700  1
  C  C5  1  0.89749400  0.98318000  0.78631900  1
  C  C6  1  0.00837600  0.99938900  0.74547500  1
  C  C7  1  0.87358100  0.99799900  0.14508900  1
  C  C8  1  0.88938500  0.99377500  0.22349600  1
  C  C9  1  0.01951500  0.00059000  0.25662200  1
  C  C10  1  0.13293400  0.01023900  0.21174300  1
  C  C11  1  0.11532400  0.01744700  0.13449200  1
  C  C12  1  0.98553200  0.00992000  0.10084800  1
  C  C13  1  0.76883400  0.98500200  0.27269900  1
  C  C14  1  0.59644500  0.84896900  0.36209400  1
  C  C15  1  0.26319700  0.02416200  0.25132800  1
  C  C16  1  0.33734300  0.13920900  0.47697600  1
  C  C17  1  0.66776500  0.87431000  0.52958900  1
  C  C18  1  0.76257400  0.97869000  0.74727500  1
  C  C19  1  0.37559900  0.16568200  0.64654100  1
  C  C20  1  0.26258500  0.00294400  0.72194100  1
  C  C21  1  0.28093200  0.22372800  0.53438800  1
  C  C22  1  0.20429600  0.29030300  0.50619200  1
  C  C23  1  0.15504200  0.37233200  0.55776800  1
  C  C24  1  0.18869600  0.38842400  0.63701300  1
  C  C25  1  0.26805400  0.32188400  0.66497600  1
  C  C26  1  0.30987300  0.23841000  0.61442300  1
  C  C27  1  0.91255100  0.56837100  0.47373200  1
  C  C28  1  0.06927800  0.44183800  0.52806400  1
  C  C29  1  0.76787000  0.62357500  0.37179500  1
  C  C30  1  0.68260700  0.69124300  0.34741500  1
  C  C31  1  0.66043700  0.77575400  0.39498400  1
  C  C32  1  0.71141500  0.78988700  0.47101400  1
  C  C33  1  0.79346800  0.72201800  0.49584600  1
  C  C34  1  0.82491800  0.63912700  0.44579300  1
  C  C35  1  0.30278400  0.98049800  0.88644300  1
  C  C36  1  0.79819800  0.53560900  0.31814200  1
  C  C37  1  0.61363700  0.67159500  0.27176800  1
  C  C38  1  0.84120500  0.73736200  0.57751600  1
  C  C39  1  0.80470900  0.94377900  0.90181900  1
  C  C40  1  0.74205000  0.98570100  0.10530000  1
  C  C41  1  0.22921600  0.03857000  0.09079700  1
  C  C42  1  0.03094400  0.01119700  0.34294700  1
  C  C43  1  0.17574400  0.27231500  0.42098100  1
  C  C44  1  0.14091300  0.47588200  0.69196200  1
  C  C45  1  0.30888100  0.34114900  0.74807700  1
  N  N1  1  0.07048600  0.96458000  0.97238100  1
  N  N2  1  0.96544600  0.01194400  0.02066400  1
  N  N3  1  0.11816800  0.51134500  0.53086100  1
  N  N4  1  0.04076100  0.57380300  0.50392100  1
  N  N5  1  0.86384900  0.49872400  0.47093100  1
  N  N6  1  0.94161400  0.43602800  0.49748000  1
  O  O1  1  0.63296300  0.02334900  0.26606200  1
  O  O2  1  0.60509000  0.83788600  0.28429000  1
  O  O3  1  0.79714900  0.94227800  0.32624500  1
  O  O4  1  0.55030400  0.92780500  0.40900000  1
  O  O5  1  0.33818700  0.96668300  0.28385600  1
  O  O6  1  0.30116700  0.09576200  0.25789400  1
  O  O7  1  0.44297900  0.12843000  0.42240600  1
  O  O8  1  0.28043200  0.07567400  0.47844200  1
  O  O9  1  0.54857800  0.89468800  0.57783100  1
  O  O10  1  0.75148100  0.92724700  0.53728400  1
  O  O11  1  0.70274200  0.03672500  0.71127700  1
  O  O12  1  0.70634600  0.91367400  0.74335200  1
  O  O13  1  0.23626600  0.01047900  0.64993700  1
  O  O14  1  0.47236500  0.09763200  0.60233800  1
  O  O15  1  0.39500200  0.99960100  0.74436400  1
  O  O16  1  0.33069300  0.16637300  0.71860700  1
  O  O17  1  0.35731200  0.92454900  0.91783600  1
  O  O18  1  0.92050800  0.48743700  0.30871600  1
  O  O19  1  0.48561900  0.70638300  0.26881400  1
  O  O20  1  0.89519700  0.79672400  0.60518600  1
  O  O21  1  0.67628600  0.98077900  0.90361300  1
  O  O22  1  0.68774600  0.92879200  0.11203200  1
  O  O23  1  0.35836800  0.00766500  0.09508300  1
  O  O24  1  0.93907500  0.06598000  0.39177200  1
  O  O25  1  0.18152400  0.32341400  0.38323000  1
  O  O26  1  0.01950200  0.52161900  0.69106300  1
  O  O27  1  0.43121500  0.30866700  0.76314300  1
