# generated using pymatgen
data_CuH2C12(NO2)2
_symmetry_space_group_name_H-M   'P 1'
_cell_length_a   15.91877600
_cell_length_b   11.82431500
_cell_length_c   10.40243400
_cell_angle_alpha   90.00000000
_cell_angle_beta   90.00382200
_cell_angle_gamma   90.00000000
_symmetry_Int_Tables_number   1
_chemical_formula_structural   CuH2C12(NO2)2
_chemical_formula_sum   'Cu2 H4 C24 N4 O8'
_cell_volume   1958.03581123
_cell_formula_units_Z   2
loop_
 _symmetry_equiv_pos_site_id
 _symmetry_equiv_pos_as_xyz
  1  'x, y, z'
loop_
 _atom_site_type_symbol
 _atom_site_label
 _atom_site_symmetry_multiplicity
 _atom_site_fract_x
 _atom_site_fract_y
 _atom_site_fract_z
 _atom_site_occupancy
  Cu  Cu1  1  0.49981000  0.49991000  0.62864600  1
  Cu  Cu2  1  0.50019000  0.50009000  0.37135400  1
  H  H1  1  0.05075400  0.33276300  0.38664800  1
  H  H2  1  0.94924600  0.66723600  0.61335200  1
  H  H3  1  0.94930000  0.33271000  0.61330800  1
  H  H4  1  0.05070000  0.66729000  0.38669200  1
  C  C1  1  0.50001000  0.16161600  0.50014300  1
  C  C2  1  0.49999000  0.83838400  0.49985700  1
  C  C3  1  0.50001200  0.28297500  0.50028500  1
  C  C4  1  0.49998800  0.71702400  0.49971500  1
  C  C5  1  0.33879600  0.50006500  0.49991100  1
  C  C6  1  0.66120400  0.49993400  0.50008900  1
  C  C7  1  0.50000400  0.05970700  0.50004900  1
  C  C8  1  0.49999600  0.94029300  0.49995100  1
  C  C9  1  0.97288500  0.40780200  0.56061200  1
  C  C10  1  0.02711400  0.59219800  0.43938800  1
  C  C11  1  0.02714400  0.40783100  0.43936400  1
  C  C12  1  0.97285600  0.59216900  0.56063600  1
  C  C13  1  0.24865200  0.50006100  0.49941900  1
  C  C14  1  0.75134800  0.49993900  0.50058100  1
  C  C15  1  0.02784200  0.49999600  0.61652700  1
  C  C16  1  0.97215800  0.50000400  0.38347300  1
  C  C17  1  0.08105500  0.50002400  0.49762000  1
  C  C18  1  0.91894500  0.49997500  0.50238000  1
  C  C19  1  0.17295600  0.50004800  0.49871900  1
  C  C20  1  0.82704400  0.49995200  0.50128100  1
  C  C21  1  0.50012300  0.50000100  0.06786800  1
  C  C22  1  0.49987700  0.49999900  0.93213200  1
  C  C23  1  0.93820600  0.50000600  0.25277800  1
  C  C24  1  0.06179400  0.49999300  0.74722200  1
  N  N1  1  0.50029000  0.50000800  0.17909200  1
  N  N2  1  0.49971000  0.49999200  0.82090800  1
  N  N3  1  0.91135500  0.50000900  0.14942000  1
  N  N4  1  0.08864500  0.49999100  0.85058000  1
  O  O1  1  0.49685700  0.33553900  0.61092200  1
  O  O2  1  0.50314300  0.66446100  0.38907800  1
  O  O3  1  0.50311600  0.33576500  0.38976100  1
  O  O4  1  0.49688300  0.66423400  0.61023900  1
  O  O5  1  0.37772800  0.49595800  0.61066200  1
  O  O6  1  0.62227200  0.50404200  0.38933800  1
  O  O7  1  0.37811900  0.50408300  0.38948800  1
  O  O8  1  0.62188100  0.49591700  0.61051200  1
