# generated using pymatgen
data_CuH11C19NO4
_symmetry_space_group_name_H-M   'P 1'
_cell_length_a   14.61515400
_cell_length_b   16.04246800
_cell_length_c   17.39254600
_cell_angle_alpha   89.99755800
_cell_angle_beta   86.31055500
_cell_angle_gamma   90.00913200
_symmetry_Int_Tables_number   1
_chemical_formula_structural   CuH11C19NO4
_chemical_formula_sum   'Cu2 H22 C38 N2 O8'
_cell_volume   4069.45938314
_cell_formula_units_Z   2
loop_
 _symmetry_equiv_pos_site_id
 _symmetry_equiv_pos_as_xyz
  1  'x, y, z'
loop_
 _atom_site_type_symbol
 _atom_site_label
 _atom_site_symmetry_multiplicity
 _atom_site_fract_x
 _atom_site_fract_y
 _atom_site_fract_z
 _atom_site_occupancy
  Cu  Cu1  1  0.40842900  0.50015500  0.50083200  1
  Cu  Cu2  1  0.59157100  0.49984500  0.49916800  1
  H  H1  1  0.63060900  0.48843400  0.74104400  1
  H  H2  1  0.36939100  0.51156600  0.25895600  1
  H  H3  1  0.66201800  0.49734600  0.25515000  1
  H  H4  1  0.33798300  0.50265400  0.74485000  1
  H  H5  1  0.60030100  0.52832100  0.99681200  1
  H  H6  1  0.39970000  0.47167900  0.00318800  1
  H  H7  1  0.33029900  0.49903800  0.88466400  1
  H  H8  1  0.66970100  0.50096200  0.11533600  1
  H  H9  1  0.37713200  0.51704300  0.12078800  1
  H  H10  1  0.62286800  0.48295700  0.87921200  1
  H  H11  1  0.35548600  0.92141300  0.50085500  1
  H  H12  1  0.64451400  0.07858700  0.49914500  1
  H  H13  1  0.92379400  0.40821800  0.41055300  1
  H  H14  1  0.07620600  0.59178200  0.58944800  1
  H  H15  1  0.09199700  0.40825800  0.41205500  1
  H  H16  1  0.90800300  0.59174200  0.58794600  1
  H  H17  1  0.27091700  0.04316100  0.50015000  1
  H  H18  1  0.31976300  0.12793700  0.55171000  1
  H  H19  1  0.32746300  0.12707600  0.44717300  1
  H  H20  1  0.72908400  0.95683900  0.49985000  1
  H  H21  1  0.67253800  0.87292400  0.55282800  1
  H  H22  1  0.68023700  0.87206300  0.44829000  1
  C  C1  1  0.49991100  0.65996800  0.50131400  1
  C  C2  1  0.50008900  0.34003200  0.49868600  1
  C  C3  1  0.49014100  0.49831900  0.64813600  1
  C  C4  1  0.50986000  0.50168100  0.35186500  1
  C  C5  1  0.48497400  0.49672400  0.73262900  1
  C  C6  1  0.51502700  0.50327600  0.26737100  1
  C  C7  1  0.56409300  0.49163100  0.77181900  1
  C  C8  1  0.43590800  0.50836900  0.22818100  1
  C  C9  1  0.55953800  0.48958500  0.85123700  1
  C  C10  1  0.44046300  0.51041500  0.14876300  1
  C  C11  1  0.47543500  0.49321800  0.89271900  1
  C  C12  1  0.52456600  0.50678200  0.10728100  1
  C  C13  1  0.39653400  0.49702300  0.85326900  1
  C  C14  1  0.60346700  0.50297700  0.14673100  1
  C  C15  1  0.40104100  0.49917800  0.77388400  1
  C  C16  1  0.59896000  0.50082200  0.22611600  1
  C  C17  1  0.46592300  0.49020200  0.97761100  1
  C  C18  1  0.53407700  0.50979800  0.02238900  1
  C  C19  1  0.41759100  0.04244300  0.49984600  1
  C  C20  1  0.58241000  0.95755700  0.50015400  1
  C  C21  1  0.49921700  0.08598900  0.49934000  1
  C  C22  1  0.50078400  0.91401100  0.50066000  1
  C  C23  1  0.58126600  0.04362600  0.49950800  1
  C  C24  1  0.41873400  0.95637400  0.50049200  1
  C  C25  1  0.49956000  0.17549200  0.49885300  1
  C  C26  1  0.50044000  0.82450800  0.50114700  1
  C  C27  1  0.50013200  0.74939700  0.50136900  1
  C  C28  1  0.49986800  0.25060300  0.49863100  1
  C  C29  1  0.05155600  0.44855600  0.45071200  1
  C  C30  1  0.94844400  0.55144400  0.54928800  1
  C  C31  1  0.09426400  0.49997900  0.50087900  1
  C  C32  1  0.90573600  0.50002100  0.49912100  1
  C  C33  1  0.04271500  0.55144000  0.55015900  1
  C  C34  1  0.95728500  0.44856000  0.44984200  1
  C  C35  1  0.19237800  0.50010900  0.50156500  1
  C  C36  1  0.80762300  0.49989100  0.49843500  1
  C  C37  1  0.32866500  0.08798700  0.49971100  1
  C  C38  1  0.67133600  0.91201300  0.50028900  1
  N  N1  1  0.72848700  0.49981400  0.49813900  1
  N  N2  1  0.27151400  0.50018600  0.50186200  1
  O  O1  1  0.42092600  0.62126500  0.50449600  1
  O  O2  1  0.57907400  0.37873500  0.49550500  1
  O  O3  1  0.57874100  0.62099700  0.49762400  1
  O  O4  1  0.42126000  0.37900300  0.50237600  1
  O  O5  1  0.41375900  0.50187800  0.61273500  1
  O  O6  1  0.58624100  0.49812200  0.38726500  1
  O  O7  1  0.57106700  0.49576200  0.61117100  1
  O  O8  1  0.42893400  0.50423800  0.38882900  1
