# generated using pymatgen
data_Zn6H25C46NO24
_symmetry_space_group_name_H-M   'P 1'
_cell_length_a   18.96889900
_cell_length_b   18.86881700
_cell_length_c   18.95875300
_cell_angle_alpha   109.00812800
_cell_angle_beta   109.73175900
_cell_angle_gamma   109.58709200
_symmetry_Int_Tables_number   1
_chemical_formula_structural   Zn6H25C46NO24
_chemical_formula_sum   'Zn6 H25 C46 N1 O24'
_cell_volume   5229.06301358
_cell_formula_units_Z   1
loop_
 _symmetry_equiv_pos_site_id
 _symmetry_equiv_pos_as_xyz
  1  'x, y, z'
loop_
 _atom_site_type_symbol
 _atom_site_label
 _atom_site_symmetry_multiplicity
 _atom_site_fract_x
 _atom_site_fract_y
 _atom_site_fract_z
 _atom_site_occupancy
  Zn  Zn1  1  0.42336100  0.99693200  0.92425800  1
  Zn  Zn2  1  0.55984500  0.99779800  0.06591000  1
  Zn  Zn3  1  0.43493600  0.43464300  0.50280000  1
  Zn  Zn4  1  0.56995300  0.57841700  0.50423600  1
  Zn  Zn5  1  0.99632100  0.42994500  0.93283300  1
  Zn  Zn6  1  0.99666000  0.56859800  0.07049400  1
  H  H1  1  0.47807600  0.23556600  0.35805500  1
  H  H2  1  0.54063300  0.34958400  0.28436700  1
  H  H3  1  0.52088400  0.14502100  0.26736100  1
  H  H4  1  0.45541800  0.21795200  0.15369400  1
  H  H5  1  0.75670200  0.12491200  0.00224500  1
  H  H6  1  0.86956100  0.23670200  0.00236800  1
  H  H7  1  0.73252000  0.37563700  0.99953400  1
  H  H8  1  0.61659800  0.26068400  0.99296600  1
  H  H9  1  0.49920000  0.73631800  0.87723300  1
  H  H10  1  0.49487500  0.62272600  0.76338200  1
  H  H11  1  0.49566200  0.76315500  0.62672300  1
  H  H12  1  0.49386900  0.87335300  0.73722300  1
  H  H13  1  0.38261000  0.85885000  0.13066500  1
  H  H14  1  0.10622300  0.63578800  0.86453900  1
  H  H15  1  0.21450900  0.74918900  0.86171100  1
  H  H16  1  0.76612800  0.64515600  0.76817700  1
  H  H17  1  0.87379500  0.64206600  0.88196700  1
  H  H18  1  0.73937700  0.36625600  0.73573600  1
  H  H19  1  0.62860000  0.36917800  0.62526600  1
  H  H20  1  0.37683900  0.50979500  0.24188700  1
  H  H21  1  0.26077400  0.50317800  0.12724100  1
  H  H22  1  0.12098800  0.49440200  0.26237300  1
  H  H23  1  0.23413000  0.49457200  0.37392900  1
  H  H24  1  0.27934900  0.69054900  0.14637400  1
  H  H25  1  0.33624700  0.79957300  0.20279500  1
  C  C1  1  0.61115200  0.11796200  0.99544900  1
  C  C2  1  0.48634200  0.11563900  0.10958500  1
  C  C3  1  0.37221500  0.87696300  0.99511900  1
  C  C4  1  0.49617300  0.87863900  0.88039200  1
  C  C5  1  0.49469600  0.25149800  0.31376400  1
  C  C6  1  0.51435700  0.32949500  0.32156100  1
  C  C7  1  0.50352400  0.18921700  0.25152300  1
  C  C8  1  0.48243000  0.18089200  0.17351000  1
  C  C9  1  0.75102700  0.17975700  0.00129500  1
  C  C10  1  0.81428200  0.24239700  0.00078100  1
  C  C11  1  0.80842800  0.31348800  0.00130800  1
  C  C12  1  0.73790600  0.32048900  0.99986600  1
  C  C13  1  0.67229200  0.25541100  0.99543100  1
  C  C14  1  0.67929600  0.18550700  0.99731700  1
  C  C15  1  0.49816100  0.74223400  0.82211500  1
  C  C16  1  0.49478200  0.67780900  0.75755300  1
  C  C17  1  0.49479600  0.68555400  0.68761900  1
  C  C18  1  0.49591500  0.75670200  0.68139400  1
  C  C19  1  0.49448400  0.81859800  0.74346500  1
  C  C20  1  0.49694800  0.81223100  0.81460800  1
  C  C21  1  0.32152900  0.80995800  0.07245900  1
  C  C22  1  0.25944100  0.74770000  0.07466300  1
  C  C23  1  0.18226300  0.68472600  0.99960600  1
  C  C24  1  0.16680200  0.68499800  0.92319900  1
  C  C25  1  0.22740400  0.74927400  0.92180400  1
  C  C26  1  0.30532400  0.81120200  0.99627800  1
  C  C27  1  0.62303600  0.50786100  0.62389500  1
  C  C28  1  0.50942800  0.39295000  0.38618900  1
  C  C29  1  0.38165300  0.50487600  0.38290000  1
  C  C30  1  0.49623000  0.62028900  0.62138300  1
  C  C31  1  0.87796800  0.50187800  0.88316500  1
  C  C32  1  0.87625400  0.38074000  0.00255100  1
  C  C33  1  0.11554400  0.49718300  0.12018200  1
  C  C34  1  0.11649000  0.61780100  0.00054700  1
  C  C35  1  0.76021200  0.58385000  0.76090900  1
  C  C36  1  0.82027000  0.58200500  0.82529200  1
  C  C37  1  0.81337600  0.50390100  0.81610800  1
  C  C38  1  0.74545600  0.42765800  0.74318600  1
  C  C39  1  0.68288900  0.42932800  0.68122800  1
  C  C40  1  0.69063500  0.50736600  0.68945600  1
  C  C41  1  0.32049300  0.50590400  0.24639900  1
  C  C42  1  0.25478800  0.50145900  0.18145500  1
  C  C43  1  0.18339900  0.49834600  0.18741100  1
  C  C44  1  0.17687900  0.49721900  0.25742000  1
  C  C45  1  0.24032500  0.49671800  0.31993500  1
  C  C46  1  0.31290900  0.50237100  0.31522700  1
  N  N1  1  0.27596600  0.74634900  0.15329800  1
  O  O1  1  0.53040600  0.09166800  0.94319700  1
  O  O2  1  0.63387600  0.08696500  0.04650800  1
  O  O3  1  0.43668100  0.08891100  0.02816900  1
  O  O4  1  0.53834400  0.08664300  0.13582000  1
  O  O5  1  0.34923500  0.90613800  0.94212100  1
  O  O6  1  0.45288200  0.90476800  0.04867500  1
  O  O7  1  0.44627500  0.90956400  0.85452800  1
  O  O8  1  0.54487400  0.90421700  0.96185900  1
  O  O9  1  0.54265200  0.45287800  0.59564100  1
  O  O10  1  0.64520000  0.56149900  0.59512100  1
  O  O11  1  0.45743700  0.36566500  0.41460600  1
  O  O12  1  0.55814300  0.47493500  0.41298300  1
  O  O13  1  0.35980000  0.45329800  0.41368200  1
  O  O14  1  0.46218100  0.55822700  0.40948500  1
  O  O15  1  0.44861200  0.53828000  0.59584000  1
  O  O16  1  0.54587300  0.64719100  0.59081100  1
  O  O17  1  0.90579900  0.44834100  0.85944400  1
  O  O18  1  0.90610900  0.55455500  0.96397500  1
  O  O19  1  0.90785100  0.35678800  0.95325900  1
  O  O20  1  0.90176300  0.46189200  0.05207700  1
  O  O21  1  0.09022800  0.44748000  0.03941000  1
  O  O22  1  0.08418600  0.54715500  0.14371200  1
  O  O23  1  0.08796700  0.53666000  0.94777000  1
  O  O24  1  0.08809300  0.64194000  0.05313400  1
