# generated using pymatgen
data_CuH8C9NO6
_symmetry_space_group_name_H-M   'P 1'
_cell_length_a   11.81725200
_cell_length_b   11.04357700
_cell_length_c   9.58448800
_cell_angle_alpha   90.02046000
_cell_angle_beta   90.01148900
_cell_angle_gamma   89.99558000
_symmetry_Int_Tables_number   1
_chemical_formula_structural   CuH8C9NO6
_chemical_formula_sum   'Cu2 H16 C18 N2 O12'
_cell_volume   1250.82093293
_cell_formula_units_Z   2
loop_
 _symmetry_equiv_pos_site_id
 _symmetry_equiv_pos_as_xyz
  1  'x, y, z'
loop_
 _atom_site_type_symbol
 _atom_site_label
 _atom_site_symmetry_multiplicity
 _atom_site_fract_x
 _atom_site_fract_y
 _atom_site_fract_z
 _atom_site_occupancy
  Cu  Cu1  1  0.50043300  0.50671100  0.64285300  1
  Cu  Cu2  1  0.49657100  0.51086700  0.36343100  1
  H  H1  1  0.48400700  0.91425200  0.61707400  1
  H  H2  1  0.38310700  0.12320300  0.36362300  1
  H  H3  1  0.57415300  0.53159100  0.90224500  1
  H  H4  1  0.52853600  0.58547000  0.10426300  1
  H  H5  1  0.29779300  0.96167800  0.19128600  1
  H  H6  1  0.28604700  0.88981400  0.36044000  1
  H  H7  1  0.30780800  0.79871200  0.20662000  1
  H  H8  1  0.52965200  0.09913300  0.72521000  1
  H  H9  1  0.66234300  0.18291400  0.72410200  1
  H  H10  1  0.66225200  0.01978800  0.73299200  1
  H  H11  1  0.32514200  0.21085600  0.94126700  1
  H  H12  1  0.46656700  0.25187200  0.88666900  1
  H  H13  1  0.35773800  0.21768400  0.75885800  1
  H  H14  1  0.20533500  0.35626200  0.05204300  1
  H  H15  1  0.25225800  0.50132700  0.11943500  1
  H  H16  1  0.20499900  0.38222500  0.23540200  1
  C  C1  1  0.50861300  0.27624900  0.49820300  1
  C  C2  1  0.28141900  0.50255900  0.50685500  1
  C  C3  1  0.49009900  0.74140000  0.50809100  1
  C  C4  1  0.71542600  0.51660200  0.49953200  1
  C  C5  1  0.16001200  0.50533600  0.50787900  1
  C  C6  1  0.05811700  0.50893600  0.50548600  1
  C  C7  1  0.93875200  0.51334600  0.50127500  1
  C  C8  1  0.83683800  0.51603300  0.49878900  1
  C  C9  1  0.46225800  0.94495500  0.40314900  1
  C  C10  1  0.48175500  0.87417800  0.51442000  1
  C  C11  1  0.45025200  0.07734300  0.41971700  1
  C  C12  1  0.52235800  0.14377100  0.49518800  1
  C  C13  1  0.42843500  0.44375200  0.92478200  1
  C  C14  1  0.43004100  0.44112900  0.08124800  1
  C  C15  1  0.32860400  0.88616800  0.25742500  1
  C  C16  1  0.61834600  0.09973900  0.68857900  1
  C  C17  1  0.37528600  0.25980000  0.86157300  1
  C  C18  1  0.25141100  0.40213200  0.13762600  1
  N  N1  1  0.50281800  0.50180500  0.85179500  1
  N  N2  1  0.49322700  0.51267500  0.15446700  1
  O  O1  1  0.51189800  0.33158800  0.61881700  1
  O  O2  1  0.49729500  0.33449600  0.37991100  1
  O  O3  1  0.33570200  0.50326700  0.62593300  1
  O  O4  1  0.33248900  0.51021500  0.38631000  1
  O  O5  1  0.49683500  0.68299000  0.62708700  1
  O  O6  1  0.48882300  0.68637100  0.38678500  1
  O  O7  1  0.66424000  0.51837400  0.62033400  1
  O  O8  1  0.66115900  0.51857800  0.38038900  1
  O  O9  1  0.44580300  0.89527200  0.27351400  1
  O  O10  1  0.62124500  0.09272000  0.54318800  1
  O  O11  1  0.34385900  0.38174900  0.85746300  1
  O  O12  1  0.36235300  0.35808500  0.14809900  1
