# generated using pymatgen
data_Cu3H16(C15O7)2
_symmetry_space_group_name_H-M   'P 1'
_cell_length_a   36.18199400
_cell_length_b   18.40438800
_cell_length_c   18.40455800
_cell_angle_alpha   90.00000000
_cell_angle_beta   118.79904300
_cell_angle_gamma   90.00000000
_symmetry_Int_Tables_number   1
_chemical_formula_structural   Cu3H16(C15O7)2
_chemical_formula_sum   'Cu12 H64 C120 O56'
_cell_volume   10739.87878693
_cell_formula_units_Z   4
loop_
 _symmetry_equiv_pos_site_id
 _symmetry_equiv_pos_as_xyz
  1  'x, y, z'
loop_
 _atom_site_type_symbol
 _atom_site_label
 _atom_site_symmetry_multiplicity
 _atom_site_fract_x
 _atom_site_fract_y
 _atom_site_fract_z
 _atom_site_occupancy
  Cu  Cu1  1  0.49993300  0.07265600  0.50023900  1
  Cu  Cu2  1  0.49993100  0.92777300  0.50023800  1
  Cu  Cu3  1  0.99993300  0.57265600  0.50023900  1
  Cu  Cu4  1  0.99993100  0.42777300  0.50023800  1
  Cu  Cu5  1  0.00158100  0.99996700  0.92919500  1
  Cu  Cu6  1  0.99830100  0.99996700  0.07085700  1
  Cu  Cu7  1  0.50158100  0.49996700  0.92919500  1
  Cu  Cu8  1  0.49830100  0.49996700  0.07085700  1
  Cu  Cu9  1  0.54210300  0.99998300  0.03959700  1
  Cu  Cu10  1  0.45802900  0.99998000  0.96114800  1
  Cu  Cu11  1  0.04210300  0.49998300  0.03959700  1
  Cu  Cu12  1  0.95802900  0.49998000  0.96114800  1
  H  H1  1  0.78253000  0.06201000  0.68182500  1
  H  H2  1  0.21210700  0.93944000  0.31528700  1
  H  H3  1  0.21734000  0.06200200  0.31804600  1
  H  H4  1  0.78775200  0.93944000  0.68456600  1
  H  H5  1  0.28253000  0.56201000  0.68182500  1
  H  H6  1  0.71210700  0.43944000  0.31528700  1
  H  H7  1  0.71734000  0.56200200  0.31804600  1
  H  H8  1  0.28775200  0.43944000  0.68456600  1
  H  H9  1  0.71321900  0.08207600  0.62598500  1
  H  H10  1  0.28209700  0.94559500  0.38893400  1
  H  H11  1  0.28664200  0.08210700  0.37385100  1
  H  H12  1  0.71775500  0.94557400  0.61092100  1
  H  H13  1  0.21321900  0.58207600  0.62598500  1
  H  H14  1  0.78209700  0.44559500  0.38893400  1
  H  H15  1  0.78664200  0.58210700  0.37385100  1
  H  H16  1  0.21775500  0.44557400  0.61092100  1
  H  H17  1  0.71298900  0.88538900  0.68303300  1
  H  H18  1  0.28257200  0.11617000  0.27845000  1
  H  H19  1  0.28687200  0.88539900  0.31684200  1
  H  H20  1  0.71727700  0.11616600  0.72136700  1
  H  H21  1  0.21298900  0.38538900  0.68303300  1
  H  H22  1  0.78257200  0.61617000  0.27845000  1
  H  H23  1  0.78687200  0.38539900  0.31684200  1
  H  H24  1  0.21727700  0.61616600  0.72136700  1
  H  H25  1  0.71008700  0.03331900  0.81908400  1
  H  H26  1  0.28539500  0.93652200  0.19073400  1
  H  H27  1  0.28979800  0.03331600  0.18079400  1
  H  H28  1  0.71448800  0.93652700  0.80915300  1
  H  H29  1  0.21008700  0.53331900  0.81908400  1
  H  H30  1  0.78539500  0.43652200  0.19073400  1
  H  H31  1  0.78979800  0.53331600  0.18079400  1
  H  H32  1  0.21448800  0.43652700  0.80915300  1
  H  H33  1  0.78064000  0.04596400  0.88566500  1
  H  H34  1  0.21461600  0.95033400  0.11021200  1
  H  H35  1  0.21923700  0.04596600  0.11420400  1
  H  H36  1  0.78525900  0.95033200  0.88965200  1
  H  H37  1  0.28064000  0.54596400  0.88566500  1
  H  H38  1  0.71461600  0.45033400  0.11021200  1
  H  H39  1  0.71923700  0.54596600  0.11420400  1
  H  H40  1  0.28525900  0.45033200  0.88965200  1
  H  H41  1  0.83703500  0.83376500  0.73477600  1
  H  H42  1  0.84403400  0.71566000  0.82404800  1
  H  H43  1  0.78952600  0.73177800  0.87951900  1
  H  H44  1  0.16673200  0.16442000  0.28108100  1
  H  H45  1  0.14549300  0.27731800  0.17829800  1
  H  H46  1  0.18691000  0.26163700  0.09420000  1
  H  H47  1  0.16282300  0.83376200  0.26505200  1
  H  H48  1  0.15583500  0.71566000  0.17578400  1
  H  H49  1  0.21035600  0.73178400  0.12034500  1
  H  H50  1  0.83313800  0.16442800  0.71881800  1
  H  H51  1  0.85434900  0.27733900  0.82157800  1
  H  H52  1  0.81290800  0.26165700  0.90562900  1
  H  H53  1  0.33703500  0.33376500  0.73477600  1
  H  H54  1  0.34403400  0.21566000  0.82404800  1
  H  H55  1  0.28952600  0.23177800  0.87951900  1
  H  H56  1  0.66666667  0.66442000  0.28108100  1
  H  H57  1  0.64549300  0.77731800  0.17829800  1
  H  H58  1  0.68691000  0.76163700  0.09420000  1
  H  H59  1  0.66282300  0.33376200  0.26505200  1
  H  H60  1  0.65583500  0.21566000  0.17578400  1
  H  H61  1  0.71035600  0.23178400  0.12034500  1
  H  H62  1  0.33313800  0.66442800  0.71881800  1
  H  H63  1  0.35434900  0.77733900  0.82157800  1
  H  H64  1  0.31290800  0.76165700  0.90562900  1
  C  C1  1  0.50039800  0.00021400  0.36134400  1
  C  C2  1  0.49875500  0.00021500  0.63850100  1
  C  C3  1  0.00039800  0.50021400  0.36134400  1
  C  C4  1  0.99875500  0.50021500  0.63850100  1
  C  C5  1  0.58081600  0.00020500  0.57904700  1
  C  C6  1  0.41900800  0.00021200  0.42260400  1
  C  C7  1  0.08081600  0.50020500  0.57904700  1
  C  C8  1  0.91900800  0.50021200  0.42260400  1
  C  C9  1  0.72676400  0.07157100  0.69335100  1
  C  C10  1  0.27296300  0.93724400  0.32272900  1
  C  C11  1  0.27309300  0.07158200  0.30648900  1
  C  C12  1  0.72689400  0.93723200  0.67713000  1
  C  C13  1  0.22676400  0.57157100  0.69335100  1
  C  C14  1  0.77296300  0.43724400  0.32272900  1
  C  C15  1  0.77309300  0.57158200  0.30648900  1
  C  C16  1  0.22689400  0.43723200  0.67713000  1
  C  C17  1  0.77465300  0.93473200  0.72780000  1
  C  C18  1  0.22547200  0.06744900  0.26744200  1
  C  C19  1  0.22521000  0.93473500  0.27205900  1
  C  C20  1  0.77439100  0.06744900  0.73242000  1
  C  C21  1  0.27465300  0.43473200  0.72780000  1
  C  C22  1  0.72547200  0.56744900  0.26744200  1
  C  C23  1  0.72521000  0.43473500  0.27205900  1
  C  C24  1  0.27439100  0.56744900  0.73242000  1
  C  C25  1  0.87390500  0.00000500  0.87168600  1
  C  C26  1  0.12597100  0.00000300  0.12830700  1
  C  C27  1  0.37390500  0.50000500  0.87168600  1
  C  C28  1  0.62597100  0.50000300  0.12830700  1
  C  C29  1  0.71015100  0.99985000  0.70671300  1
  C  C30  1  0.28971000  0.99985700  0.29314700  1
  C  C31  1  0.21015100  0.49985000  0.70671300  1
  C  C32  1  0.78971000  0.49985700  0.29314700  1
  C  C33  1  0.78983700  0.99965300  0.78654900  1
  C  C34  1  0.21003400  0.99965300  0.21332000  1
  C  C35  1  0.28983700  0.49965300  0.78654900  1
  C  C36  1  0.71003400  0.49965300  0.21332000  1
  C  C37  1  0.77198300  0.99676700  0.84651600  1
  C  C38  1  0.22789300  0.99676600  0.15335000  1
  C  C39  1  0.27198300  0.49676700  0.84651600  1
  C  C40  1  0.72789300  0.49676600  0.15335000  1
  C  C41  1  0.72444100  0.99055600  0.79819000  1
  C  C42  1  0.27544000  0.99055400  0.20168300  1
  C  C43  1  0.22444100  0.49055600  0.79819000  1
  C  C44  1  0.77544000  0.49055400  0.20168300  1
  C  C45  1  0.83593600  0.99977100  0.83320000  1
  C  C46  1  0.16393900  0.99977000  0.16671800  1
  C  C47  1  0.33593600  0.49977100  0.83320000  1
  C  C48  1  0.66393900  0.49977000  0.16671800  1
  C  C49  1  0.66405100  0.00005000  0.66054100  1
  C  C50  1  0.33580200  0.00006100  0.33947100  1
  C  C51  1  0.16405100  0.50005000  0.66054100  1
  C  C52  1  0.83580200  0.50006100  0.33947100  1
  C  C53  1  0.62606300  0.00016500  0.62302300  1
  C  C54  1  0.37377900  0.00017600  0.37749500  1
  C  C55  1  0.12606300  0.50016500  0.62302300  1
  C  C56  1  0.87377900  0.50017600  0.37749500  1
  C  C57  1  0.50075500  0.00016800  0.28375300  1
  C  C58  1  0.49904800  0.00016900  0.71670200  1
  C  C59  1  0.00075500  0.50016800  0.28375300  1
  C  C60  1  0.99904800  0.50016900  0.71670200  1
  C  C61  1  0.50073900  0.99993000  0.21828200  1
  C  C62  1  0.49933900  0.99993000  0.78242700  1
  C  C63  1  0.00073900  0.49993000  0.21828200  1
  C  C64  1  0.99933900  0.49993000  0.78242700  1
  C  C65  1  0.99996100  0.13918400  0.00005200  1
  C  C66  1  0.99995900  0.86077500  0.00005100  1
  C  C67  1  0.49996100  0.63918400  0.00005200  1
  C  C68  1  0.49995900  0.36077500  0.00005100  1
  C  C69  1  0.91910900  0.00057400  0.91750600  1
  C  C70  1  0.08077100  0.00057200  0.08253300  1
  C  C71  1  0.41910900  0.50057400  0.91750600  1
  C  C72  1  0.58077100  0.50057200  0.08253300  1
  C  C73  1  0.50006500  0.86054300  0.00033800  1
  C  C74  1  0.50006200  0.13939500  0.00033700  1
  C  C75  1  0.00006500  0.36054300  0.00033800  1
  C  C76  1  0.00006200  0.63939500  0.00033700  1
  C  C77  1  0.50041800  0.99936800  0.14004900  1
  C  C78  1  0.49971400  0.99936800  0.86070200  1
  C  C79  1  0.00041800  0.49936800  0.14004900  1
  C  C80  1  0.99971400  0.49936800  0.86070200  1
  C  C81  1  0.00001000  0.21713100  0.00012500  1
  C  C82  1  0.00000600  0.78282000  0.00012400  1
  C  C83  1  0.50001000  0.71713100  0.00012500  1
  C  C84  1  0.50000600  0.28282000  0.00012400  1
  C  C85  1  0.50004800  0.78259600  0.00023100  1
  C  C86  1  0.50004400  0.21735000  0.00022900  1
  C  C87  1  0.00004800  0.28259600  0.00023100  1
  C  C88  1  0.00004400  0.71735000  0.00022900  1
  C  C89  1  0.78939800  0.86361300  0.77165700  1
  C  C90  1  0.81965100  0.82161000  0.76735700  1
  C  C91  1  0.82322000  0.76139900  0.81281600  1
  C  C92  1  0.79471200  0.77057000  0.84124900  1
  C  C93  1  0.20500800  0.13564300  0.22153000  1
  C  C94  1  0.17756000  0.17595800  0.23685000  1
  C  C95  1  0.16672500  0.23351700  0.18449200  1
  C  C96  1  0.18847900  0.22460100  0.14118700  1
  C  C97  1  0.21047000  0.86361600  0.22819800  1
  C  C98  1  0.18021400  0.82161000  0.23248300  1
  C  C99  1  0.17665000  0.76140100  0.18702500  1
  C  C100  1  0.20516500  0.77057500  0.15861000  1
  C  C101  1  0.79484500  0.13564900  0.77833200  1
  C  C102  1  0.82229800  0.17596800  0.76303000  1
  C  C103  1  0.83311900  0.23353400  0.81537700  1
  C  C104  1  0.81135200  0.22461700  0.85865700  1
  C  C105  1  0.28939800  0.36361300  0.77165700  1
  C  C106  1  0.31965100  0.32161000  0.76735700  1
  C  C107  1  0.32322000  0.26139900  0.81281600  1
  C  C108  1  0.29471200  0.27057000  0.84124900  1
  C  C109  1  0.70500800  0.63564300  0.22153000  1
  C  C110  1  0.67756000  0.67595800  0.23685000  1
  C  C111  1  0.66666667  0.73351700  0.18449200  1
  C  C112  1  0.68847900  0.72460100  0.14118700  1
  C  C113  1  0.71047000  0.36361600  0.22819800  1
  C  C114  1  0.68021400  0.32161000  0.23248300  1
  C  C115  1  0.67665000  0.26140100  0.18702500  1
  C  C116  1  0.70516500  0.27057500  0.15861000  1
  C  C117  1  0.29484500  0.63564900  0.77833200  1
  C  C118  1  0.32229800  0.67596800  0.76303000  1
  C  C119  1  0.33311900  0.73353400  0.81537700  1
  C  C120  1  0.31135200  0.72461700  0.85865700  1
  O  O1  1  0.50216800  0.06293900  0.39675700  1
  O  O2  1  0.50084300  0.93764200  0.60673800  1
  O  O3  1  0.50084600  0.06279200  0.60674300  1
  O  O4  1  0.50216600  0.93749400  0.39676000  1
  O  O5  1  0.00216800  0.56293900  0.39675700  1
  O  O6  1  0.00084300  0.43764200  0.60673800  1
  O  O7  1  0.00084600  0.56279200  0.60674300  1
  O  O8  1  0.00216600  0.43749400  0.39676000  1
  O  O9  1  0.56126500  0.06293100  0.55676300  1
  O  O10  1  0.43864500  0.93764400  0.43833500  1
  O  O11  1  0.43864500  0.06278800  0.43833500  1
  O  O12  1  0.56126100  0.93748900  0.55676000  1
  O  O13  1  0.06126500  0.56293100  0.55676300  1
  O  O14  1  0.93864500  0.43764400  0.43833500  1
  O  O15  1  0.93864500  0.56278800  0.43833500  1
  O  O16  1  0.06126100  0.43748900  0.55676000  1
  O  O17  1  0.99958400  0.10536200  0.93703400  1
  O  O18  1  0.00022300  0.89455300  0.06309700  1
  O  O19  1  0.00030600  0.10536000  0.06303100  1
  O  O20  1  0.99966300  0.89455000  0.93696700  1
  O  O21  1  0.49958400  0.60536200  0.93703400  1
  O  O22  1  0.50022300  0.39455300  0.06309700  1
  O  O23  1  0.50030600  0.60536000  0.06303100  1
  O  O24  1  0.49966300  0.39455000  0.93696700  1
  O  O25  1  0.94008400  0.99718600  0.87609200  1
  O  O26  1  0.05979900  0.99718300  0.12395800  1
  O  O27  1  0.44008400  0.49718600  0.87609200  1
  O  O28  1  0.55979900  0.49718300  0.12395800  1
  O  O29  1  0.93729500  0.99732600  0.99863300  1
  O  O30  1  0.06258700  0.99732200  0.00141200  1
  O  O31  1  0.43729500  0.49732600  0.99863300  1
  O  O32  1  0.56258700  0.49732200  0.00141200  1
  O  O33  1  0.53637700  0.89436800  0.03118000  1
  O  O34  1  0.46366900  0.10561400  0.96934700  1
  O  O35  1  0.46375800  0.89436800  0.96955800  1
  O  O36  1  0.53646200  0.10561900  0.03138800  1
  O  O37  1  0.03637700  0.39436800  0.03118000  1
  O  O38  1  0.96366900  0.60561400  0.96934700  1
  O  O39  1  0.96375800  0.39436800  0.96955800  1
  O  O40  1  0.03646200  0.60561900  0.03138800  1
  O  O41  1  0.53662000  0.00262800  0.14006900  1
  O  O42  1  0.46351400  0.00262700  0.86068100  1
  O  O43  1  0.03662000  0.50262800  0.14006900  1
  O  O44  1  0.96351400  0.50262700  0.86068100  1
  O  O45  1  0.46390900  0.00275800  0.07224400  1
  O  O46  1  0.53622600  0.00276200  0.92850200  1
  O  O47  1  0.96390900  0.50275800  0.07224400  1
  O  O48  1  0.03622600  0.50276200  0.92850200  1
  O  O49  1  0.77381200  0.83263400  0.81608100  1
  O  O50  1  0.21202000  0.16516500  0.16364200  1
  O  O51  1  0.22606300  0.83263900  0.18378600  1
  O  O52  1  0.78781700  0.16517500  0.83619700  1
  O  O53  1  0.27381200  0.33263400  0.81608100  1
  O  O54  1  0.71202000  0.66516500  0.16364200  1
  O  O55  1  0.72606300  0.33263900  0.18378600  1
  O  O56  1  0.28781700  0.66517500  0.83619700  1
