# generated using pymatgen
data_Cu6H52(C31O8)3
_symmetry_space_group_name_H-M   'P 1'
_cell_length_a   18.55968700
_cell_length_b   18.62751300
_cell_length_c   18.69346100
_cell_angle_alpha   109.36459200
_cell_angle_beta   109.83413800
_cell_angle_gamma   108.98688600
_symmetry_Int_Tables_number   1
_chemical_formula_structural   Cu6H52(C31O8)3
_chemical_formula_sum   'Cu6 H52 C93 O24'
_cell_volume   4988.74988712
_cell_formula_units_Z   1
loop_
 _symmetry_equiv_pos_site_id
 _symmetry_equiv_pos_as_xyz
  1  'x, y, z'
loop_
 _atom_site_type_symbol
 _atom_site_label
 _atom_site_symmetry_multiplicity
 _atom_site_fract_x
 _atom_site_fract_y
 _atom_site_fract_z
 _atom_site_occupancy
  Cu  Cu1  1  0.50049700  0.44059800  0.43979400  1
  Cu  Cu2  1  0.49849700  0.56116600  0.55959400  1
  Cu  Cu3  1  0.94345500  0.44063500  0.00390900  1
  Cu  Cu4  1  0.06514200  0.56099800  0.00392100  1
  Cu  Cu5  1  0.06330800  0.00003000  0.56241900  1
  Cu  Cu6  1  0.94100100  0.00118000  0.44161500  1
  H  H1  1  0.23877800  0.62910900  0.31367000  1
  H  H2  1  0.39233300  0.62935100  0.31754600  1
  H  H3  1  0.28830000  0.49998500  0.13840700  1
  H  H4  1  0.26361200  0.37050000  0.18821200  1
  H  H5  1  0.11096700  0.37026100  0.18546400  1
  H  H6  1  0.21465400  0.49983400  0.36414500  1
  H  H7  1  0.84757700  0.54774700  0.50882500  1
  H  H8  1  0.54906000  0.71415800  0.48801000  1
  H  H9  1  0.53997000  0.84078300  0.49231000  1
  H  H10  1  0.66037700  0.96022500  0.50599500  1
  H  H11  1  0.78828300  0.95143500  0.51270800  1
  H  H12  1  0.94206200  0.77691800  0.49266400  1
  H  H13  1  0.95577000  0.65494300  0.49778300  1
  H  H14  1  0.72468300  0.56154800  0.51218400  1
  H  H15  1  0.54378600  0.20425300  0.55080500  1
  H  H16  1  0.72392000  0.66400400  0.71393100  1
  H  H17  1  0.84598100  0.79892400  0.83989700  1
  H  H18  1  0.95470700  0.79899600  0.95953500  1
  H  H19  1  0.94234100  0.66414300  0.95175700  1
  H  H20  1  0.79071200  0.33905600  0.78022300  1
  H  H21  1  0.66408000  0.20421300  0.65888300  1
  H  H22  1  0.55163300  0.33913900  0.56318200  1
  H  H23  1  0.15449200  0.15957800  0.20249600  1
  H  H24  1  0.44921600  0.44177900  0.66303400  1
  H  H25  1  0.45818900  0.45599400  0.79837700  1
  H  H26  1  0.34032500  0.34779700  0.79892900  1
  H  H27  1  0.21510800  0.22440500  0.66414800  1
  H  H28  1  0.06344000  0.04945800  0.33917000  1
  H  H29  1  0.04888900  0.04013400  0.20353100  1
  H  H30  1  0.27557100  0.28687400  0.33707600  1
  H  H31  1  0.70394200  0.54954600  0.04276400  1
  H  H32  1  0.16726200  0.71324900  0.22739900  1
  H  H33  1  0.30262900  0.83903000  0.34933700  1
  H  H34  1  0.30188200  0.95850100  0.45567700  1
  H  H35  1  0.16574200  0.95052300  0.44106700  1
  H  H36  1  0.83851600  0.77807800  0.28787300  1
  H  H37  1  0.70316000  0.65686700  0.16127000  1
  H  H38  1  0.84010200  0.56248900  0.05243000  1
  H  H39  1  0.00078300  0.15459300  0.95625100  1
  H  H40  1  0.99934900  0.44380400  0.78339100  1
  H  H41  1  0.01038400  0.46154200  0.66666667  1
  H  H42  1  0.02011000  0.22705300  0.56836000  1
  H  H43  1  0.98638700  0.04724900  0.71164100  1
  H  H44  1  0.98735200  0.03539500  0.83573600  1
  H  H45  1  0.01067700  0.28408600  0.95111400  1
  H  H46  1  0.02627500  0.42081700  0.54637000  1
  H  H47  1  0.10820600  0.30191700  0.52352500  1
  H  H48  1  0.16629000  0.41432100  0.61042200  1
  H  H49  1  0.12133800  0.38835400  0.49726800  1
  H  H50  1  0.94787400  0.22271700  0.43430100  1
  H  H51  1  0.94976100  0.30163200  0.39835000  1
  H  H52  1  0.88523600  0.27743200  0.44951200  1
  C  C1  1  0.61730400  0.61850600  0.50011000  1
  C  C2  1  0.38098900  0.50030700  0.38098200  1
  C  C3  1  0.38215600  0.38327200  0.49976800  1
  C  C4  1  0.61829700  0.50148600  0.61861700  1
  C  C5  1  0.32753900  0.57060800  0.28659100  1
  C  C6  1  0.24541400  0.57047900  0.28623100  1
  C  C7  1  0.19148800  0.49983400  0.19128300  1
  C  C8  1  0.27247000  0.49998400  0.19051900  1
  C  C9  1  0.25753100  0.42936100  0.21632300  1
  C  C10  1  0.17543300  0.42923200  0.21597100  1
  C  C11  1  0.23050900  0.49989500  0.31205900  1
  C  C12  1  0.31147100  0.50000400  0.31127200  1
  C  C13  1  0.60408300  0.76450600  0.49426600  1
  C  C14  1  0.59768000  0.83644400  0.49599800  1
  C  C15  1  0.66483400  0.90305300  0.50332100  1
  C  C16  1  0.73748500  0.89681500  0.50639300  1
  C  C17  1  0.74404700  0.82339200  0.50232500  1
  C  C18  1  0.67813800  0.75805300  0.49949500  1
  C  C19  1  0.81609600  0.81552500  0.50212500  1
  C  C20  1  0.82292200  0.74301100  0.50125600  1
  C  C21  1  0.75911400  0.67977900  0.50268600  1
  C  C22  1  0.68600700  0.68659000  0.50072900  1
  C  C23  1  0.89265500  0.73222100  0.49778500  1
  C  C24  1  0.90098900  0.66222300  0.49999600  1
  C  C25  1  0.84035500  0.60214700  0.50587000  1
  C  C26  1  0.76984100  0.61053000  0.50708800  1
  C  C27  1  0.76937100  0.65984800  0.76441400  1
  C  C28  1  0.83936900  0.73770300  0.83597700  1
  C  C29  1  0.90030300  0.73774200  0.90272500  1
  C  C30  1  0.89273400  0.65991800  0.89710100  1
  C  C31  1  0.82347400  0.58044400  0.82417300  1
  C  C32  1  0.75946700  0.58042100  0.75854700  1
  C  C33  1  0.81736200  0.50161300  0.81712200  1
  C  C34  1  0.74586300  0.42277400  0.74502800  1
  C  C35  1  0.67991600  0.42277200  0.68136700  1
  C  C36  1  0.68701700  0.50158400  0.68742100  1
  C  C37  1  0.73994700  0.34329300  0.73511300  1
  C  C38  1  0.66801000  0.26545700  0.66548900  1
  C  C39  1  0.60091100  0.26547700  0.60491800  1
  C  C40  1  0.60659600  0.34332600  0.61247700  1
  C  C41  1  0.39532300  0.39234700  0.65903400  1
  C  C42  1  0.40164100  0.40099500  0.73717000  1
  C  C43  1  0.33589900  0.34037200  0.73748700  1
  C  C44  1  0.26476600  0.26962400  0.65971500  1
  C  C45  1  0.25829100  0.25870000  0.58002900  1
  C  C46  1  0.32267900  0.32235000  0.57959000  1
  C  C47  1  0.18761100  0.18565100  0.50134400  1
  C  C48  1  0.18042500  0.17770100  0.42215800  1
  C  C49  1  0.24275100  0.24321600  0.42162600  1
  C  C50  1  0.31465700  0.31517800  0.50035000  1
  C  C51  1  0.11166900  0.10403700  0.34288100  1
  C  C52  1  0.10289800  0.09752700  0.26463400  1
  C  C53  1  0.16210000  0.16414800  0.26405600  1
  C  C54  1  0.23161400  0.23646100  0.34174800  1
  C  C55  1  0.00383300  0.61854100  0.12081300  1
  C  C56  1  0.12225300  0.50007700  0.12182900  1
  C  C57  1  0.00440800  0.38312000  0.88658700  1
  C  C58  1  0.88605700  0.50155500  0.88580800  1
  C  C59  1  0.00206500  0.88321600  0.38414300  1
  C  C60  1  0.88445800  0.88333600  0.50211600  1
  C  C61  1  0.00234100  0.11793600  0.62000300  1
  C  C62  1  0.11972600  0.11783300  0.50177400  1
  C  C63  1  0.16268700  0.76360800  0.27176800  1
  C  C64  1  0.24083500  0.83507300  0.34173800  1
  C  C65  1  0.24041300  0.90169300  0.40134000  1
  C  C66  1  0.16183800  0.89592200  0.39253100  1
  C  C67  1  0.08206600  0.82296500  0.32337600  1
  C  C68  1  0.08250900  0.75765200  0.26064700  1
  C  C69  1  0.00245700  0.81550700  0.31612800  1
  C  C70  1  0.92329100  0.74353700  0.24477000  1
  C  C71  1  0.92374100  0.68030300  0.17994600  1
  C  C72  1  0.00335000  0.68669000  0.18829100  1
  C  C73  1  0.84310600  0.73329200  0.23791700  1
  C  C74  1  0.76496800  0.66374400  0.16598800  1
  C  C75  1  0.76540600  0.60359900  0.09988600  1
  C  C76  1  0.84398600  0.61148700  0.10659900  1
  C  C77  1  0.00488000  0.39471000  0.73866800  1
  C  C78  1  0.01047000  0.40515900  0.67099600  1
  C  C79  1  0.01689400  0.34508100  0.61040300  1
  C  C80  1  0.01482900  0.27275800  0.61665000  1
  C  C81  1  0.00737700  0.26041000  0.68382700  1
  C  C82  1  0.00579400  0.32368100  0.74738400  1
  C  C83  1  0.00271000  0.18604100  0.68832800  1
  C  C84  1  0.99928400  0.17656100  0.75807600  1
  C  C85  1  0.00208500  0.24191000  0.82394500  1
  C  C86  1  0.00404300  0.31505600  0.81810700  1
  C  C87  1  0.99235700  0.10165200  0.76245000  1
  C  C88  1  0.99225900  0.09373000  0.83293800  1
  C  C89  1  0.99945400  0.16021900  0.90015100  1
  C  C90  1  0.00430000  0.23379800  0.89595400  1
  C  C91  1  0.02524200  0.35877400  0.53843900  1
  C  C92  1  0.11069500  0.36603400  0.54274600  1
  C  C93  1  0.94706400  0.28514700  0.44953300  1
  O  O1  1  0.57183000  0.53837700  0.43226400  1
  O  O2  1  0.60408400  0.64039000  0.56749300  1
  O  O3  1  0.39425300  0.43266300  0.35955900  1
  O  O4  1  0.42609700  0.56821200  0.46095500  1
  O  O5  1  0.42889600  0.36154700  0.46592900  1
  O  O6  1  0.39321600  0.46322000  0.53313800  1
  O  O7  1  0.60646100  0.46722200  0.53858000  1
  O  O8  1  0.57120000  0.53543600  0.63968700  1
  O  O9  1  0.96968000  0.53846400  0.10899000  1
  O  O10  1  0.03844500  0.64036700  0.07497400  1
  O  O11  1  0.04178500  0.43241300  0.07587900  1
  O  O12  1  0.14460300  0.56804000  0.10953400  1
  O  O13  1  0.93611200  0.36152400  0.89883200  1
  O  O14  1  0.07294700  0.46293200  0.93284500  1
  O  O15  1  0.86398700  0.46753700  0.93195800  1
  O  O16  1  0.96680300  0.53527500  0.89828400  1
  O  O17  1  0.03694600  0.89504800  0.46434300  1
  O  O18  1  0.96705300  0.92937800  0.36222200  1
  O  O19  1  0.96535500  0.92857000  0.56989400  1
  O  O20  1  0.86195800  0.89613700  0.43426600  1
  O  O21  1  0.07075500  0.10518100  0.64183000  1
  O  O22  1  0.93391200  0.07281700  0.53973500  1
  O  O23  1  0.14230600  0.07167800  0.53622200  1
  O  O24  1  0.03897200  0.10603500  0.46764400  1
