# generated using pymatgen
data_Cu2H17C30N2ClO8
_symmetry_space_group_name_H-M   'P 1'
_cell_length_a   10.61962000
_cell_length_b   10.82075600
_cell_length_c   9.41435500
_cell_angle_alpha   89.98648400
_cell_angle_beta   90.00189000
_cell_angle_gamma   90.01044700
_symmetry_Int_Tables_number   1
_chemical_formula_structural   Cu2H17C30N2ClO8
_chemical_formula_sum   'Cu2 H17 C30 N2 Cl1 O8'
_cell_volume   1081.82529586
_cell_formula_units_Z   1
loop_
 _symmetry_equiv_pos_site_id
 _symmetry_equiv_pos_as_xyz
  1  'x, y, z'
loop_
 _atom_site_type_symbol
 _atom_site_label
 _atom_site_symmetry_multiplicity
 _atom_site_fract_x
 _atom_site_fract_y
 _atom_site_fract_z
 _atom_site_occupancy
  Cu  Cu1  1  0.49783800  0.49664700  0.63721700  1
  Cu  Cu2  1  0.49432100  0.50047900  0.35805500  1
  H  H1  1  0.91709400  0.28848300  0.47892800  1
  H  H2  1  0.07038700  0.38022400  0.70034900  1
  H  H3  1  0.91823500  0.59192300  0.71394900  1
  H  H4  1  0.07596700  0.70823800  0.51549500  1
  H  H5  1  0.92302200  0.61658400  0.29380300  1
  H  H6  1  0.07675500  0.40463100  0.28115200  1
  H  H7  1  0.48248700  0.10874800  0.27686700  1
  H  H8  1  0.61116500  0.21050000  0.75013500  1
  H  H9  1  0.58971500  0.10945900  0.97664000  1
  H  H10  1  0.49252600  0.90403400  0.99215900  1
  H  H11  1  0.43005600  0.79658200  0.78074100  1
  H  H12  1  0.47166100  0.88573200  0.28132000  1
  H  H13  1  0.36154200  0.36279400  0.12763800  1
  H  H14  1  0.62961400  0.70145300  0.24701100  1
  H  H15  1  0.81556300  0.78336000  0.87092500  1
  H  H16  1  0.69924500  0.63394600  0.74845300  1
  H  H17  1  0.36139300  0.36247300  0.86816500  1
  C  C1  1  0.50556800  0.26373500  0.49679600  1
  C  C2  1  0.25735900  0.49678700  0.50108900  1
  C  C3  1  0.48579300  0.73395000  0.50481300  1
  C  C4  1  0.73530000  0.49862100  0.49405600  1
  C  C5  1  0.03533300  0.43377200  0.60800800  1
  C  C6  1  0.95474300  0.38379300  0.48749700  1
  C  C7  1  0.87551000  0.49923200  0.49435000  1
  C  C8  1  0.95399400  0.54926900  0.61497800  1
  C  C9  1  0.03828000  0.61294000  0.50694300  1
  C  C10  1  0.95763800  0.56287300  0.38622900  1
  C  C11  1  0.03911000  0.44749100  0.37935800  1
  C  C12  1  0.11736200  0.49755400  0.50012500  1
  C  C13  1  0.56687100  0.12084200  0.75201600  1
  C  C14  1  0.55880200  0.06264900  0.88139100  1
  C  C15  1  0.50633900  0.94729500  0.88985800  1
  C  C16  1  0.47520300  0.88494300  0.76763800  1
  C  C17  1  0.49488100  0.93818200  0.63473500  1
  C  C18  1  0.52419100  0.06316000  0.62890800  1
  C  C19  1  0.51241700  0.12735200  0.50070700  1
  C  C20  1  0.49159100  0.06148700  0.37747600  1
  C  C21  1  0.48203400  0.93443800  0.38075000  1
  C  C22  1  0.48330200  0.87088000  0.50839000  1
  C  C23  1  0.63943900  0.67799400  0.13843000  1
  C  C24  1  0.72504400  0.74961500  0.06762300  1
  C  C25  1  0.74549500  0.72991800  0.92720100  1
  C  C26  1  0.67493600  0.64367300  0.85677100  1
  C  C27  1  0.58187400  0.57391100  0.92421300  1
  C  C28  1  0.57065900  0.58488700  0.07094300  1
  C  C29  1  0.42280300  0.42583000  0.07148900  1
  C  C30  1  0.42400100  0.42440300  0.92401800  1
  N  N1  1  0.49370500  0.50719500  0.14492600  1
  N  N2  1  0.50474900  0.49613700  0.85027900  1
  Cl  Cl1  1  0.81016200  0.86348700  0.15841900  1
  O  O1  1  0.46751100  0.32005500  0.61357200  1
  O  O2  1  0.52705500  0.32317000  0.37537500  1
  O  O3  1  0.31689700  0.52606100  0.62010700  1
  O  O4  1  0.31464200  0.46796300  0.38117600  1
  O  O5  1  0.52675700  0.67390000  0.61652100  1
  O  O6  1  0.46031300  0.67659300  0.38480700  1
  O  O7  1  0.67766600  0.46633400  0.61121300  1
  O  O8  1  0.67476400  0.53150200  0.37852200  1
