# generated using pymatgen
data_Cu6H35C58(ClO8)3
_symmetry_space_group_name_H-M   'P 1'
_cell_length_a   18.81110600
_cell_length_b   18.73509800
_cell_length_c   18.94679500
_cell_angle_alpha   108.97016400
_cell_angle_beta   110.26325600
_cell_angle_gamma   108.79935000
_symmetry_Int_Tables_number   1
_chemical_formula_structural   Cu6H35C58(ClO8)3
_chemical_formula_sum   'Cu6 H35 C58 Cl3 O24'
_cell_volume   5163.51074519
_cell_formula_units_Z   1
loop_
 _symmetry_equiv_pos_site_id
 _symmetry_equiv_pos_as_xyz
  1  'x, y, z'
loop_
 _atom_site_type_symbol
 _atom_site_label
 _atom_site_symmetry_multiplicity
 _atom_site_fract_x
 _atom_site_fract_y
 _atom_site_fract_z
 _atom_site_occupancy
  Cu  Cu1  1  0.52531200  0.45356600  0.43320400  1
  Cu  Cu2  1  0.50838800  0.56580600  0.54658800  1
  Cu  Cu3  1  0.95264100  0.45557700  0.01975600  1
  Cu  Cu4  1  0.06772000  0.56465300  0.00153600  1
  Cu  Cu5  1  0.94932600  0.02559800  0.44606200  1
  Cu  Cu6  1  0.07574700  0.02325400  0.55933700  1
  H  H1  1  0.20564200  0.57767100  0.31229200  1
  H  H2  1  0.38050800  0.64854100  0.35216700  1
  H  H3  1  0.32251200  0.57901900  0.17448600  1
  H  H4  1  0.32532300  0.42751100  0.16944000  1
  H  H5  1  0.15010900  0.35670100  0.12933300  1
  H  H6  1  0.20882900  0.42637100  0.30752800  1
  H  H7  1  0.86234100  0.82646800  0.56171400  1
  H  H8  1  0.65047500  0.79202600  0.52735800  1
  H  H9  1  0.73684200  0.68939600  0.47223700  1
  H  H10  1  0.88777900  0.51342700  0.75808800  1
  H  H11  1  0.75298100  0.47848600  0.81587300  1
  H  H12  1  0.75651100  0.46887300  0.61954200  1
  H  H13  1  0.71051500  0.55523700  0.75084000  1
  H  H14  1  0.29289300  0.23291700  0.60281100  1
  H  H15  1  0.16327500  0.22613100  0.44611500  1
  H  H16  1  0.37845000  0.37836000  0.61066800  1
  H  H17  1  0.02682500  0.77248800  0.38192200  1
  H  H18  1  0.97618600  0.83238200  0.24914800  1
  H  H19  1  0.98702800  0.64087200  0.25173600  1
  H  H20  1  0.05870200  0.77575400  0.20145800  1
  H  H21  1  0.93219600  0.22733500  0.61567700  1
  H  H22  1  0.08120000  0.23887500  0.76075400  1
  H  H23  1  0.98927000  0.37237900  0.74987400  1
  H  H24  1  0.23813000  0.27192600  0.31931800  1
  H  H25  1  0.16138700  0.13259200  0.18628700  1
  H  H26  1  0.26343200  0.02254800  0.33195500  1
  H  H27  1  0.34136300  0.16170700  0.46492500  1
  H  H28  1  0.07263500  0.28553400  0.94862800  1
  H  H29  1  0.03514500  0.15145700  0.95679500  1
  H  H30  1  0.80569700  0.01642000  0.71061700  1
  H  H31  1  0.84199000  0.15035500  0.70244800  1
  H  H32  1  0.61069700  0.78533700  0.35999600  1
  H  H33  1  0.55283700  0.87007400  0.30914800  1
  H  H34  1  0.77272900  0.10336500  0.52868300  1
  H  H35  1  0.83053400  0.01899600  0.58026100  1
  C  C1  1  0.63123100  0.63545900  0.49573600  1
  C  C2  1  0.39660700  0.50240500  0.36573200  1
  C  C3  1  0.40358700  0.38341700  0.48436600  1
  C  C4  1  0.63738600  0.51798400  0.61488900  1
  C  C5  1  0.32722100  0.58226000  0.30086300  1
  C  C6  1  0.23355100  0.54350700  0.28066400  1
  C  C7  1  0.20448600  0.50535900  0.18595100  1
  C  C8  1  0.29716900  0.54408700  0.20511000  1
  C  C9  1  0.29751600  0.46166600  0.20124200  1
  C  C10  1  0.20345700  0.42292900  0.18072700  1
  C  C11  1  0.23364300  0.46126800  0.27662400  1
  C  C12  1  0.32638800  0.50000400  0.29598500  1
  C  C13  1  0.75777700  0.84500000  0.50354000  1
  C  C14  1  0.83913000  0.85818200  0.52794100  1
  C  C15  1  0.69848600  0.78069300  0.51384600  1
  C  C16  1  0.69597100  0.70476000  0.49596200  1
  C  C17  1  0.82745500  0.50472700  0.75684700  1
  C  C18  1  0.81603700  0.49774700  0.82063300  1
  C  C19  1  0.75791600  0.49360000  0.68055700  1
  C  C20  1  0.70330800  0.52226000  0.68800700  1
  C  C21  1  0.27090800  0.24640000  0.55018600  1
  C  C22  1  0.18649000  0.20505000  0.49203100  1
  C  C23  1  0.33351100  0.31803500  0.55028900  1
  C  C24  1  0.33985500  0.30977000  0.48015500  1
  C  C25  1  0.02394900  0.63904400  0.12918400  1
  C  C26  1  0.13324000  0.50841500  0.12297700  1
  C  C27  1  0.99535100  0.38140200  0.89157800  1
  C  C28  1  0.88670200  0.50611800  0.89308600  1
  C  C29  1  0.02439500  0.14579500  0.62402000  1
  C  C30  1  0.90196700  0.91741800  0.51649700  1
  C  C31  1  0.00143800  0.90323800  0.38134600  1
  C  C32  1  0.12302700  0.13718000  0.49431200  1
  C  C33  1  0.01411500  0.77409900  0.32230200  1
  C  C34  1  0.99707000  0.83486400  0.31127100  1
  C  C35  1  0.00679200  0.70234900  0.25253400  1
  C  C36  1  0.03076600  0.71254400  0.19620700  1
  C  C37  1  0.97683600  0.24576300  0.68106100  1
  C  C38  1  0.03062200  0.21353200  0.69538600  1
  C  C39  1  0.98466200  0.31459400  0.75339000  1
  C  C40  1  0.98325800  0.30768500  0.82111700  1
  C  C41  1  0.29294200  0.22547300  0.40115800  1
  C  C42  1  0.24372600  0.21723700  0.32243600  1
  C  C43  1  0.20048400  0.13897400  0.24767400  1
  C  C44  1  0.20707300  0.06888500  0.25114500  1
  C  C45  1  0.25750600  0.07725500  0.32932800  1
  C  C46  1  0.30078500  0.15544900  0.40414500  1
  C  C47  1  0.96125600  0.22625100  0.82383500  1
  C  C48  1  0.01408700  0.22646800  0.89594000  1
  C  C49  1  0.99316400  0.15115600  0.90059000  1
  C  C50  1  0.91866900  0.07556500  0.83373900  1
  C  C51  1  0.86472900  0.07546300  0.76253700  1
  C  C52  1  0.88567900  0.15068900  0.75769500  1
  C  C53  1  0.72597400  0.89670000  0.47196000  1
  C  C54  1  0.64691600  0.85525400  0.39703600  1
  C  C55  1  0.61430700  0.90277700  0.36832700  1
  C  C56  1  0.65982700  0.99192000  0.41522700  1
  C  C57  1  0.73765500  0.03349600  0.49119400  1
  C  C58  1  0.77043500  0.98600900  0.51977200  1
  Cl  Cl1  1  0.15213400  0.96948600  0.15620800  1
  Cl  Cl2  1  0.89194200  0.97996300  0.83974100  1
  Cl  Cl3  1  0.61817000  0.05226000  0.37902000  1
  O  O1  1  0.60994000  0.55646100  0.44473500  1
  O  O2  1  0.59201700  0.65321700  0.53908000  1
  O  O3  1  0.43203900  0.45433500  0.34623600  1
  O  O4  1  0.41451600  0.54806000  0.44454600  1
  O  O5  1  0.43387000  0.36551900  0.43216800  1
  O  O6  1  0.42241900  0.46261600  0.53381300  1
  O  O7  1  0.61177700  0.46332000  0.53532600  1
  O  O8  1  0.60006300  0.56352700  0.63329800  1
  O  O9  1  0.97368300  0.56049100  0.11069800  1
  O  O10  1  0.06771000  0.65483200  0.08992200  1
  O  O11  1  0.05421400  0.46573300  0.10758400  1
  O  O12  1  0.15352500  0.55995700  0.09178700  1
  O  O13  1  0.95245400  0.36547900  0.93128400  1
  O  O14  1  0.04661900  0.45977000  0.91052000  1
  O  O15  1  0.86729000  0.46477300  0.93361500  1
  O  O16  1  0.96668600  0.55878900  0.91767100  1
  O  O17  1  0.95282500  0.10166600  0.54776400  1
  O  O18  1  0.09015500  0.13024900  0.64048000  1
  O  O19  1  0.87451100  0.92560900  0.44672900  1
  O  O20  1  0.98481700  0.95738100  0.57600600  1
  O  O21  1  0.96554300  0.94926300  0.36183800  1
  O  O22  1  0.04193900  0.91661300  0.46074400  1
  O  O23  1  0.04337300  0.12568100  0.46341100  1
  O  O24  1  0.14741600  0.09036100  0.52587400  1
