# generated using pymatgen
data_CuH34C39N2O11
_symmetry_space_group_name_H-M   'P 1'
_cell_length_a   27.59325600
_cell_length_b   12.98790500
_cell_length_c   11.55965100
_cell_angle_alpha   99.69524400
_cell_angle_beta   94.23021700
_cell_angle_gamma   89.98649300
_symmetry_Int_Tables_number   1
_chemical_formula_structural   CuH34C39N2O11
_chemical_formula_sum   'Cu2 H68 C78 N4 O22'
_cell_volume   4072.12489075
_cell_formula_units_Z   2
loop_
 _symmetry_equiv_pos_site_id
 _symmetry_equiv_pos_as_xyz
  1  'x, y, z'
loop_
 _atom_site_type_symbol
 _atom_site_label
 _atom_site_symmetry_multiplicity
 _atom_site_fract_x
 _atom_site_fract_y
 _atom_site_fract_z
 _atom_site_occupancy
  Cu  Cu1  1  0.50352900  0.50989300  0.61094400  1
  Cu  Cu2  1  0.49702200  0.49709300  0.37710200  1
  H  H1  1  0.26309100  0.40547400  0.62733400  1
  H  H2  1  0.73732700  0.59270900  0.35340900  1
  H  H3  1  0.11721700  0.24636500  0.39487900  1
  H  H4  1  0.88222000  0.76330400  0.54088200  1
  H  H5  1  0.74680400  0.42737000  0.64247200  1
  H  H6  1  0.25388400  0.58784900  0.35341700  1
  H  H7  1  0.96356800  0.24127100  0.44978900  1
  H  H8  1  0.03906500  0.76003000  0.59701600  1
  H  H9  1  0.03235900  0.24428700  0.39229600  1
  H  H10  1  0.96691500  0.76559900  0.54061500  1
  H  H11  1  0.50458200  0.81730000  0.34650200  1
  H  H12  1  0.49611200  0.18967000  0.64153100  1
  H  H13  1  0.50788200  0.96753800  0.25655400  1
  H  H14  1  0.49295700  0.03949900  0.73148800  1
  H  H15  1  0.45105500  0.41386200  0.78664700  1
  H  H16  1  0.55093400  0.58926400  0.20064500  1
  H  H17  1  0.56799800  0.62383100  0.80533600  1
  H  H18  1  0.43444800  0.37825500  0.18229300  1
  H  H19  1  0.39753900  0.26897500  0.55462600  1
  H  H20  1  0.33654500  0.27848900  0.48997400  1
  H  H21  1  0.30362700  0.22623400  0.66685000  1
  H  H22  1  0.34378800  0.12875100  0.59656100  1
  H  H23  1  0.36505800  0.21546100  0.73007200  1
  H  H24  1  0.66407800  0.72561500  0.48820200  1
  H  H25  1  0.60318600  0.73369800  0.42230200  1
  H  H26  1  0.63585100  0.78145900  0.24454400  1
  H  H27  1  0.65766800  0.87090400  0.37541000  1
  H  H28  1  0.69728100  0.77081900  0.30789100  1
  H  H29  1  0.41725300  0.84041200  0.67638900  1
  H  H30  1  0.43356900  0.92930500  0.81234500  1
  H  H31  1  0.44944100  0.77728500  0.91430100  1
  H  H32  1  0.38749600  0.77824300  0.85082100  1
  H  H33  1  0.43098000  0.68993100  0.77892500  1
  H  H34  1  0.56763900  0.07803100  0.17699200  1
  H  H35  1  0.58355400  0.16767800  0.31264600  1
  H  H36  1  0.56975000  0.31733500  0.20893500  1
  H  H37  1  0.61346400  0.22910600  0.13786100  1
  H  H38  1  0.55156800  0.22929800  0.07387000  1
  H  H39  1  0.36169800  0.42755100  0.87169200  1
  H  H40  1  0.38086900  0.48978100  0.01888900  1
  H  H41  1  0.34523100  0.34239600  0.09825000  1
  H  H42  1  0.30031900  0.40323500  0.01042200  1
  H  H43  1  0.32630500  0.27961500  0.94984300  1
  H  H44  1  0.62103800  0.50654700  0.96441700  1
  H  H45  1  0.64155100  0.56603600  0.11170900  1
  H  H46  1  0.67829300  0.71331000  0.03487800  1
  H  H47  1  0.70253900  0.58868600  0.97151900  1
  H  H48  1  0.65805200  0.65309800  0.88635400  1
  H  H49  1  0.68741900  0.27377000  0.59832000  1
  H  H50  1  0.62933500  0.29619000  0.52312000  1
  H  H51  1  0.58889300  0.28184100  0.70554200  1
  H  H52  1  0.62165100  0.16471400  0.65170400  1
  H  H53  1  0.64718000  0.25637600  0.77696900  1
  H  H54  1  0.37421900  0.71311300  0.47591800  1
  H  H55  1  0.31458200  0.73906800  0.41099900  1
  H  H56  1  0.35010700  0.76667100  0.22966800  1
  H  H57  1  0.37835000  0.85256800  0.35639400  1
  H  H58  1  0.40987600  0.73756900  0.29040900  1
  H  H59  1  0.90703700  0.14846800  0.29363200  1
  H  H60  1  0.86411300  0.24907600  0.26647700  1
  H  H61  1  0.79643200  0.13694900  0.30399100  1
  H  H62  1  0.83163400  0.07048600  0.18853500  1
  H  H63  1  0.83934500  0.03787400  0.33493400  1
  H  H64  1  0.13677000  0.71267300  0.76356300  1
  H  H65  1  0.09605700  0.82250800  0.76560800  1
  H  H66  1  0.16635300  0.93956400  0.75803900  1
  H  H67  1  0.17221400  0.87483500  0.88526400  1
  H  H68  1  0.20697900  0.83027600  0.76004400  1
  C  C1  1  0.50194000  0.30276100  0.47000800  1
  C  C2  1  0.49862100  0.70423600  0.51802600  1
  C  C3  1  0.40693500  0.49892400  0.49125400  1
  C  C4  1  0.59363900  0.50806700  0.49683100  1
  C  C5  1  0.17558200  0.40988700  0.46082800  1
  C  C6  1  0.82493900  0.59701500  0.51271900  1
  C  C7  1  0.17892200  0.59013800  0.52814800  1
  C  C8  1  0.82236800  0.41433400  0.47509900  1
  C  C9  1  0.27552000  0.54837200  0.41401500  1
  C  C10  1  0.72520400  0.46295900  0.57829600  1
  C  C11  1  0.32558300  0.55015600  0.41417000  1
  C  C12  1  0.67514200  0.46099500  0.57793100  1
  C  C13  1  0.33056800  0.44350600  0.56470400  1
  C  C14  1  0.67006000  0.55942400  0.41992600  1
  C  C15  1  0.28059800  0.44566200  0.56678400  1
  C  C16  1  0.72000200  0.55629200  0.41736900  1
  C  C17  1  0.25295800  0.49779300  0.49142800  1
  C  C18  1  0.74778400  0.50849900  0.49670200  1
  C  C19  1  0.10151700  0.50195000  0.49659000  1
  C  C20  1  0.89942900  0.50325200  0.49253900  1
  C  C21  1  0.12554300  0.41019400  0.46163900  1
  C  C22  1  0.87496400  0.59637600  0.51167300  1
  C  C23  1  0.09945400  0.31895500  0.42545400  1
  C  C24  1  0.90051000  0.68912700  0.52897300  1
  C  C25  1  0.12853400  0.59299500  0.53165200  1
  C  C26  1  0.87282600  0.41088500  0.47305200  1
  C  C27  1  0.35355800  0.49754400  0.48995200  1
  C  C28  1  0.64706500  0.50943700  0.49828300  1
  C  C29  1  0.97421400  0.40913400  0.47090100  1
  C  C30  1  0.02695900  0.59562100  0.52563700  1
  C  C31  1  0.97601600  0.59671100  0.51703300  1
  C  C32  1  0.02475400  0.40916000  0.46499800  1
  C  C33  1  0.94998400  0.50302100  0.49316200  1
  C  C34  1  0.05097600  0.50222600  0.49608800  1
  C  C35  1  0.94718300  0.31687300  0.45606600  1
  C  C36  1  0.05468900  0.68587000  0.56515700  1
  C  C37  1  0.89729100  0.31695400  0.45368900  1
  C  C38  1  0.10463400  0.68478400  0.57066500  1
  C  C39  1  0.04983100  0.31818800  0.42664600  1
  C  C40  1  0.95022200  0.68961600  0.53103700  1
  C  C41  1  0.49788600  0.81906800  0.53066100  1
  C  C42  1  0.50278100  0.18792300  0.45737600  1
  C  C43  1  0.50563100  0.01682300  0.34120500  1
  C  C44  1  0.49514300  0.99018600  0.64683500  1
  C  C45  1  0.50694500  0.12415700  0.34909200  1
  C  C46  1  0.49380900  0.88286200  0.63897400  1
  C  C47  1  0.49925700  0.14206500  0.55636100  1
  C  C48  1  0.50145900  0.86491600  0.43167000  1
  C  C49  1  0.49890500  0.03480300  0.54774300  1
  C  C50  1  0.50183400  0.97218600  0.44027500  1
  C  C51  1  0.45192100  0.41568300  0.01773300  1
  C  C52  1  0.55100600  0.58468300  0.96940200  1
  C  C53  1  0.45822500  0.42255400  0.13837000  1
  C  C54  1  0.54405800  0.57979400  0.84913400  1
  C  C55  1  0.52336700  0.53955400  0.14799700  1
  C  C56  1  0.47863100  0.46344900  0.83945100  1
  C  C57  1  0.51938600  0.53148000  0.02651000  1
  C  C58  1  0.48308000  0.47016600  0.96078200  1
  C  C59  1  0.35938000  0.28641400  0.57411900  1
  C  C60  1  0.34176700  0.20910700  0.64675300  1
  C  C61  1  0.64136200  0.71527100  0.40376000  1
  C  C62  1  0.65925700  0.78950700  0.32781600  1
  C  C63  1  0.44004800  0.85114700  0.76074100  1
  C  C64  1  0.42609700  0.76861100  0.83085100  1
  C  C65  1  0.56091100  0.15629600  0.22804100  1
  C  C66  1  0.57481700  0.23852900  0.15749200  1
  C  C67  1  0.37373200  0.41330400  0.96107000  1
  C  C68  1  0.33376800  0.35579400  0.00807800  1
  C  C69  1  0.62931700  0.58210000  0.02318000  1
  C  C70  1  0.66970600  0.63804700  0.97577600  1
  C  C71  1  0.65066300  0.30673100  0.60948700  1
  C  C72  1  0.62538900  0.24850300  0.69133500  1
  C  C73  1  0.35095300  0.70682800  0.39258800  1
  C  C74  1  0.37387300  0.77017700  0.31193600  1
  C  C75  1  0.87184600  0.18457800  0.31671000  1
  C  C76  1  0.83215100  0.10205200  0.28393400  1
  C  C77  1  0.13071100  0.78909500  0.73452300  1
  C  C78  1  0.17182100  0.86333600  0.78793600  1
  N  N1  1  0.20131900  0.49924500  0.49340200  1
  N  N2  1  0.79950400  0.50666100  0.49486500  1
  N  N3  1  0.50834700  0.51982700  0.78606700  1
  N  N4  1  0.49212400  0.48723900  0.20198100  1
  O  O1  1  0.50582700  0.35759200  0.57646700  1
  O  O2  1  0.49479500  0.64940400  0.41157800  1
  O  O3  1  0.49677500  0.34649300  0.37566500  1
  O  O4  1  0.50364200  0.66048700  0.61235700  1
  O  O5  1  0.43262300  0.50171700  0.59184300  1
  O  O6  1  0.56793400  0.50502300  0.39617500  1
  O  O7  1  0.42697400  0.49843300  0.39197500  1
  O  O8  1  0.57357400  0.50881000  0.59611300  1
  O  O9  1  0.19877700  0.32052400  0.42481300  1
  O  O10  1  0.80153700  0.68818200  0.53489100  1
  O  O11  1  0.79552800  0.32601300  0.45547200  1
  O  O12  1  0.20615100  0.67740800  0.56008800  1
  O  O13  1  0.35695400  0.38780500  0.63736100  1
  O  O14  1  0.64374500  0.61245500  0.34439300  1
  O  O15  1  0.48918000  0.84149700  0.73912200  1
  O  O16  1  0.51170400  0.16555700  0.24902600  1
  O  O17  1  0.41572700  0.35279700  0.95578900  1
  O  O18  1  0.58812000  0.64502200  0.03097900  1
  O  O19  1  0.65396100  0.41280100  0.65850500  1
  O  O20  1  0.34690800  0.60243800  0.33729200  1
  O  O21  1  0.87329600  0.22262400  0.43762500  1
  O  O22  1  0.12938900  0.77671900  0.61170600  1
