# generated using pymatgen
data_Zn2H15C30N2ClO8
_symmetry_space_group_name_H-M   'P 1'
_cell_length_a   9.28816500
_cell_length_b   8.55169900
_cell_length_c   15.11533600
_cell_angle_alpha   90.00000000
_cell_angle_beta   91.01635700
_cell_angle_gamma   90.00000000
_symmetry_Int_Tables_number   1
_chemical_formula_structural   Zn2H15C30N2ClO8
_chemical_formula_sum   'Zn2 H15 C30 N2 Cl1 O8'
_cell_volume   1200.41607275
_cell_formula_units_Z   1
loop_
 _symmetry_equiv_pos_site_id
 _symmetry_equiv_pos_as_xyz
  1  'x, y, z'
loop_
 _atom_site_type_symbol
 _atom_site_label
 _atom_site_symmetry_multiplicity
 _atom_site_fract_x
 _atom_site_fract_y
 _atom_site_fract_z
 _atom_site_occupancy
  Zn  Zn1  1  0.83781800  0.50013400  0.50282100  1
  Zn  Zn2  1  0.15957500  0.49993300  0.49951000  1
  H  H1  1  0.04543600  0.00049300  0.56356400  1
  H  H2  1  0.98801800  0.25128600  0.80089500  1
  H  H3  1  0.98188300  0.74910300  0.80055500  1
  H  H4  1  0.12878600  0.79541300  0.91975700  1
  H  H5  1  0.86325800  0.20360000  0.92350700  1
  H  H6  1  0.14165600  0.79676000  0.07993500  1
  H  H7  1  0.87632200  0.20508600  0.08351800  1
  H  H8  1  0.02228800  0.25094000  0.20330600  1
  H  H9  1  0.01661100  0.74897700  0.20265800  1
  H  H10  1  0.94468300  0.99942400  0.43835900  1
  H  H11  1  0.63003300  0.50036000  0.63941500  1
  H  H12  1  0.75694100  0.49965600  0.33140100  1
  H  H13  1  0.36740100  0.49963700  0.19685100  1
  H  H14  1  0.24021800  0.49965300  0.32607400  1
  H  H15  1  0.36626900  0.50025500  0.63586900  1
  C  C1  1  0.00685300  0.13994700  0.67607900  1
  C  C2  1  0.00729100  0.86040500  0.67589800  1
  C  C3  1  0.99152800  0.14058900  0.76666100  1
  C  C4  1  0.99202200  0.85945700  0.76644300  1
  C  C5  1  0.99116000  0.99982900  0.81270200  1
  C  C6  1  0.02389100  0.00028500  0.63287500  1
  C  C7  1  0.07062500  0.88434700  0.95513800  1
  C  C8  1  0.92672800  0.11513400  0.95702200  1
  C  C9  1  0.07861000  0.88549600  0.04634500  1
  C  C10  1  0.93479100  0.11634100  0.04818200  1
  C  C11  1  0.01085600  0.00171400  0.09348400  1
  C  C12  1  0.99441500  0.99893300  0.90985600  1
  C  C13  1  0.01009500  0.14044900  0.23700600  1
  C  C14  1  0.01077000  0.85975000  0.23666600  1
  C  C15  1  0.99003300  0.13893800  0.32711200  1
  C  C16  1  0.99051600  0.86078400  0.32684200  1
  C  C17  1  0.96985800  0.99971100  0.36953100  1
  C  C18  1  0.01243300  0.00037600  0.19061900  1
  C  C19  1  0.00377300  0.71767500  0.62240600  1
  C  C20  1  0.00376400  0.28289200  0.62272300  1
  C  C21  1  0.99359300  0.71932600  0.38072800  1
  C  C22  1  0.99356800  0.28015800  0.38112500  1
  C  C23  1  0.64451000  0.49970500  0.34038500  1
  C  C24  1  0.57148700  0.49959700  0.26108200  1
  C  C25  1  0.42575200  0.49972900  0.25936800  1
  C  C26  1  0.35277000  0.49979300  0.33702400  1
  C  C27  1  0.42354300  0.49989600  0.41975700  1
  C  C28  1  0.57381000  0.49990500  0.42173600  1
  C  C29  1  0.57318300  0.50021800  0.57639300  1
  C  C30  1  0.42369600  0.50015600  0.57429800  1
  N  N1  1  0.64797000  0.50009000  0.50082900  1
  N  N2  1  0.34926200  0.49997800  0.49679800  1
  Cl  Cl1  1  0.66620300  0.49920800  0.16195400  1
  O  O1  1  0.12703700  0.66823600  0.59038200  1
  O  O2  1  0.12710300  0.33199100  0.59061100  1
  O  O3  1  0.87628700  0.66327700  0.59675800  1
  O  O4  1  0.87635500  0.33741900  0.59699000  1
  O  O5  1  0.87309800  0.67016700  0.41347800  1
  O  O6  1  0.87314600  0.32968200  0.41375500  1
  O  O7  1  0.11827500  0.66460100  0.40704600  1
  O  O8  1  0.11835100  0.33485500  0.40727200  1
