# generated using pymatgen
data_CuH15C32N(ClO2)2
_symmetry_space_group_name_H-M   'P 1'
_cell_length_a   14.61767900
_cell_length_b   15.90535500
_cell_length_c   16.03981200
_cell_angle_alpha   89.99238800
_cell_angle_beta   90.00913500
_cell_angle_gamma   72.61177900
_symmetry_Int_Tables_number   1
_chemical_formula_structural   CuH15C32N(ClO2)2
_chemical_formula_sum   'Cu2 H30 C64 N2 Cl4 O8'
_cell_volume   3558.82624299
_cell_formula_units_Z   2
loop_
 _symmetry_equiv_pos_site_id
 _symmetry_equiv_pos_as_xyz
  1  'x, y, z'
loop_
 _atom_site_type_symbol
 _atom_site_label
 _atom_site_symmetry_multiplicity
 _atom_site_fract_x
 _atom_site_fract_y
 _atom_site_fract_z
 _atom_site_occupancy
  Cu  Cu1  1  0.59094600  0.50001200  0.49819800  1
  Cu  Cu2  1  0.40800500  0.49990600  0.49825400  1
  H  H1  1  0.54985700  0.77439400  0.48449800  1
  H  H2  1  0.44720500  0.22574200  0.49701500  1
  H  H3  1  0.26518500  0.77556400  0.52849200  1
  H  H4  1  0.73629400  0.22360900  0.48844200  1
  H  H5  1  0.78914300  0.06698200  0.48540100  1
  H  H6  1  0.21356200  0.93186200  0.53897800  1
  H  H7  1  0.64602400  0.84307000  0.48744800  1
  H  H8  1  0.35618900  0.15587700  0.52606700  1
  H  H9  1  0.64183200  0.50572500  0.07707800  1
  H  H10  1  0.35320700  0.50738300  0.91932700  1
  H  H11  1  0.05206700  0.59804200  0.59276000  1
  H  H12  1  0.94736300  0.40055500  0.40455100  1
  H  H13  1  0.88353700  0.59876400  0.59263400  1
  H  H14  1  0.11570400  0.40037700  0.40427700  1
  H  H15  1  0.79332100  0.85253000  0.59535700  1
  H  H16  1  0.96091100  0.76434400  0.57432000  1
  H  H17  1  0.95295300  0.86618700  0.32792000  1
  H  H18  1  0.78525900  0.95460100  0.34875200  1
  H  H19  1  0.24551500  0.12989900  0.65942900  1
  H  H20  1  0.07834100  0.22018200  0.67877000  1
  H  H21  1  0.01096500  0.15311600  0.43406900  1
  H  H22  1  0.17829800  0.06301800  0.41431800  1
  H  H23  1  0.75333900  0.38928900  0.97754800  1
  H  H24  1  0.90353300  0.38688500  0.90818800  1
  H  H25  1  0.75715600  0.61768500  0.77197500  1
  H  H26  1  0.60699900  0.62169500  0.84212500  1
  H  H27  1  0.31189400  0.39666100  0.02236100  1
  H  H28  1  0.16154100  0.40065200  0.09229200  1
  H  H29  1  0.16481800  0.63352800  0.22158800  1
  H  H30  1  0.31415800  0.63109900  0.15085600  1
  C  C1  1  0.49875400  0.50306400  0.33826900  1
  C  C2  1  0.50014000  0.49702300  0.65819300  1
  C  C3  1  0.55510900  0.33048900  0.49521900  1
  C  C4  1  0.44384900  0.66942300  0.50141200  1
  C  C5  1  0.58696700  0.23369600  0.49378100  1
  C  C6  1  0.41229800  0.76611900  0.50580600  1
  C  C7  1  0.71285300  0.09870100  0.48773800  1
  C  C8  1  0.28844300  0.90058500  0.52609200  1
  C  C9  1  0.68306800  0.18896500  0.49017000  1
  C  C10  1  0.31760700  0.81046900  0.52042000  1
  C  C11  1  0.52098500  0.18707000  0.49669400  1
  C  C12  1  0.47771800  0.81284200  0.49747200  1
  C  C13  1  0.54981400  0.09486300  0.49705700  1
  C  C14  1  0.45004200  0.90475800  0.50445900  1
  C  C15  1  0.64708500  0.05126600  0.48953800  1
  C  C16  1  0.35344700  0.94825600  0.51725600  1
  C  C17  1  0.48413400  0.04562900  0.50422700  1
  C  C18  1  0.51615400  0.95380900  0.49931400  1
  C  C19  1  0.61410100  0.91301000  0.49064300  1
  C  C20  1  0.38705900  0.08622400  0.51812700  1
  C  C21  1  0.67828700  0.96034500  0.48562700  1
  C  C22  1  0.32277800  0.03906200  0.52369100  1
  C  C23  1  0.58049000  0.50625800  0.95602300  1
  C  C24  1  0.41352000  0.51023200  0.04032400  1
  C  C25  1  0.49904500  0.50583900  0.91210000  1
  C  C26  1  0.49548000  0.50897300  0.08426500  1
  C  C27  1  0.41642500  0.50732500  0.95432400  1
  C  C28  1  0.57841400  0.50645200  0.04206400  1
  C  C29  1  0.49960200  0.50118000  0.82267400  1
  C  C30  1  0.49708700  0.50651900  0.17376900  1
  C  C31  1  0.49809900  0.50479800  0.24886800  1
  C  C32  1  0.49989300  0.49847100  0.74760000  1
  C  C33  1  0.93453900  0.55513000  0.55127200  1
  C  C34  1  0.06471300  0.44390900  0.44570800  1
  C  C35  1  0.90519300  0.49976700  0.49850800  1
  C  C36  1  0.09402000  0.49935500  0.49840000  1
  C  C37  1  0.97032200  0.44406200  0.44581600  1
  C  C38  1  0.02898400  0.55478300  0.55131500  1
  C  C39  1  0.80691100  0.50006800  0.49844700  1
  C  C40  1  0.19216600  0.49946600  0.49818800  1
  C  C41  1  0.77932400  0.91055900  0.47402600  1
  C  C42  1  0.82842000  0.85609000  0.53672200  1
  C  C43  1  0.92246100  0.80645800  0.52490400  1
  C  C44  1  0.96728200  0.81022600  0.44999400  1
  C  C45  1  0.91803300  0.86368500  0.38686600  1
  C  C46  1  0.82405000  0.91350500  0.39868700  1
  C  C47  1  0.22200500  0.08916200  0.53636400  1
  C  C48  1  0.19396000  0.13434000  0.61003800  1
  C  C49  1  0.10017900  0.18510200  0.62090700  1
  C  C50  1  0.03438600  0.19161900  0.55782800  1
  C  C51  1  0.06240700  0.14745600  0.48377100  1
  C  C52  1  0.15620400  0.09663900  0.47284300  1
  C  C53  1  0.66964600  0.50444000  0.91308400  1
  C  C54  1  0.75365500  0.43974200  0.93248700  1
  C  C55  1  0.83815500  0.43812600  0.89337300  1
  C  C56  1  0.83933300  0.50168600  0.83534200  1
  C  C57  1  0.75608600  0.56730400  0.81687900  1
  C  C58  1  0.67152900  0.56902100  0.85593300  1
  C  C59  1  0.32428900  0.51244000  0.08333400  1
  C  C60  1  0.27990700  0.44898800  0.06597800  1
  C  C61  1  0.19548700  0.45096400  0.10543100  1
  C  C62  1  0.15446300  0.51687800  0.16173400  1
  C  C63  1  0.19746000  0.58130400  0.17805600  1
  C  C64  1  0.28188100  0.57941900  0.13867400  1
  N  N1  1  0.27126500  0.49964400  0.49808400  1
  N  N2  1  0.72770100  0.50023100  0.49837000  1
  Cl  Cl1  1  0.08635800  0.74637300  0.43465800  1
  Cl  Cl2  1  0.91555300  0.25682200  0.57149900  1
  Cl  Cl3  1  0.94665500  0.49950900  0.78563000  1
  Cl  Cl4  1  0.04745900  0.51912700  0.21205000  1
  O  O1  1  0.57870600  0.49918200  0.37698700  1
  O  O2  1  0.42027000  0.50061900  0.61946600  1
  O  O3  1  0.41932100  0.50548800  0.37720200  1
  O  O4  1  0.57956000  0.49464200  0.61925800  1
  O  O5  1  0.62013700  0.37202400  0.49313000  1
  O  O6  1  0.37879100  0.62789500  0.50353300  1
  O  O7  1  0.46306300  0.37189600  0.49887600  1
  O  O8  1  0.53589100  0.62802100  0.49745300  1
