# generated using pymatgen
data_Zn2H11C20O8F
_symmetry_space_group_name_H-M   'P 1'
_cell_length_a   30.43104300
_cell_length_b   21.87800600
_cell_length_c   21.88329700
_cell_angle_alpha   90.00000000
_cell_angle_beta   134.05140200
_cell_angle_gamma   90.00000000
_symmetry_Int_Tables_number   1
_chemical_formula_structural   Zn2H11C20O8F
_chemical_formula_sum   'Zn12 H66 C120 O48 F6'
_cell_volume   10471.16081486
_cell_formula_units_Z   6
loop_
 _symmetry_equiv_pos_site_id
 _symmetry_equiv_pos_as_xyz
  1  'x, y, z'
loop_
 _atom_site_type_symbol
 _atom_site_label
 _atom_site_symmetry_multiplicity
 _atom_site_fract_x
 _atom_site_fract_y
 _atom_site_fract_z
 _atom_site_occupancy
  Zn  Zn1  1  0.99577700  0.50515300  0.06550400  1
  Zn  Zn2  1  0.49566100  0.99688200  0.06696800  1
  Zn  Zn3  1  0.00544900  0.49855600  0.93708900  1
  Zn  Zn4  1  0.50470100  0.00471900  0.93797800  1
  Zn  Zn5  1  0.93441400  0.00022500  0.94340300  1
  Zn  Zn6  1  0.43411100  0.50088000  0.94082900  1
  Zn  Zn7  1  0.07255300  0.00349200  0.07134000  1
  Zn  Zn8  1  0.57248200  0.50071100  0.07165400  1
  Zn  Zn9  1  0.49897900  0.56978400  0.50802800  1
  Zn  Zn10  1  0.50234900  0.43196600  0.49935500  1
  Zn  Zn11  1  0.00267700  0.07209700  0.50256300  1
  Zn  Zn12  1  0.99781300  0.93415600  0.50591500  1
  H  H1  1  0.07363400  0.69545700  0.99584900  1
  H  H2  1  0.07050500  0.30759200  0.00844100  1
  H  H3  1  0.57420400  0.19453900  0.01808000  1
  H  H4  1  0.57432600  0.80836900  0.99828700  1
  H  H5  1  0.07577400  0.80817600  0.99996000  1
  H  H6  1  0.07354200  0.19578500  0.01496100  1
  H  H7  1  0.57711200  0.30651000  0.02372000  1
  H  H8  1  0.57678100  0.69569000  0.00112800  1
  H  H9  1  0.87694500  0.80737000  0.94277000  1
  H  H10  1  0.86964100  0.19648700  0.94403300  1
  H  H11  1  0.36853500  0.30651700  0.93967400  1
  H  H12  1  0.37346900  0.69410000  0.93303100  1
  H  H13  1  0.93896000  0.80769800  0.06272900  1
  H  H14  1  0.92772900  0.19662500  0.06395300  1
  H  H15  1  0.42339700  0.30684000  0.05925400  1
  H  H16  1  0.43358100  0.69232600  0.05300300  1
  H  H17  1  0.87767700  0.69628700  0.94339200  1
  H  H18  1  0.86984600  0.30767100  0.94357600  1
  H  H19  1  0.36869100  0.19540700  0.93995200  1
  H  H20  1  0.37424600  0.80512200  0.93595100  1
  H  H21  1  0.93866500  0.69669100  0.06338000  1
  H  H22  1  0.92745200  0.30793100  0.06346100  1
  H  H23  1  0.42309400  0.19551300  0.05947200  1
  H  H24  1  0.43355400  0.80348700  0.05594300  1
  H  H25  1  0.19698400  0.42193100  0.13986700  1
  H  H26  1  0.69502100  0.08510500  0.14363400  1
  H  H27  1  0.30911500  0.42114600  0.25414400  1
  H  H28  1  0.80728300  0.08742300  0.25766800  1
  H  H29  1  0.30160800  0.63351000  0.35685000  1
  H  H30  1  0.30148700  0.58167700  0.42555600  1
  H  H31  1  0.80295600  0.91598400  0.42182400  1
  H  H32  1  0.80351500  0.86846200  0.35047400  1
  H  H33  1  0.19058700  0.63064400  0.24700300  1
  H  H34  1  0.19032800  0.57907000  0.31587800  1
  H  H35  1  0.69174200  0.91677800  0.31274200  1
  H  H36  1  0.69249500  0.86969000  0.24121300  1
  H  H37  1  0.80930600  0.45061500  0.72407700  1
  H  H38  1  0.30867100  0.05296300  0.72618600  1
  H  H39  1  0.69688800  0.44785700  0.61392300  1
  H  H40  1  0.19627600  0.05551800  0.61621400  1
  H  H41  1  0.68980900  0.54420500  0.82413200  1
  H  H42  1  0.69211800  0.61713400  0.78034300  1
  H  H43  1  0.19200300  0.88521500  0.78241600  1
  H  H44  1  0.18952300  0.95809900  0.82610500  1
  H  H45  1  0.80078200  0.54368400  0.93620500  1
  H  H46  1  0.80318000  0.61625100  0.89210200  1
  H  H47  1  0.30303200  0.88640600  0.89412800  1
  H  H48  1  0.30041000  0.95894600  0.93804800  1
  H  H49  1  0.06610700  0.08221200  0.87344000  1
  H  H50  1  0.58321600  0.43500500  0.88853100  1
  H  H51  1  0.58055600  0.43321100  0.77338400  1
  H  H52  1  0.06343300  0.08351600  0.75835200  1
  H  H53  1  0.36111000  0.52970200  0.56389900  1
  H  H54  1  0.41028700  0.60066900  0.61197200  1
  H  H55  1  0.93677700  0.88074700  0.63949200  1
  H  H56  1  0.87228000  0.93809700  0.57560600  1
  H  H57  1  0.09147200  0.04530100  0.28702100  1
  H  H58  1  0.59714300  0.54466300  0.29214400  1
  H  H59  1  0.35843100  0.50739100  0.17148200  1
  H  H60  1  0.38924600  0.42685000  0.20133100  1
  H  H61  1  0.86908700  0.95895900  0.18342300  1
  H  H62  1  0.91214100  0.88420100  0.22458000  1
  H  H63  1  0.86836800  0.95935600  0.07172600  1
  H  H64  1  0.91189000  0.88494900  0.11313600  1
  H  H65  1  0.35877100  0.50733300  0.06053500  1
  H  H66  1  0.38967000  0.42679200  0.09065200  1
  C  C1  1  0.11992500  0.49906300  0.12314200  1
  C  C2  1  0.61952000  0.00319300  0.12374400  1
  C  C3  1  0.00379800  0.62123500  0.00028700  1
  C  C4  1  0.99774700  0.38245700  0.00257100  1
  C  C5  1  0.49799900  0.12018900  0.00544100  1
  C  C6  1  0.50268500  0.88141100  0.99976400  1
  C  C7  1  0.88124700  0.50449200  0.87940000  1
  C  C8  1  0.38078400  0.99866700  0.88114000  1
  C  C9  1  0.96815300  0.72170000  0.00089200  1
  C  C10  1  0.96206200  0.28233500  0.00800200  1
  C  C11  1  0.46207000  0.22050900  0.00986500  1
  C  C12  1  0.46549100  0.78025300  0.99618800  1
  C  C13  1  0.00475100  0.68781300  0.99859500  1
  C  C14  1  0.99963300  0.31590500  0.00704900  1
  C  C15  1  0.50075300  0.18670900  0.01139600  1
  C  C16  1  0.50336000  0.81481800  0.99693000  1
  C  C17  1  0.04326800  0.71989500  0.99684200  1
  C  C18  1  0.03960600  0.28353000  0.00867800  1
  C  C19  1  0.54233300  0.21886900  0.01613900  1
  C  C20  1  0.54298200  0.78338900  0.99686700  1
  C  C21  1  0.04481500  0.78378400  0.99982700  1
  C  C22  1  0.04157900  0.21999900  0.01291200  1
  C  C23  1  0.54426700  0.28246600  0.01995600  1
  C  C24  1  0.54459800  0.71951300  0.99895700  1
  C  C25  1  0.00571800  0.81594100  0.00036500  1
  C  C26  1  0.00142400  0.18784100  0.01112700  1
  C  C27  1  0.50255200  0.31485000  0.01469600  1
  C  C28  1  0.50435300  0.68664100  0.99654900  1
  C  C29  1  0.96745400  0.78214400  0.99943900  1
  C  C30  1  0.96172300  0.22163300  0.00751600  1
  C  C31  1  0.46179800  0.28120500  0.00902000  1
  C  C32  1  0.46479600  0.71977900  0.99360700  1
  C  C33  1  0.92026700  0.78764700  0.00208800  1
  C  C34  1  0.91177000  0.21644200  0.00469300  1
  C  C35  1  0.40964500  0.28671600  0.00151700  1
  C  C36  1  0.41627800  0.71338300  0.99354200  1
  C  C37  1  0.92058300  0.71634500  0.00282300  1
  C  C38  1  0.91181600  0.28783800  0.00453000  1
  C  C39  1  0.40965800  0.21532100  0.00181100  1
  C  C40  1  0.41663500  0.78469000  0.99566800  1
  C  C41  1  0.21848700  0.53721200  0.25818500  1
  C  C42  1  0.71881000  0.96438200  0.25668900  1
  C  C43  1  0.18633300  0.49675300  0.19184900  1
  C  C44  1  0.68589500  0.00633200  0.19224600  1
  C  C45  1  0.22007300  0.45490900  0.19083900  1
  C  C46  1  0.71883200  0.05081300  0.19308700  1
  C  C47  1  0.28372400  0.45430600  0.25597900  1
  C  C48  1  0.78252900  0.05225500  0.25803200  1
  C  C49  1  0.31439700  0.49764300  0.32040100  1
  C  C50  1  0.81398700  0.00724100  0.32023400  1
  C  C51  1  0.27909000  0.53882600  0.31767400  1
  C  C52  1  0.77940300  0.96371700  0.31579600  1
  C  C53  1  0.28226900  0.59288900  0.36151300  1
  C  C54  1  0.78365800  0.90724600  0.35718600  1
  C  C55  1  0.21092500  0.59115900  0.29110100  1
  C  C56  1  0.71230200  0.90788700  0.28716600  1
  C  C57  1  0.77944600  0.53417200  0.81947900  1
  C  C58  1  0.27906700  0.96850100  0.82132100  1
  C  C59  1  0.81469300  0.50514600  0.81062200  1
  C  C60  1  0.31422700  0.99792000  0.81254900  1
  C  C61  1  0.78396800  0.47483700  0.73438300  1
  C  C62  1  0.28342600  0.02839500  0.73641300  1
  C  C63  1  0.72018900  0.47294300  0.67206700  1
  C  C64  1  0.21966900  0.03013200  0.67417500  1
  C  C65  1  0.68663000  0.50390800  0.68365400  1
  C  C66  1  0.18618600  0.99878200  0.68560900  1
  C  C67  1  0.71894300  0.53499600  0.75841400  1
  C  C68  1  0.21855000  0.96749800  0.76025000  1
  C  C69  1  0.71141300  0.57111500  0.80790200  1
  C  C70  1  0.21115000  0.93129600  0.80983300  1
  C  C71  1  0.78270700  0.57055200  0.87974300  1
  C  C72  1  0.28244200  0.93205800  0.88165300  1
  C  C73  1  0.00062100  0.00867400  0.88533500  1
  C  C74  1  0.50269500  0.49208500  0.88638100  1
  C  C75  1  0.00456800  0.88252000  0.00156200  1
  C  C76  1  0.00243100  0.12122600  0.01285100  1
  C  C77  1  0.50189100  0.38151300  0.01313400  1
  C  C78  1  0.50473800  0.62002700  0.99926800  1
  C  C79  1  0.00629500  0.99526900  0.12947400  1
  C  C80  1  0.50377000  0.50940400  0.12604400  1
  C  C81  1  0.50196200  0.50946900  0.38576700  1
  C  C82  1  0.00329800  0.99793300  0.38786400  1
  C  C83  1  0.38105500  0.49959100  0.38678700  1
  C  C84  1  0.88066200  0.00516600  0.38597100  1
  C  C85  1  0.49962300  0.49232600  0.62193400  1
  C  C86  1  0.99769000  0.00834100  0.62119000  1
  C  C87  1  0.62009100  0.50211900  0.62004900  1
  C  C88  1  0.11967200  0.00106600  0.62210000  1
  C  C89  1  0.96020400  0.97521700  0.74647300  1
  C  C90  1  0.45562500  0.51516700  0.74095900  1
  C  C91  1  0.99789700  0.01238000  0.81620500  1
  C  C92  1  0.50101100  0.48778900  0.81813100  1
  C  C93  1  0.03549300  0.05172800  0.81985000  1
  C  C94  1  0.54634600  0.45771600  0.82908800  1
  C  C95  1  0.54463700  0.45623800  0.76357900  1
  C  C96  1  0.03372200  0.05272100  0.75433400  1
  C  C97  1  0.49912100  0.48712400  0.68795500  1
  C  C98  1  0.99673300  0.01206300  0.68685500  1
  C  C99  1  0.45568700  0.51620300  0.68039000  1
  C  C100  1  0.96096700  0.97375500  0.68659400  1
  C  C101  1  0.40022300  0.55496600  0.62170900  1
  C  C102  1  0.91612400  0.92301000  0.63839500  1
  C  C103  1  0.91576800  0.92454700  0.70925000  1
  C  C104  1  0.40052500  0.55409300  0.69321000  1
  C  C105  1  0.96400200  0.96499000  0.18894800  1
  C  C106  1  0.45382800  0.49765900  0.17804200  1
  C  C107  1  0.00884300  0.99308200  0.19861100  1
  C  C108  1  0.50447500  0.51324500  0.19347700  1
  C  C109  1  0.05522000  0.02178500  0.27592400  1
  C  C110  1  0.55582400  0.53153300  0.27587200  1
  C  C111  1  0.55473400  0.53287000  0.33871400  1
  C  C112  1  0.05370300  0.02357100  0.33820500  1
  C  C113  1  0.50276600  0.51482100  0.32013000  1
  C  C114  1  0.00739800  0.99417200  0.32541800  1
  C  C115  1  0.45347600  0.49752700  0.23822100  1
  C  C116  1  0.96431800  0.96417700  0.24983800  1
  C  C117  1  0.39040400  0.47343200  0.18251400  1
  C  C118  1  0.90584600  0.93046800  0.19878300  1
  C  C119  1  0.90557000  0.93095900  0.12718200  1
  C  C120  1  0.39068700  0.47343200  0.11146100  1
  O  O1  1  0.08772100  0.50431500  0.14239400  1
  O  O2  1  0.58754100  0.99744800  0.14330800  1
  O  O3  1  0.09557200  0.49513000  0.04505400  1
  O  O4  1  0.59494400  0.00761800  0.04559000  1
  O  O5  1  0.99705800  0.59566100  0.04749100  1
  O  O6  1  0.99278600  0.41355100  0.04889500  1
  O  O7  1  0.49302000  0.08861400  0.05146700  1
  O  O8  1  0.49640000  0.90651100  0.04769700  1
  O  O9  1  0.00875400  0.59012200  0.95401200  1
  O  O10  1  0.00410500  0.40806000  0.95498700  1
  O  O11  1  0.50387800  0.09506200  0.95711300  1
  O  O12  1  0.50766300  0.91303300  0.95382200  1
  O  O13  1  0.90564500  0.50833200  0.95750500  1
  O  O14  1  0.40540400  0.99427800  0.95931100  1
  O  O15  1  0.91356500  0.49955400  0.86029600  1
  O  O16  1  0.41288200  0.00401500  0.86173200  1
  O  O17  1  0.94924700  0.00360600  0.86636400  1
  O  O18  1  0.45067400  0.49362400  0.86600000  1
  O  O19  1  0.05458500  0.01030100  0.96345500  1
  O  O20  1  0.55618300  0.49506000  0.96496000  1
  O  O21  1  0.95131000  0.90925500  0.95617100  1
  O  O22  1  0.95040200  0.09133400  0.96517600  1
  O  O23  1  0.44895100  0.40973200  0.96277200  1
  O  O24  1  0.45216000  0.59166800  0.95409800  1
  O  O25  1  0.05653700  0.91243600  0.04923700  1
  O  O26  1  0.05568000  0.09442900  0.05870800  1
  O  O27  1  0.55448500  0.40999000  0.05942000  1
  O  O28  1  0.55758200  0.59173200  0.04857700  1
  O  O29  1  0.95239200  0.99368200  0.05132200  1
  O  O30  1  0.45047200  0.50531700  0.04759400  1
  O  O31  1  0.05766200  0.99994100  0.14835400  1
  O  O32  1  0.55583900  0.50911300  0.14638400  1
  O  O33  1  0.49927300  0.55948800  0.41624900  1
  O  O34  1  0.50370400  0.45439900  0.41090800  1
  O  O35  1  0.00616200  0.05225200  0.41564200  1
  O  O36  1  0.99847900  0.94709800  0.41482300  1
  O  O37  1  0.40787900  0.55283700  0.41900400  1
  O  O38  1  0.41106400  0.44794500  0.41028800  1
  O  O39  1  0.91130000  0.05662000  0.41122600  1
  O  O40  1  0.90686900  0.95164700  0.41694000  1
  O  O41  1  0.49613400  0.54725100  0.59502000  1
  O  O42  1  0.50354000  0.44238800  0.59261100  1
  O  O43  1  0.00232500  0.05911900  0.59398500  1
  O  O44  1  0.99423300  0.95405600  0.59280100  1
  O  O45  1  0.59020700  0.55369200  0.59823800  1
  O  O46  1  0.59334500  0.44901900  0.58684600  1
  O  O47  1  0.09357200  0.05464500  0.59120000  1
  O  O48  1  0.08914600  0.94957800  0.59735500  1
  F  F1  1  0.94056200  0.87282900  0.75968900  1
  F  F2  1  0.86046900  0.94266200  0.68038400  1
  F  F3  1  0.35108900  0.52377200  0.67046600  1
  F  F4  1  0.41253000  0.61047500  0.73064100  1
  F  F5  1  0.60559300  0.54942700  0.41913800  1
  F  F6  1  0.09815900  0.05383500  0.41194900  1
