# generated using pymatgen
data_Zn3H17C46O12F5
_symmetry_space_group_name_H-M   'P 1'
_cell_length_a   36.75994300
_cell_length_b   30.10147400
_cell_length_c   21.52517700
_cell_angle_alpha   90.00000000
_cell_angle_beta   55.06701900
_cell_angle_gamma   90.00000000
_symmetry_Int_Tables_number   1
_chemical_formula_structural   Zn3H17C46O12F5
_chemical_formula_sum   'Zn12 H68 C184 O48 F20'
_cell_volume   19526.71115552
_cell_formula_units_Z   4
loop_
 _symmetry_equiv_pos_site_id
 _symmetry_equiv_pos_as_xyz
  1  'x, y, z'
loop_
 _atom_site_type_symbol
 _atom_site_label
 _atom_site_symmetry_multiplicity
 _atom_site_fract_x
 _atom_site_fract_y
 _atom_site_fract_z
 _atom_site_occupancy
  Zn  Zn1  1  0.00006200  0.55077600  0.49990500  1
  Zn  Zn2  1  0.50006200  0.05077600  0.49990500  1
  Zn  Zn3  1  0.99917200  0.45009200  0.50082200  1
  Zn  Zn4  1  0.49917200  0.95009200  0.50082200  1
  Zn  Zn5  1  0.94999200  0.49938000  0.04892700  1
  Zn  Zn6  1  0.05057900  0.50026400  0.95055900  1
  Zn  Zn7  1  0.44999200  0.99938000  0.04892700  1
  Zn  Zn8  1  0.55057900  0.00026400  0.95055900  1
  Zn  Zn9  1  0.50079100  0.49973200  0.06951300  1
  Zn  Zn10  1  0.49844900  0.49961000  0.93108800  1
  Zn  Zn11  1  0.00079100  0.99973200  0.06951300  1
  Zn  Zn12  1  0.99844900  0.99961000  0.93108800  1
  H  H1  1  0.98261800  0.42564700  0.80520900  1
  H  H2  1  0.98059800  0.42674500  0.23144900  1
  H  H3  1  0.48261800  0.92564700  0.80520900  1
  H  H4  1  0.48059800  0.92674500  0.23144900  1
  H  H5  1  0.05570400  0.44826600  0.65691400  1
  H  H6  1  0.92635900  0.48195800  0.35973900  1
  H  H7  1  0.55570400  0.94826600  0.65691400  1
  H  H8  1  0.42635900  0.98195800  0.35973900  1
  H  H9  1  0.01721900  0.57430900  0.69533100  1
  H  H10  1  0.02005700  0.57454600  0.26755300  1
  H  H11  1  0.51721900  0.07430900  0.69533100  1
  H  H12  1  0.52005700  0.07454600  0.26755300  1
  H  H13  1  0.92716700  0.47815700  0.78224000  1
  H  H14  1  0.05364700  0.44712500  0.23804800  1
  H  H15  1  0.42716700  0.97815700  0.78224000  1
  H  H16  1  0.55364700  0.94712500  0.23804800  1
  H  H17  1  0.35852800  0.44725000  0.07783500  1
  H  H18  1  0.64072100  0.44842100  0.92425000  1
  H  H19  1  0.85852800  0.94725000  0.07783500  1
  H  H20  1  0.14072100  0.94842100  0.92425000  1
  H  H21  1  0.29078500  0.58510300  0.31063700  1
  H  H22  1  0.70858100  0.58428300  0.68818100  1
  H  H23  1  0.79078500  0.08510300  0.31063700  1
  H  H24  1  0.20858100  0.08428300  0.68818100  1
  H  H25  1  0.21001000  0.58648100  0.38817000  1
  H  H26  1  0.78935600  0.58574200  0.61084100  1
  H  H27  1  0.71001000  0.08648100  0.38817000  1
  H  H28  1  0.28935600  0.08574200  0.61084100  1
  H  H29  1  0.14087600  0.55694100  0.42007800  1
  H  H30  1  0.85854300  0.55646100  0.57945700  1
  H  H31  1  0.64087600  0.05694100  0.42007800  1
  H  H32  1  0.35854300  0.05646100  0.57945700  1
  H  H33  1  0.13903200  0.44349500  0.30399800  1
  H  H34  1  0.86000200  0.44490700  0.69946500  1
  H  H35  1  0.63903200  0.94349500  0.30399800  1
  H  H36  1  0.36000200  0.94490700  0.69946500  1
  H  H37  1  0.28929100  0.41519800  0.11392800  1
  H  H38  1  0.70984500  0.41719100  0.88973700  1
  H  H39  1  0.78929100  0.91519800  0.11392800  1
  H  H40  1  0.20984500  0.91719100  0.88973700  1
  H  H41  1  0.41110700  0.70997500  0.99370100  1
  H  H42  1  0.58916000  0.70924900  0.00369200  1
  H  H43  1  0.91110700  0.20997500  0.99370100  1
  H  H44  1  0.08916000  0.20924900  0.00369200  1
  H  H45  1  0.91027200  0.29081200  0.99756800  1
  H  H46  1  0.09050700  0.29010800  0.99965600  1
  H  H47  1  0.41027200  0.79081200  0.99756800  1
  H  H48  1  0.59050700  0.79010800  0.99965600  1
  H  H49  1  0.94161000  0.35934300  0.00145700  1
  H  H50  1  0.05925700  0.35908100  0.99641000  1
  H  H51  1  0.44161000  0.85934300  0.00145700  1
  H  H52  1  0.55925700  0.85908100  0.99641000  1
  H  H53  1  0.54787800  0.35960400  0.88173700  1
  H  H54  1  0.45150800  0.35913200  0.12072000  1
  H  H55  1  0.04787800  0.85960400  0.88173700  1
  H  H56  1  0.95150800  0.85913200  0.12072000  1
  H  H57  1  0.42168900  0.28997700  0.18646100  1
  H  H58  1  0.57771800  0.29075600  0.81511400  1
  H  H59  1  0.92168900  0.78997700  0.18646100  1
  H  H60  1  0.07771800  0.79075600  0.81511400  1
  H  H61  1  0.91980900  0.70875700  0.18504600  1
  H  H62  1  0.07977300  0.70953400  0.81549300  1
  H  H63  1  0.41980900  0.20875700  0.18504600  1
  H  H64  1  0.57977300  0.20953400  0.81549300  1
  H  H65  1  0.94718500  0.63984200  0.11722300  1
  H  H66  1  0.05285700  0.64042100  0.88251100  1
  H  H67  1  0.44718500  0.13984200  0.11722300  1
  H  H68  1  0.55285700  0.14042100  0.88251100  1
  C  C1  1  0.08647500  0.50067800  0.41490000  1
  C  C2  1  0.91277900  0.50017500  0.58586900  1
  C  C3  1  0.58647500  0.00067800  0.41490000  1
  C  C4  1  0.41277900  0.00017500  0.58586900  1
  C  C5  1  0.99996900  0.49964900  0.62130300  1
  C  C6  1  0.99928000  0.50124400  0.37944200  1
  C  C7  1  0.49996900  0.99964900  0.62130300  1
  C  C8  1  0.49928000  0.00124400  0.37944200  1
  C  C9  1  0.03014600  0.47139100  0.69999900  1
  C  C10  1  0.95996700  0.48998100  0.30916100  1
  C  C11  1  0.53014600  0.97139100  0.69999900  1
  C  C12  1  0.45996700  0.98998100  0.30916100  1
  C  C13  1  0.99041300  0.45923000  0.77944800  1
  C  C14  1  0.98945700  0.46015100  0.24060400  1
  C  C15  1  0.49041300  0.95923000  0.77944800  1
  C  C16  1  0.48945700  0.96015100  0.24060400  1
  C  C17  1  0.99976100  0.49960300  0.81005700  1
  C  C18  1  0.00080000  0.49982700  0.18941100  1
  C  C19  1  0.49976100  0.99960300  0.81005700  1
  C  C20  1  0.50080000  0.99982700  0.18941100  1
  C  C21  1  0.03872800  0.51164300  0.73192000  1
  C  C22  1  0.97191300  0.52922800  0.25681100  1
  C  C23  1  0.53872800  0.01164300  0.73192000  1
  C  C24  1  0.47191300  0.02922800  0.25681100  1
  C  C25  1  0.00932400  0.54050500  0.72028000  1
  C  C26  1  0.01108200  0.54093200  0.25941100  1
  C  C27  1  0.50932400  0.04050500  0.72028000  1
  C  C28  1  0.51108200  0.04093200  0.25941100  1
  C  C29  1  0.97019800  0.52759400  0.79881200  1
  C  C30  1  0.03977100  0.51066800  0.19197900  1
  C  C31  1  0.47019800  0.02759400  0.79881200  1
  C  C32  1  0.53977100  0.01066800  0.19197900  1
  C  C33  1  0.96023300  0.48762300  0.76822300  1
  C  C34  1  0.02919900  0.47108600  0.24299800  1
  C  C35  1  0.46023300  0.98762300  0.76822300  1
  C  C36  1  0.52919900  0.97108600  0.24299800  1
  C  C37  1  0.99996700  0.49990300  0.69009300  1
  C  C38  1  0.99972200  0.50102700  0.31021700  1
  C  C39  1  0.49996700  0.99990300  0.69009300  1
  C  C40  1  0.49972200  0.00102700  0.31021700  1
  C  C41  1  0.34087600  0.47061400  0.12413500  1
  C  C42  1  0.65834600  0.47149200  0.87749400  1
  C  C43  1  0.84087600  0.97061400  0.12413500  1
  C  C44  1  0.15834600  0.97149200  0.87749400  1
  C  C45  1  0.36428600  0.49992900  0.13797600  1
  C  C46  1  0.63494200  0.50020300  0.86272800  1
  C  C47  1  0.86428600  0.99992900  0.13797600  1
  C  C48  1  0.13494200  0.00020300  0.86272800  1
  C  C49  1  0.34179900  0.52942300  0.19767500  1
  C  C50  1  0.65747700  0.52934200  0.80243100  1
  C  C51  1  0.84179900  0.02942300  0.19767500  1
  C  C52  1  0.15747700  0.02934200  0.80243100  1
  C  C53  1  0.29590100  0.53016200  0.24247900  1
  C  C54  1  0.70338300  0.53021900  0.75788000  1
  C  C55  1  0.79590100  0.03016200  0.24247900  1
  C  C56  1  0.20338300  0.03021900  0.75788000  1
  C  C57  1  0.27258200  0.49995300  0.22974100  1
  C  C58  1  0.72666900  0.50058000  0.77159400  1
  C  C59  1  0.77258200  0.99995300  0.22974100  1
  C  C60  1  0.22666900  0.00058000  0.77159400  1
  C  C61  1  0.29510800  0.46986600  0.17113500  1
  C  C62  1  0.70410900  0.47092800  0.83088400  1
  C  C63  1  0.79510800  0.96986600  0.17113500  1
  C  C64  1  0.20410900  0.97092800  0.83088400  1
  C  C65  1  0.27317700  0.56105400  0.29992100  1
  C  C66  1  0.72615700  0.56066800  0.69968200  1
  C  C67  1  0.77317700  0.06105400  0.29992100  1
  C  C68  1  0.22615700  0.06066800  0.69968200  1
  C  C69  1  0.22747100  0.56190100  0.34385500  1
  C  C70  1  0.77187300  0.56156900  0.65585200  1
  C  C71  1  0.72747100  0.06190100  0.34385500  1
  C  C72  1  0.27187300  0.06156900  0.65585200  1
  C  C73  1  0.20419900  0.53125600  0.33189700  1
  C  C74  1  0.79512500  0.53144600  0.66874500  1
  C  C75  1  0.70419900  0.03125600  0.33189700  1
  C  C76  1  0.29512500  0.03144600  0.66874500  1
  C  C77  1  0.22674200  0.49988300  0.27546700  1
  C  C78  1  0.77251100  0.50059500  0.72610100  1
  C  C79  1  0.72674200  0.99988300  0.27546700  1
  C  C80  1  0.27251100  0.00059500  0.72610100  1
  C  C81  1  0.20343000  0.46852500  0.26471500  1
  C  C82  1  0.79575000  0.46975600  0.73790700  1
  C  C83  1  0.70343000  0.96852500  0.26471500  1
  C  C84  1  0.29575000  0.96975600  0.73790700  1
  C  C85  1  0.22614400  0.43791300  0.20674400  1
  C  C86  1  0.77301500  0.43963900  0.79667700  1
  C  C87  1  0.72614400  0.93791300  0.20674400  1
  C  C88  1  0.27301500  0.93963900  0.79667700  1
  C  C89  1  0.27183100  0.43899100  0.15957500  1
  C  C90  1  0.72733600  0.44062900  0.84352500  1
  C  C91  1  0.77183100  0.93899100  0.15957500  1
  C  C92  1  0.22733600  0.94062900  0.84352500  1
  C  C93  1  0.15841800  0.53206100  0.37632900  1
  C  C94  1  0.84093800  0.53213200  0.62416900  1
  C  C95  1  0.65841800  0.03206100  0.37632900  1
  C  C96  1  0.34093800  0.03213200  0.62416900  1
  C  C97  1  0.13501500  0.50014500  0.36694800  1
  C  C98  1  0.86424000  0.50059700  0.63453200  1
  C  C99  1  0.63501500  0.00014500  0.36694800  1
  C  C100  1  0.36424000  0.00059700  0.63453200  1
  C  C101  1  0.15755600  0.46802100  0.31176800  1
  C  C102  1  0.84158800  0.46915000  0.69092700  1
  C  C103  1  0.65755600  0.96802100  0.31176800  1
  C  C104  1  0.34158800  0.96915000  0.69092700  1
  C  C105  1  0.00001300  0.41292700  0.99995600  1
  C  C106  1  0.50001300  0.91292700  0.99995600  1
  C  C107  1  0.99954000  0.49992000  0.87911300  1
  C  C108  1  0.00105600  0.49981600  0.12031500  1
  C  C109  1  0.49954000  0.99992000  0.87911300  1
  C  C110  1  0.50105600  0.99981600  0.12031500  1
  C  C111  1  0.00053800  0.58670100  0.99949000  1
  C  C112  1  0.50053800  0.08670100  0.99949000  1
  C  C113  1  0.49969300  0.41282800  0.00148600  1
  C  C114  1  0.99969300  0.91282800  0.00148600  1
  C  C115  1  0.41279900  0.49977000  0.08923800  1
  C  C116  1  0.58640900  0.49985700  0.91138600  1
  C  C117  1  0.91279900  0.99977000  0.08923800  1
  C  C118  1  0.08640900  0.99985700  0.91138600  1
  C  C119  1  0.49960100  0.58656300  0.99906800  1
  C  C120  1  0.99960100  0.08656300  0.99906800  1
  C  C121  1  0.53092600  0.65781800  0.00314000  1
  C  C122  1  0.46888400  0.65809600  0.99467300  1
  C  C123  1  0.03092600  0.15781800  0.00314000  1
  C  C124  1  0.96888400  0.15809600  0.99467300  1
  C  C125  1  0.49978900  0.63506400  0.99902400  1
  C  C126  1  0.99978900  0.13506400  0.99902400  1
  C  C127  1  0.46845000  0.70397900  0.99618400  1
  C  C128  1  0.53176000  0.70371100  0.00128700  1
  C  C129  1  0.96845000  0.20397900  0.99618400  1
  C  C130  1  0.03176000  0.20371100  0.00128700  1
  C  C131  1  0.50019700  0.72675300  0.99866700  1
  C  C132  1  0.00019700  0.22675300  0.99866700  1
  C  C133  1  0.43631800  0.72720600  0.99536500  1
  C  C134  1  0.56407200  0.72669300  0.00195000  1
  C  C135  1  0.93631800  0.22720600  0.99536500  1
  C  C136  1  0.06407200  0.22669300  0.00195000  1
  C  C137  1  0.93577300  0.27293000  0.99755800  1
  C  C138  1  0.06491700  0.27243700  0.99963900  1
  C  C139  1  0.43577300  0.77293000  0.99755800  1
  C  C140  1  0.56491700  0.77243700  0.99963900  1
  C  C141  1  0.96784000  0.29567200  0.99895500  1
  C  C142  1  0.03297300  0.29546500  0.99826200  1
  C  C143  1  0.46784000  0.79567200  0.99895500  1
  C  C144  1  0.53297300  0.79546500  0.99826200  1
  C  C145  1  0.00035200  0.27261600  0.99859500  1
  C  C146  1  0.50035200  0.77261600  0.99859500  1
  C  C147  1  0.96733600  0.34146700  0.00076800  1
  C  C148  1  0.03357900  0.34131100  0.99680500  1
  C  C149  1  0.46733600  0.84146700  0.00076800  1
  C  C150  1  0.53357900  0.84131100  0.99680500  1
  C  C151  1  0.00042500  0.36438800  0.99899600  1
  C  C152  1  0.50042500  0.86438800  0.99899600  1
  C  C153  1  0.52646900  0.34153300  0.93404400  1
  C  C154  1  0.47292800  0.34126400  0.06818900  1
  C  C155  1  0.02646900  0.84153300  0.93404400  1
  C  C156  1  0.97292800  0.84126400  0.06818900  1
  C  C157  1  0.49971000  0.36433900  0.00125800  1
  C  C158  1  0.99971000  0.86433900  0.00125800  1
  C  C159  1  0.47207300  0.29544300  0.06759300  1
  C  C160  1  0.52732600  0.29571600  0.93405000  1
  C  C161  1  0.97207300  0.79544300  0.06759300  1
  C  C162  1  0.02732600  0.79571600  0.93405000  1
  C  C163  1  0.49970400  0.27266800  0.00067300  1
  C  C164  1  0.99970400  0.77266800  0.00067300  1
  C  C165  1  0.44358300  0.27235200  0.13384100  1
  C  C166  1  0.55583900  0.27291100  0.86749500  1
  C  C167  1  0.94358300  0.77235200  0.13384100  1
  C  C168  1  0.05583900  0.77291100  0.86749500  1
  C  C169  1  0.94250600  0.72659900  0.13303800  1
  C  C170  1  0.05700700  0.72716300  0.86771400  1
  C  C171  1  0.44250600  0.22659900  0.13303800  1
  C  C172  1  0.55700700  0.22716300  0.86771400  1
  C  C173  1  0.97073000  0.70378300  0.06635400  1
  C  C174  1  0.02883800  0.70408300  0.93411000  1
  C  C175  1  0.47073000  0.20378300  0.06635400  1
  C  C176  1  0.52883800  0.20408300  0.93411000  1
  C  C177  1  0.99974200  0.72684500  0.00037600  1
  C  C178  1  0.49974200  0.22684500  0.00037600  1
  C  C179  1  0.97006900  0.65795200  0.06562800  1
  C  C180  1  0.02976400  0.65827600  0.93429100  1
  C  C181  1  0.47006900  0.15795200  0.06562800  1
  C  C182  1  0.52976400  0.15827600  0.93429100  1
  C  C183  1  0.00001900  0.63518000  0.99981800  1
  C  C184  1  0.50001900  0.13518000  0.99981800  1
  O  O1  1  0.06629200  0.53929500  0.43413900  1
  O  O2  1  0.93398400  0.53826400  0.56278600  1
  O  O3  1  0.56629200  0.03929500  0.43413900  1
  O  O4  1  0.43398400  0.03826400  0.56278600  1
  O  O5  1  0.06525800  0.46257500  0.43643300  1
  O  O6  1  0.93298200  0.46161400  0.56814700  1
  O  O7  1  0.56525800  0.96257500  0.43643300  1
  O  O8  1  0.43298200  0.96161400  0.56814700  1
  O  O9  1  0.00096900  0.53795900  0.59138800  1
  O  O10  1  0.00140200  0.53967100  0.40582800  1
  O  O11  1  0.50096900  0.03795900  0.59138800  1
  O  O12  1  0.50140200  0.03967100  0.40582800  1
  O  O13  1  0.99881600  0.46116700  0.59397300  1
  O  O14  1  0.99732500  0.46295300  0.41028600  1
  O  O15  1  0.49881600  0.96116700  0.59397300  1
  O  O16  1  0.49732500  0.96295300  0.41028600  1
  O  O17  1  0.96149400  0.43311400  0.03553100  1
  O  O18  1  0.03805900  0.43413000  0.96484700  1
  O  O19  1  0.46149400  0.93311400  0.03553100  1
  O  O20  1  0.53805900  0.93413000  0.96484700  1
  O  O21  1  0.96111600  0.49877600  0.94521000  1
  O  O22  1  0.03942500  0.50184900  0.05426300  1
  O  O23  1  0.46111600  0.99877600  0.94521000  1
  O  O24  1  0.53942500  0.00184900  0.05426300  1
  O  O25  1  0.03780500  0.50095600  0.87062700  1
  O  O26  1  0.96280800  0.49780100  0.12879700  1
  O  O27  1  0.53780500  0.00095600  0.87062700  1
  O  O28  1  0.46280800  0.99780100  0.12879700  1
  O  O29  1  0.96245600  0.56553200  0.03620600  1
  O  O30  1  0.03912300  0.56656300  0.96229800  1
  O  O31  1  0.46245600  0.06553200  0.03620600  1
  O  O32  1  0.53912300  0.06656300  0.96229800  1
  O  O33  1  0.49845500  0.43338600  0.05638800  1
  O  O34  1  0.50085200  0.43359200  0.94678200  1
  O  O35  1  0.99845500  0.93338600  0.05638800  1
  O  O36  1  0.00085200  0.93359200  0.94678200  1
  O  O37  1  0.43424200  0.49986900  0.12131900  1
  O  O38  1  0.56496100  0.50168400  0.87937600  1
  O  O39  1  0.93424200  0.99986900  0.12131900  1
  O  O40  1  0.06496100  0.00168400  0.87937600  1
  O  O41  1  0.43272800  0.49953800  0.01551800  1
  O  O42  1  0.56647000  0.49779700  0.98503700  1
  O  O43  1  0.93272800  0.99953800  0.01551800  1
  O  O44  1  0.06647000  0.99779700  0.98503700  1
  O  O45  1  0.50054400  0.56579700  0.05173900  1
  O  O46  1  0.49858500  0.56599400  0.94635400  1
  O  O47  1  0.00054400  0.06579700  0.05173900  1
  O  O48  1  0.99858500  0.06599400  0.94635400  1
  F  F1  1  0.20387200  0.40701300  0.19498300  1
  F  F2  1  0.79525300  0.40925600  0.80942600  1
  F  F3  1  0.70387200  0.90701300  0.19498300  1
  F  F4  1  0.29525300  0.90925600  0.80942600  1
  F  F5  1  0.56177500  0.63491200  0.00576300  1
  F  F6  1  0.43785900  0.63547300  0.99216700  1
  F  F7  1  0.06177500  0.13491200  0.00576300  1
  F  F8  1  0.93785900  0.13547300  0.99216700  1
  F  F9  1  0.07997100  0.52402400  0.71369500  1
  F  F10  1  0.94180500  0.55945400  0.26261800  1
  F  F11  1  0.57997100  0.02402400  0.71369500  1
  F  F12  1  0.44180500  0.05945400  0.26261800  1
  F  F13  1  0.93866600  0.55678200  0.85215500  1
  F  F14  1  0.08171200  0.52123800  0.12960900  1
  F  F15  1  0.43866600  0.05678200  0.85215500  1
  F  F16  1  0.58171200  0.02123800  0.12960900  1
  F  F17  1  0.36489600  0.55892900  0.20999300  1
  F  F18  1  0.63446200  0.55840300  0.78920600  1
  F  F19  1  0.86489600  0.05892900  0.20999300  1
  F  F20  1  0.13446200  0.05840300  0.78920600  1
