# generated using pymatgen
data_ZnH4C25N7O4
_symmetry_space_group_name_H-M   'P 1'
_cell_length_a   12.78461200
_cell_length_b   17.67433800
_cell_length_c   8.56014400
_cell_angle_alpha   90.00000000
_cell_angle_beta   93.29785700
_cell_angle_gamma   90.00000000
_symmetry_Int_Tables_number   1
_chemical_formula_structural   ZnH4C25N7O4
_chemical_formula_sum   'Zn2 H8 C50 N14 O8'
_cell_volume   1931.04314577
_cell_formula_units_Z   2
loop_
 _symmetry_equiv_pos_site_id
 _symmetry_equiv_pos_as_xyz
  1  'x, y, z'
loop_
 _atom_site_type_symbol
 _atom_site_label
 _atom_site_symmetry_multiplicity
 _atom_site_fract_x
 _atom_site_fract_y
 _atom_site_fract_z
 _atom_site_occupancy
  Zn  Zn1  1  0.50414400  0.08564700  0.50184500  1
  Zn  Zn2  1  0.49585100  0.91435300  0.49815400  1
  H  H1  1  0.85883300  0.00818300  0.78384600  1
  H  H2  1  0.14116100  0.99181700  0.21615300  1
  H  H3  1  0.57285300  0.97288000  0.99654900  1
  H  H4  1  0.42714100  0.02712100  0.00345100  1
  H  H5  1  0.76049900  0.55761100  0.48613900  1
  H  H6  1  0.23952900  0.44240400  0.51404300  1
  H  H7  1  0.23638500  0.55326000  0.46309800  1
  H  H8  1  0.76363600  0.44672500  0.53672800  1
  C  C1  1  0.70244200  0.99713800  0.15344100  1
  C  C2  1  0.29755300  0.00286200  0.84655800  1
  C  C3  1  0.80897000  0.00779800  0.16897800  1
  C  C4  1  0.19102400  0.99220200  0.83102100  1
  C  C5  1  0.86737500  0.00639100  0.03812600  1
  C  C6  1  0.13261900  0.99360900  0.96187300  1
  C  C7  1  0.81663800  0.00354400  0.88931200  1
  C  C8  1  0.18335600  0.99645600  0.11068700  1
  C  C9  1  0.70897100  0.99428600  0.87567600  1
  C  C10  1  0.29102300  0.00571400  0.12432300  1
  C  C11  1  0.65487000  0.98543300  0.00800200  1
  C  C12  1  0.34512400  0.01456700  0.99199800  1
  C  C13  1  0.63731200  0.99902500  0.28751700  1
  C  C14  1  0.36268300  0.00097500  0.71248200  1
  C  C15  1  0.35314900  0.00318500  0.27357800  1
  C  C16  1  0.64684500  0.99681500  0.72642200  1
  C  C17  1  0.59672000  0.22323900  0.51059900  1
  C  C18  1  0.40327800  0.77675800  0.48938400  1
  C  C19  1  0.41322100  0.22213800  0.50144600  1
  C  C20  1  0.58677800  0.77786500  0.49857100  1
  C  C21  1  0.50301300  0.34157400  0.50648400  1
  C  C22  1  0.49699400  0.65842600  0.49351800  1
  C  C23  1  0.59730200  0.30234800  0.51237100  1
  C  C24  1  0.40270200  0.69764900  0.48759800  1
  C  C25  1  0.41010800  0.30102200  0.50383200  1
  C  C26  1  0.58989700  0.69898100  0.49620300  1
  C  C27  1  0.69000300  0.34345300  0.52245600  1
  C  C28  1  0.31000400  0.65654200  0.47745600  1
  C  C29  1  0.31616200  0.34054900  0.50602000  1
  C  C30  1  0.68384800  0.65945700  0.49407400  1
  C  C31  1  0.59293700  0.54041100  0.50101500  1
  C  C32  1  0.40707700  0.45959100  0.49900600  1
  C  C33  1  0.40544200  0.53888500  0.49261300  1
  C  C34  1  0.59457200  0.46111400  0.50736900  1
  C  C35  1  0.49846600  0.57917400  0.49620500  1
  C  C36  1  0.50154600  0.42082600  0.50379700  1
  C  C37  1  0.68442300  0.58211300  0.49479000  1
  C  C38  1  0.31559300  0.41789400  0.50530400  1
  C  C39  1  0.31208300  0.57909500  0.47828200  1
  C  C40  1  0.68792900  0.42089900  0.52162900  1
  C  C41  1  0.85996400  0.01632200  0.32167700  1
  C  C42  1  0.14003100  0.98367600  0.67832200  1
  C  C43  1  0.79190800  0.30907800  0.53768000  1
  C  C44  1  0.20810000  0.69091400  0.46215500  1
  C  C45  1  0.21554100  0.30489700  0.51327800  1
  C  C46  1  0.78447400  0.69511100  0.48690000  1
  C  C47  1  0.31875800  0.17811800  0.49376800  1
  C  C48  1  0.68123800  0.82188900  0.50623800  1
  C  C49  1  0.69180600  0.17993500  0.51364400  1
  C  C50  1  0.30818900  0.82005900  0.48634400  1
  N  N1  1  0.97778000  0.00812800  0.06045900  1
  N  N2  1  0.02221400  0.99187200  0.93954000  1
  N  N3  1  0.50550800  0.18511200  0.50412300  1
  N  N4  1  0.49448700  0.81488800  0.49587700  1
  N  N5  1  0.90093800  0.02324900  0.44489400  1
  N  N6  1  0.09905700  0.97674900  0.55510500  1
  N  N7  1  0.87409200  0.28156800  0.54996800  1
  N  N8  1  0.12591700  0.71842200  0.44980600  1
  N  N9  1  0.13435700  0.27644200  0.51914000  1
  N  N10  1  0.86566300  0.72356700  0.48110300  1
  N  N11  1  0.24265800  0.14253800  0.48760100  1
  N  N12  1  0.75733500  0.85747100  0.51239700  1
  N  N13  1  0.76831800  0.14488600  0.51608700  1
  N  N14  1  0.23167500  0.85510400  0.48390500  1
  O  O1  1  0.60024900  0.93426200  0.33584800  1
  O  O2  1  0.39974600  0.06573800  0.66415100  1
  O  O3  1  0.39090500  0.93437900  0.65974100  1
  O  O4  1  0.60908900  0.06562100  0.34025700  1
  O  O5  1  0.39342400  0.06652500  0.32811500  1
  O  O6  1  0.60657000  0.93347600  0.67188600  1
  O  O7  1  0.61545400  0.06296900  0.67290700  1
  O  O8  1  0.38454100  0.93703100  0.32709200  1
