# generated using pymatgen
data_Cu3H19C23O12
_symmetry_space_group_name_H-M   'P 1'
_cell_length_a   18.89318300
_cell_length_b   18.69591300
_cell_length_c   18.92297300
_cell_angle_alpha   108.82633200
_cell_angle_beta   110.38234000
_cell_angle_gamma   108.92555700
_symmetry_Int_Tables_number   1
_chemical_formula_structural   Cu3H19C23O12
_chemical_formula_sum   'Cu6 H38 C46 O24'
_cell_volume   5162.16997192
_cell_formula_units_Z   2
loop_
 _symmetry_equiv_pos_site_id
 _symmetry_equiv_pos_as_xyz
  1  'x, y, z'
loop_
 _atom_site_type_symbol
 _atom_site_label
 _atom_site_symmetry_multiplicity
 _atom_site_fract_x
 _atom_site_fract_y
 _atom_site_fract_z
 _atom_site_occupancy
  Cu  Cu1  1  0.50977500  0.47519200  0.46899300  1
  Cu  Cu2  1  0.50122500  0.59238600  0.58099800  1
  Cu  Cu3  1  0.95035200  0.45411400  0.02070800  1
  Cu  Cu4  1  0.06658100  0.56946600  0.00898600  1
  Cu  Cu5  1  0.94607400  0.01913900  0.45362700  1
  Cu  Cu6  1  0.07154300  0.01231400  0.56759300  1
  H  H1  1  0.26684300  0.66161500  0.31201400  1
  H  H2  1  0.25305000  0.37982500  0.22104900  1
  H  H3  1  0.11852200  0.41182400  0.22439200  1
  H  H4  1  0.23859200  0.55729400  0.39000200  1
  H  H5  1  0.73013700  0.78880900  0.39476800  1
  H  H6  1  0.85177600  0.82269200  0.57339100  1
  H  H7  1  0.63380100  0.65534900  0.39136700  1
  H  H8  1  0.72810500  0.78231200  0.58540000  1
  H  H9  1  0.89274600  0.56743300  0.78828100  1
  H  H10  1  0.75004400  0.47519700  0.81981800  1
  H  H11  1  0.76422100  0.53368800  0.65577200  1
  H  H12  1  0.69117600  0.55760100  0.77765300  1
  H  H13  1  0.28940100  0.17480900  0.55748800  1
  H  H14  1  0.16337000  0.22628500  0.46415900  1
  H  H15  1  0.38515500  0.26923900  0.52121600  1
  H  H16  1  0.28086500  0.36234600  0.54088400  1
  H  H17  1  0.03585300  0.77317600  0.39239800  1
  H  H18  1  0.95622600  0.81425600  0.25005700  1
  H  H19  1  0.98994400  0.63627300  0.26031200  1
  H  H20  1  0.04592400  0.77068200  0.20395600  1
  H  H21  1  0.97057000  0.25217400  0.63090600  1
  H  H22  1  0.06282500  0.21563600  0.77212700  1
  H  H23  1  0.01772500  0.38796400  0.76520200  1
  H  H24  1  0.97191800  0.25331600  0.82365400  1
  H  H25  1  0.54765800  0.81600600  0.38545200  1
  H  H26  1  0.56037600  0.74249600  0.30734300  1
  H  H27  1  0.51935000  0.81113400  0.28169000  1
  H  H28  1  0.40179600  0.65965400  0.20784200  1
  H  H29  1  0.38775900  0.73288600  0.28441800  1
  H  H30  1  0.45635500  0.69446500  0.39392100  1
  H  H31  1  0.46896900  0.61988900  0.31786100  1
  H  H32  1  0.28831100  0.35276800  0.99841700  1
  H  H33  1  0.35182400  0.46089300  0.01849800  1
  H  H34  1  0.40537700  0.40466200  0.05473300  1
  H  H35  1  0.41536500  0.51575400  0.17679000  1
  H  H36  1  0.34928900  0.40824200  0.15588300  1
  H  H37  1  0.21649600  0.41201300  0.06613900  1
  H  H38  1  0.28511600  0.52291400  0.09878200  1
  C  C1  1  0.61801000  0.65216000  0.52444500  1
  C  C2  1  0.38753400  0.52693600  0.40229100  1
  C  C3  1  0.39317400  0.41592100  0.52630600  1
  C  C4  1  0.62463500  0.54148400  0.64756000  1
  C  C5  1  0.33678600  0.58012100  0.28921100  1
  C  C6  1  0.26476800  0.59798000  0.29237600  1
  C  C7  1  0.20136500  0.51819400  0.20387700  1
  C  C8  1  0.27298600  0.50087900  0.20055900  1
  C  C9  1  0.25603500  0.44388200  0.24111400  1
  C  C10  1  0.18358200  0.46147900  0.24404600  1
  C  C11  1  0.24787000  0.54096500  0.33333333  1
  C  C12  1  0.31944900  0.52365400  0.32950400  1
  C  C13  1  0.74857600  0.78314900  0.45288500  1
  C  C14  1  0.83017400  0.83393300  0.51896900  1
  C  C15  1  0.68440700  0.71281300  0.45285400  1
  C  C16  1  0.68332600  0.72153600  0.52522900  1
  C  C17  1  0.82921700  0.54211000  0.78195700  1
  C  C18  1  0.81504700  0.50841300  0.83128000  1
  C  C19  1  0.75868900  0.53759200  0.71183500  1
  C  C20  1  0.69301600  0.54511600  0.71846100  1
  C  C21  1  0.26887400  0.21242800  0.53060400  1
  C  C22  1  0.18647700  0.19499800  0.49868100  1
  C  C23  1  0.33185300  0.27750900  0.52404600  1
  C  C24  1  0.32859600  0.34919800  0.52903900  1
  C  C25  1  0.01674300  0.63636700  0.13249900  1
  C  C26  1  0.13094200  0.51410000  0.13242200  1
  C  C27  1  0.99979500  0.38720900  0.89664200  1
  C  C28  1  0.88580600  0.50997700  0.89777700  1
  C  C29  1  0.02115600  0.13671100  0.63561900  1
  C  C30  1  0.89445600  0.90075500  0.51614000  1
  C  C31  1  0.99592600  0.89412900  0.38574900  1
  C  C32  1  0.12301700  0.12953200  0.50366500  1
  C  C33  1  0.01349200  0.76892500  0.32934300  1
  C  C34  1  0.98789500  0.82395400  0.31499700  1
  C  C35  1  0.00423400  0.69670500  0.25903200  1
  C  C36  1  0.02194700  0.70747800  0.19973400  1
  C  C37  1  0.99684100  0.25695000  0.69413100  1
  C  C38  1  0.02777300  0.20484900  0.70722000  1
  C  C39  1  0.00650400  0.32778600  0.76629100  1
  C  C40  1  0.99331100  0.31646200  0.82762700  1
  C  C41  1  0.42825900  0.65004800  0.32425900  1
  C  C42  1  0.42805300  0.70230300  0.27732200  1
  C  C43  1  0.51996000  0.77259900  0.31560400  1
  C  C44  1  0.27798100  0.47236600  0.11835700  1
  C  C45  1  0.35305700  0.45448500  0.13073300  1
  C  C46  1  0.34924200  0.41563300  0.04486000  1
  O  O1  1  0.57578400  0.57229600  0.45869300  1
  O  O2  1  0.60512300  0.67321700  0.59074800  1
  O  O3  1  0.40242700  0.46073200  0.38560900  1
  O  O4  1  0.42995500  0.59588900  0.47995300  1
  O  O5  1  0.44241300  0.39657100  0.49698600  1
  O  O6  1  0.39871200  0.49314400  0.55370200  1
  O  O7  1  0.61585100  0.50816600  0.56989400  1
  O  O8  1  0.57398300  0.57051700  0.66442500  1
  O  O9  1  0.96754700  0.55638400  0.11183200  1
  O  O10  1  0.06173100  0.65610800  0.09573900  1
  O  O11  1  0.05069600  0.46007300  0.10554800  1
  O  O12  1  0.15157600  0.56613800  0.10139300  1
  O  O13  1  0.95422100  0.36740700  0.93294800  1
  O  O14  1  0.05031700  0.46725500  0.91866900  1
  O  O15  1  0.86541600  0.45854300  0.92937100  1
  O  O16  1  0.96615800  0.56263700  0.92322700  1
  O  O17  1  0.96074800  0.10692700  0.55626200  1
  O  O18  1  0.07580300  0.10775700  0.65441200  1
  O  O19  1  0.86752200  0.92842300  0.46212100  1
  O  O20  1  0.97672900  0.92989000  0.56809800  1
  O  O21  1  0.94350200  0.92544400  0.36651500  1
  O  O22  1  0.05503500  0.92252900  0.46515300  1
  O  O23  1  0.04095200  0.10354400  0.45496800  1
  O  O24  1  0.14997600  0.10087300  0.55677500  1
