# generated using pymatgen
data_VH8C15O7
_symmetry_space_group_name_H-M   'P 1'
_cell_length_a   23.83820000
_cell_length_b   6.81800000
_cell_length_c   20.10799600
_cell_angle_alpha   90.00000000
_cell_angle_beta   94.14970800
_cell_angle_gamma   90.00000000
_symmetry_Int_Tables_number   1
_chemical_formula_structural   VH8C15O7
_chemical_formula_sum   'V4 H32 C60 O28'
_cell_volume   3259.56161957
_cell_formula_units_Z   4
loop_
 _symmetry_equiv_pos_site_id
 _symmetry_equiv_pos_as_xyz
  1  'x, y, z'
loop_
 _atom_site_type_symbol
 _atom_site_label
 _atom_site_symmetry_multiplicity
 _atom_site_fract_x
 _atom_site_fract_y
 _atom_site_fract_z
 _atom_site_occupancy
  V  V1  1  0.24976300  0.82617700  0.73911300  1
  V  V2  1  0.75025800  0.18578200  0.26099400  1
  V  V3  1  0.25023700  0.32617700  0.76088700  1
  V  V4  1  0.74974200  0.68578200  0.23900700  1
  H  H1  1  0.47040900  0.70078400  0.95541000  1
  H  H2  1  0.52589800  0.30890300  0.04999500  1
  H  H3  1  0.02959100  0.20078400  0.54459000  1
  H  H4  1  0.97410200  0.80890300  0.45000500  1
  H  H5  1  0.38986500  0.72033000  0.87500400  1
  H  H6  1  0.60735200  0.28991900  0.12912900  1
  H  H7  1  0.11013500  0.22032900  0.62499600  1
  H  H8  1  0.89264800  0.78991900  0.37087200  1
  H  H9  1  0.38218900  0.33754100  0.90296600  1
  H  H10  1  0.61869800  0.67601300  0.09564400  1
  H  H11  1  0.11781100  0.83754200  0.59703400  1
  H  H12  1  0.88130200  0.17601300  0.40435600  1
  H  H13  1  0.46294500  0.32344400  0.98297700  1
  H  H14  1  0.53778800  0.69016100  0.01590900  1
  H  H15  1  0.03705500  0.82344400  0.51702300  1
  H  H16  1  0.96221200  0.19016200  0.48409100  1
  H  H17  1  0.06005400  0.29778600  0.99672100  1
  H  H18  1  0.93900800  0.71545500  0.00212800  1
  H  H19  1  0.43994600  0.79778600  0.50328000  1
  H  H20  1  0.56099200  0.21545600  0.49787200  1
  H  H21  1  0.89509700  0.45569800  0.19580900  1
  H  H22  1  0.92095600  0.61701800  0.13335600  1
  H  H23  1  0.96926400  0.51502200  0.19795400  1
  H  H24  1  0.95917600  0.25467900  0.88320000  1
  H  H25  1  0.03381400  0.30687700  0.88625900  1
  H  H26  1  0.98663700  0.41813800  0.82241900  1
  H  H27  1  0.60490300  0.95569800  0.30419200  1
  H  H28  1  0.57904400  0.11701700  0.36664400  1
  H  H29  1  0.53073600  0.01502200  0.30204600  1
  H  H30  1  0.54082500  0.75467900  0.61680000  1
  H  H31  1  0.46618700  0.80687800  0.61374100  1
  H  H32  1  0.51336300  0.91813800  0.67758100  1
  C  C1  1  0.32726400  0.54356500  0.67273000  1
  C  C2  1  0.67322500  0.46853500  0.32790700  1
  C  C3  1  0.17273600  0.04356500  0.82727000  1
  C  C4  1  0.82677600  0.96853500  0.17209300  1
  C  C5  1  0.16849700  0.54398400  0.66608000  1
  C  C6  1  0.83201400  0.46796800  0.33318300  1
  C  C7  1  0.33150300  0.04398300  0.83392100  1
  C  C8  1  0.66798600  0.96796800  0.16681700  1
  C  C9  1  0.45218100  0.84289400  0.94496600  1
  C  C10  1  0.54537600  0.16786400  0.05861400  1
  C  C11  1  0.04782000  0.34289600  0.55503500  1
  C  C12  1  0.95462500  0.66786500  0.44138600  1
  C  C13  1  0.40592300  0.85287400  0.89896400  1
  C  C14  1  0.59202400  0.15810300  0.10406400  1
  C  C15  1  0.09407700  0.35287600  0.60103600  1
  C  C16  1  0.90797700  0.65810400  0.39593700  1
  C  C17  1  0.38031200  0.03024300  0.88343500  1
  C  C18  1  0.61882200  0.98172100  0.11781500  1
  C  C19  1  0.11968800  0.53024300  0.61656400  1
  C  C20  1  0.88117800  0.48172100  0.38218500  1
  C  C21  1  0.40165600  0.19735100  0.91467100  1
  C  C22  1  0.59828300  0.81541900  0.08535900  1
  C  C23  1  0.09834400  0.69735000  0.58532900  1
  C  C24  1  0.90171700  0.31541900  0.41464100  1
  C  C25  1  0.44793300  0.18826000  0.96049700  1
  C  C26  1  0.55180500  0.82444300  0.03984500  1
  C  C27  1  0.05206800  0.68826100  0.53950400  1
  C  C28  1  0.94819600  0.32444600  0.46015500  1
  C  C29  1  0.47418100  0.01073200  0.97647700  1
  C  C30  1  0.52437300  0.00096500  0.02561600  1
  C  C31  1  0.02581800  0.51073100  0.52352300  1
  C  C32  1  0.97562600  0.50096400  0.47438400  1
  C  C33  1  0.03369800  0.16895100  0.99762300  1
  C  C34  1  0.96545000  0.84410000  0.00129800  1
  C  C35  1  0.46630300  0.66895100  0.50237700  1
  C  C36  1  0.53455100  0.34409800  0.49870200  1
  C  C37  1  0.04359900  0.01233100  0.95600300  1
  C  C38  1  0.95560100  0.00060100  0.04298100  1
  C  C39  1  0.45640100  0.51233100  0.54399800  1
  C  C40  1  0.54439900  0.50060100  0.45701900  1
  C  C41  1  0.00879700  0.84978400  0.95830700  1
  C  C42  1  0.99030000  0.16337400  0.04054600  1
  C  C43  1  0.49120300  0.34978400  0.54169400  1
  C  C44  1  0.50970000  0.66337500  0.45945400  1
  C  C45  1  0.08925800  0.01958700  0.91059400  1
  C  C46  1  0.90999500  0.99312400  0.08844600  1
  C  C47  1  0.41074200  0.51958700  0.58940600  1
  C  C48  1  0.59000500  0.49312400  0.41155500  1
  C  C49  1  0.87205900  0.98421300  0.12640700  1
  C  C50  1  0.12728400  0.02821100  0.87274400  1
  C  C51  1  0.62794000  0.48421300  0.37359300  1
  C  C52  1  0.37271700  0.52821000  0.62725600  1
  C  C53  1  0.98128300  0.33161500  0.08348500  1
  C  C54  1  0.93081200  0.48646900  0.16497200  1
  C  C55  1  0.01745300  0.68235300  0.91488800  1
  C  C56  1  0.99114600  0.36870800  0.87507900  1
  C  C57  1  0.51871700  0.83161400  0.41651600  1
  C  C58  1  0.56918800  0.98647100  0.33502800  1
  C  C59  1  0.48254700  0.18235600  0.58511200  1
  C  C60  1  0.50885400  0.86870600  0.62492200  1
  O  O1  1  0.18725500  0.37539400  0.69375700  1
  O  O2  1  0.81311100  0.63648800  0.30560600  1
  O  O3  1  0.31274500  0.87539600  0.80624300  1
  O  O4  1  0.68688900  0.13648900  0.19439400  1
  O  O5  1  0.30526700  0.72277800  0.67921100  1
  O  O6  1  0.69515000  0.28925200  0.32138500  1
  O  O7  1  0.19473300  0.22277800  0.82078900  1
  O  O8  1  0.80485000  0.78925300  0.17861500  1
  O  O9  1  0.19075100  0.72294700  0.67421600  1
  O  O10  1  0.80964500  0.28908900  0.32538600  1
  O  O11  1  0.30924900  0.22294600  0.82578400  1
  O  O12  1  0.69035500  0.78908700  0.17461400  1
  O  O13  1  0.19045800  0.87556200  0.80087900  1
  O  O14  1  0.80915000  0.13635700  0.19868900  1
  O  O15  1  0.30954200  0.37556200  0.69912200  1
  O  O16  1  0.69085000  0.63635800  0.30131100  1
  O  O17  1  0.25125600  0.55653700  0.78990100  1
  O  O18  1  0.74854000  0.45546400  0.20995000  1
  O  O19  1  0.24874400  0.05653600  0.71009900  1
  O  O20  1  0.75146000  0.95546400  0.29005000  1
  O  O21  1  0.01150000  0.47543500  0.08150700  1
  O  O22  1  0.93958300  0.32795600  0.12516100  1
  O  O23  1  0.05522600  0.68561100  0.87715300  1
  O  O24  1  0.98347100  0.52496900  0.91627900  1
  O  O25  1  0.48850000  0.97543500  0.41849300  1
  O  O26  1  0.56041700  0.82795400  0.37484000  1
  O  O27  1  0.44477400  0.18561100  0.62284700  1
  O  O28  1  0.51652900  0.02497000  0.58372100  1
