# generated using pymatgen
data_Zn2H21C35N3O8
_symmetry_space_group_name_H-M   'P 1'
_cell_length_a   10.81542700
_cell_length_b   13.42120500
_cell_length_c   8.55622800
_cell_angle_alpha   90.00000000
_cell_angle_beta   89.99828700
_cell_angle_gamma   90.00000000
_symmetry_Int_Tables_number   1
_chemical_formula_structural   Zn2H21C35N3O8
_chemical_formula_sum   'Zn2 H21 C35 N3 O8'
_cell_volume   1241.98836945
_cell_formula_units_Z   1
loop_
 _symmetry_equiv_pos_site_id
 _symmetry_equiv_pos_as_xyz
  1  'x, y, z'
loop_
 _atom_site_type_symbol
 _atom_site_label
 _atom_site_symmetry_multiplicity
 _atom_site_fract_x
 _atom_site_fract_y
 _atom_site_fract_z
 _atom_site_occupancy
  Zn  Zn1  1  0.49390600  0.11037600  0.50277200  1
  Zn  Zn2  1  0.48293900  0.88887800  0.49964600  1
  H  H1  1  0.88156600  0.00203000  0.38861200  1
  H  H2  1  0.57525400  0.96534300  0.00481800  1
  H  H3  1  0.40353100  0.03422300  0.00458000  1
  H  H4  1  0.89728300  0.01405800  0.74518400  1
  H  H5  1  0.08209300  0.97995600  0.74661200  1
  H  H6  1  0.68822100  0.25438500  0.48995300  1
  H  H7  1  0.67377600  0.75132100  0.50832600  1
  H  H8  1  0.79741500  0.41414200  0.49259700  1
  H  H9  1  0.79178300  0.59687900  0.50257700  1
  H  H10  1  0.29131300  0.56553400  0.44910200  1
  H  H11  1  0.29704400  0.42815400  0.55261600  1
  H  H12  1  0.23588700  0.82406200  0.50423600  1
  H  H13  1  0.17874100  0.70220100  0.51559600  1
  H  H14  1  0.28603500  0.72588100  0.20038900  1
  H  H15  1  0.03764100  0.80279900  0.32114000  1
  H  H16  1  0.08465100  0.77945300  0.11314400  1
  H  H17  1  0.24647100  0.17100500  0.50157700  1
  H  H18  1  0.19161300  0.29166400  0.48090100  1
  H  H19  1  0.29328000  0.27892100  0.79941400  1
  H  H20  1  0.04995000  0.19176300  0.67923700  1
  H  H21  1  0.09262800  0.22321400  0.88599700  1
  C  C1  1  0.67224400  0.98039100  0.00278100  1
  C  C2  1  0.73096200  0.99105900  0.86224400  1
  C  C3  1  0.85682600  0.00294200  0.85850500  1
  C  C4  1  0.73402700  0.99390700  0.14098400  1
  C  C5  1  0.86233100  0.99966600  0.13925700  1
  C  C6  1  0.92477300  0.99984600  0.99705200  1
  C  C7  1  0.05373100  0.00003400  0.99735700  1
  C  C8  1  0.12214000  0.99319600  0.85960500  1
  C  C9  1  0.24809200  0.00449300  0.86372600  1
  C  C10  1  0.92874200  0.00232000  0.27731200  1
  C  C11  1  0.11631400  0.00371300  0.13938100  1
  C  C12  1  0.24428300  0.00946400  0.14090800  1
  C  C13  1  0.30651700  0.01926700  0.00300000  1
  C  C14  1  0.32316100  0.00096600  0.72277800  1
  C  C15  1  0.65600700  0.99444100  0.72020700  1
  C  C16  1  0.65777100  0.99796700  0.28291500  1
  C  C17  1  0.31972900  0.00540400  0.28273400  1
  C  C18  1  0.58880100  0.70915700  0.50214400  1
  C  C19  1  0.60123900  0.29378300  0.49715600  1
  C  C20  1  0.37320600  0.70462000  0.47841800  1
  C  C21  1  0.38549900  0.29211200  0.52280500  1
  C  C22  1  0.37692900  0.60259500  0.47543100  1
  C  C23  1  0.38414500  0.39384300  0.52518500  1
  C  C24  1  0.48650100  0.55161100  0.49505600  1
  C  C25  1  0.49001000  0.44821500  0.50359600  1
  C  C26  1  0.59410100  0.60556200  0.50007600  1
  C  C27  1  0.60055600  0.39783300  0.49768900  1
  C  C28  1  0.70930100  0.45213400  0.49508200  1
  C  C29  1  0.70606500  0.55546900  0.50089600  1
  C  C30  1  0.24773900  0.74945100  0.45473400  1
  C  C31  1  0.21754300  0.74993400  0.28484400  1
  C  C32  1  0.10652000  0.77933200  0.23678300  1
  C  C33  1  0.26003600  0.24639000  0.54633000  1
  C  C34  1  0.22702400  0.25070100  0.71530000  1
  C  C35  1  0.11643900  0.22000500  0.76303800  1
  N  N1  1  0.05321400  0.00442900  0.27496000  1
  N  N2  1  0.47912600  0.75797800  0.49573200  1
  N  N3  1  0.49423200  0.24139400  0.50602600  1
  O  O1  1  0.35824400  0.91423700  0.66932700  1
  O  O2  1  0.36903500  0.08458300  0.67177100  1
  O  O3  1  0.62298100  0.08290100  0.66688200  1
  O  O4  1  0.61152000  0.90950800  0.66678100  1
  O  O5  1  0.62261400  0.08593800  0.33652300  1
  O  O6  1  0.61205000  0.91333900  0.33435200  1
  O  O7  1  0.35651900  0.91816300  0.33341300  1
  O  O8  1  0.36799400  0.08843300  0.33342800  1
