# generated using pymatgen
data_Zn3H16C24(NO3)4
_symmetry_space_group_name_H-M   'P 1'
_cell_length_a   18.59688800
_cell_length_b   31.14997000
_cell_length_c   30.88174400
_cell_angle_alpha   90.00000000
_cell_angle_beta   90.00000000
_cell_angle_gamma   90.00000000
_symmetry_Int_Tables_number   1
_chemical_formula_structural   Zn3H16C24(NO3)4
_chemical_formula_sum   'Zn24 H128 C192 N32 O96'
_cell_volume   17889.56278782
_cell_formula_units_Z   8
loop_
 _symmetry_equiv_pos_site_id
 _symmetry_equiv_pos_as_xyz
  1  'x, y, z'
loop_
 _atom_site_type_symbol
 _atom_site_label
 _atom_site_symmetry_multiplicity
 _atom_site_fract_x
 _atom_site_fract_y
 _atom_site_fract_z
 _atom_site_occupancy
  Zn  Zn1  1  0.49804000  0.78704800  0.28412400  1
  Zn  Zn2  1  0.50356100  0.78694200  0.71581900  1
  Zn  Zn3  1  0.99804000  0.28704800  0.28412400  1
  Zn  Zn4  1  0.00356100  0.28694200  0.71581900  1
  Zn  Zn5  1  0.99804000  0.78704800  0.78412400  1
  Zn  Zn6  1  0.00356100  0.78694200  0.21581900  1
  Zn  Zn7  1  0.49804000  0.28704800  0.78412400  1
  Zn  Zn8  1  0.50356100  0.28694200  0.21581900  1
  Zn  Zn9  1  0.50338200  0.71777800  0.21539100  1
  Zn  Zn10  1  0.49838400  0.71745000  0.78433600  1
  Zn  Zn11  1  0.00338200  0.21777800  0.21539100  1
  Zn  Zn12  1  0.99838400  0.21745000  0.78433600  1
  Zn  Zn13  1  0.00338200  0.71777800  0.71539100  1
  Zn  Zn14  1  0.99838400  0.71745000  0.28433600  1
  Zn  Zn15  1  0.50338200  0.21777800  0.71539100  1
  Zn  Zn16  1  0.49838400  0.21745000  0.28433600  1
  Zn  Zn17  1  0.41911300  0.00259400  0.99836800  1
  Zn  Zn18  1  0.58148400  0.00230800  0.00137400  1
  Zn  Zn19  1  0.91911300  0.50259400  0.99836800  1
  Zn  Zn20  1  0.08148400  0.50230800  0.00137400  1
  Zn  Zn21  1  0.91911300  0.00259400  0.49836800  1
  Zn  Zn22  1  0.08148400  0.00230800  0.50137400  1
  Zn  Zn23  1  0.41911300  0.50259400  0.49836800  1
  Zn  Zn24  1  0.58148400  0.50230800  0.50137400  1
  H  H1  1  0.60778000  0.63699900  0.32398000  1
  H  H2  1  0.39306500  0.63774700  0.67511100  1
  H  H3  1  0.10778000  0.13699900  0.32398000  1
  H  H4  1  0.89306500  0.13774700  0.67511100  1
  H  H5  1  0.10778000  0.63699900  0.82398000  1
  H  H6  1  0.89306500  0.63774700  0.17511100  1
  H  H7  1  0.60778000  0.13699900  0.82398000  1
  H  H8  1  0.39306500  0.13774700  0.17511100  1
  H  H9  1  0.33910300  0.61020200  0.41326500  1
  H  H10  1  0.61888100  0.64610100  0.54640700  1
  H  H11  1  0.38393500  0.64675600  0.45381500  1
  H  H12  1  0.66246100  0.60923700  0.58716600  1
  H  H13  1  0.83910300  0.11020200  0.41326500  1
  H  H14  1  0.11888100  0.14610100  0.54640700  1
  H  H15  1  0.88393500  0.14675600  0.45381500  1
  H  H16  1  0.16246100  0.10923700  0.58716600  1
  H  H17  1  0.83910300  0.61020200  0.91326500  1
  H  H18  1  0.11888100  0.64610100  0.04640700  1
  H  H19  1  0.88393500  0.64675600  0.95381500  1
  H  H20  1  0.16246100  0.60923700  0.08716600  1
  H  H21  1  0.33910300  0.11020200  0.91326500  1
  H  H22  1  0.61888100  0.14610100  0.04640700  1
  H  H23  1  0.38393500  0.14675600  0.95381500  1
  H  H24  1  0.66246100  0.10923700  0.08716600  1
  H  H25  1  0.33961600  0.66775200  0.36005000  1
  H  H26  1  0.61942700  0.70383400  0.59954800  1
  H  H27  1  0.38371700  0.70451700  0.40070700  1
  H  H28  1  0.66224500  0.66675600  0.64041300  1
  H  H29  1  0.83961600  0.16775200  0.36005000  1
  H  H30  1  0.11942700  0.20383400  0.59954800  1
  H  H31  1  0.88371700  0.20451700  0.40070700  1
  H  H32  1  0.16224500  0.16675600  0.64041300  1
  H  H33  1  0.83961600  0.66775200  0.86005000  1
  H  H34  1  0.11942700  0.70383400  0.09954800  1
  H  H35  1  0.88371700  0.70451700  0.90070700  1
  H  H36  1  0.16224500  0.66675600  0.14041300  1
  H  H37  1  0.33961600  0.16775200  0.86005000  1
  H  H38  1  0.61942700  0.20383400  0.09954800  1
  H  H39  1  0.38371700  0.20451700  0.90070700  1
  H  H40  1  0.66224500  0.16675600  0.14041300  1
  H  H41  1  0.56284500  0.80890700  0.11037700  1
  H  H42  1  0.44480300  0.80636500  0.89137900  1
  H  H43  1  0.06284500  0.30890700  0.11037700  1
  H  H44  1  0.94480300  0.30636500  0.89137900  1
  H  H45  1  0.06284500  0.80890700  0.61037700  1
  H  H46  1  0.94480300  0.80636500  0.39137900  1
  H  H47  1  0.56284500  0.30890700  0.61037700  1
  H  H48  1  0.44480300  0.30636500  0.39137900  1
  H  H49  1  0.44729000  0.91476900  0.22136800  1
  H  H50  1  0.63157200  0.89326300  0.79936000  1
  H  H51  1  0.36310700  0.89025300  0.19790400  1
  H  H52  1  0.54439600  0.91594300  0.77806500  1
  H  H53  1  0.94729000  0.41476900  0.22136800  1
  H  H54  1  0.13157200  0.39326300  0.79936000  1
  H  H55  1  0.86310700  0.39025300  0.19790400  1
  H  H56  1  0.04439600  0.41594300  0.77806500  1
  H  H57  1  0.94729000  0.91476900  0.72136800  1
  H  H58  1  0.13157200  0.89326300  0.29936000  1
  H  H59  1  0.86310700  0.89025300  0.69790400  1
  H  H60  1  0.04439600  0.91594300  0.27806500  1
  H  H61  1  0.44729000  0.41476900  0.72136800  1
  H  H62  1  0.63157200  0.39326300  0.29936000  1
  H  H63  1  0.36310700  0.39025300  0.69790400  1
  H  H64  1  0.54439600  0.41594300  0.27806500  1
  H  H65  1  0.61086400  0.54312700  0.37096800  1
  H  H66  1  0.66563200  0.58422200  0.35847200  1
  H  H67  1  0.38870800  0.54380200  0.62768000  1
  H  H68  1  0.33482300  0.58524400  0.64048900  1
  H  H69  1  0.11086400  0.04312700  0.37096800  1
  H  H70  1  0.16563200  0.08422200  0.35847200  1
  H  H71  1  0.88870800  0.04380200  0.62768000  1
  H  H72  1  0.83482300  0.08524400  0.64048900  1
  H  H73  1  0.11086400  0.54312700  0.87096800  1
  H  H74  1  0.16563200  0.58422200  0.85847200  1
  H  H75  1  0.88870800  0.54380200  0.12768000  1
  H  H76  1  0.83482300  0.58524400  0.14048900  1
  H  H77  1  0.61086400  0.04312700  0.87096800  1
  H  H78  1  0.66563200  0.08422200  0.85847200  1
  H  H79  1  0.38870800  0.04380200  0.12768000  1
  H  H80  1  0.33482300  0.08524400  0.14048900  1
  H  H81  1  0.62730200  0.86051600  0.05514800  1
  H  H82  1  0.55577500  0.83637300  0.03189300  1
  H  H83  1  0.46784500  0.86720900  0.98124600  1
  H  H84  1  0.38898200  0.88156600  0.95732000  1
  H  H85  1  0.12730200  0.36051600  0.05514800  1
  H  H86  1  0.05577500  0.33637300  0.03189300  1
  H  H87  1  0.96784500  0.36720900  0.98124600  1
  H  H88  1  0.88898200  0.38156600  0.95732000  1
  H  H89  1  0.12730200  0.86051600  0.55514800  1
  H  H90  1  0.05577500  0.83637300  0.53189300  1
  H  H91  1  0.96784500  0.86720900  0.48124600  1
  H  H92  1  0.88898200  0.88156600  0.45732000  1
  H  H93  1  0.62730200  0.36051600  0.55514800  1
  H  H94  1  0.55577500  0.33637300  0.53189300  1
  H  H95  1  0.46784500  0.36720900  0.48124600  1
  H  H96  1  0.38898200  0.38156600  0.45732000  1
  H  H97  1  0.42773500  0.99234500  0.19649700  1
  H  H98  1  0.50483700  0.97179100  0.17623400  1
  H  H99  1  0.64764000  0.97063300  0.88534100  1
  H  H100  1  0.67884300  0.96913800  0.83405800  1
  H  H101  1  0.31247800  0.96389500  0.16364300  1
  H  H102  1  0.34744000  0.97009800  0.11366200  1
  H  H103  1  0.48649300  0.97162100  0.82499500  1
  H  H104  1  0.56104800  0.99377000  0.80307400  1
  H  H105  1  0.92773500  0.49234500  0.19649700  1
  H  H106  1  0.00483700  0.47179100  0.17623400  1
  H  H107  1  0.14764000  0.47063300  0.88534100  1
  H  H108  1  0.17884300  0.46913800  0.83405800  1
  H  H109  1  0.81247800  0.46389500  0.16364300  1
  H  H110  1  0.84744000  0.47009800  0.11366200  1
  H  H111  1  0.98649300  0.47162100  0.82499500  1
  H  H112  1  0.06104800  0.49377000  0.80307400  1
  H  H113  1  0.92773500  0.99234500  0.69649700  1
  H  H114  1  0.00483700  0.97179100  0.67623400  1
  H  H115  1  0.14764000  0.97063300  0.38534100  1
  H  H116  1  0.17884300  0.96913800  0.33405800  1
  H  H117  1  0.81247800  0.96389500  0.66364300  1
  H  H118  1  0.84744000  0.97009800  0.61366200  1
  H  H119  1  0.98649300  0.97162100  0.32499500  1
  H  H120  1  0.06104800  0.99377000  0.30307400  1
  H  H121  1  0.42773500  0.49234500  0.69649700  1
  H  H122  1  0.50483700  0.47179100  0.67623400  1
  H  H123  1  0.67884300  0.46913800  0.33405800  1
  H  H124  1  0.64764000  0.47063300  0.38534100  1
  H  H125  1  0.31247800  0.46389500  0.66364300  1
  H  H126  1  0.34744000  0.47009800  0.61366200  1
  H  H127  1  0.56104800  0.49377000  0.30307400  1
  H  H128  1  0.48649300  0.47162100  0.32499500  1
  C  C1  1  0.50367900  0.69430500  0.31076800  1
  C  C2  1  0.49798100  0.69429300  0.68888700  1
  C  C3  1  0.00367900  0.19430500  0.31076800  1
  C  C4  1  0.99798100  0.19429300  0.68888700  1
  C  C5  1  0.00367900  0.69430500  0.81076800  1
  C  C6  1  0.99798100  0.69429300  0.18888700  1
  C  C7  1  0.50367900  0.19430500  0.81076800  1
  C  C8  1  0.49798100  0.19429300  0.18888700  1
  C  C9  1  0.36024100  0.74996500  0.25022100  1
  C  C10  1  0.36041300  0.75459600  0.75056700  1
  C  C11  1  0.64127500  0.75481100  0.24934800  1
  C  C12  1  0.64144200  0.74978500  0.74955600  1
  C  C13  1  0.86024100  0.24996500  0.25022100  1
  C  C14  1  0.86041300  0.25459600  0.75056700  1
  C  C15  1  0.14127500  0.25481100  0.24934800  1
  C  C16  1  0.14144200  0.24978500  0.74955600  1
  C  C17  1  0.86024100  0.74996500  0.75022100  1
  C  C18  1  0.86041300  0.75459600  0.25056700  1
  C  C19  1  0.14127500  0.75481100  0.74934800  1
  C  C20  1  0.14144200  0.74978500  0.24955600  1
  C  C21  1  0.36024100  0.24996500  0.75022100  1
  C  C22  1  0.36041300  0.25459600  0.25056700  1
  C  C23  1  0.64127500  0.25481100  0.74934800  1
  C  C24  1  0.64144200  0.24978500  0.24955600  1
  C  C25  1  0.49747100  0.81053600  0.18867300  1
  C  C26  1  0.50421600  0.81011200  0.81135400  1
  C  C27  1  0.99747100  0.31053600  0.18867300  1
  C  C28  1  0.00421600  0.31011200  0.81135400  1
  C  C29  1  0.99747100  0.81053600  0.68867300  1
  C  C30  1  0.00421600  0.81011200  0.31135400  1
  C  C31  1  0.49747100  0.31053600  0.68867300  1
  C  C32  1  0.50421600  0.31011200  0.31135400  1
  C  C33  1  0.28321700  0.74846400  0.24988300  1
  C  C34  1  0.28325800  0.75599800  0.75010800  1
  C  C35  1  0.71843700  0.75608300  0.24992400  1
  C  C36  1  0.71847100  0.74840100  0.74990000  1
  C  C37  1  0.78321700  0.24846400  0.24988300  1
  C  C38  1  0.78325800  0.25599800  0.75010800  1
  C  C39  1  0.21843700  0.25608300  0.24992400  1
  C  C40  1  0.21847100  0.24840100  0.74990000  1
  C  C41  1  0.78321700  0.74846400  0.74988300  1
  C  C42  1  0.78325800  0.75599800  0.25010800  1
  C  C43  1  0.21843700  0.75608300  0.74992400  1
  C  C44  1  0.21847100  0.74840100  0.24990000  1
  C  C45  1  0.28321700  0.24846400  0.74988300  1
  C  C46  1  0.28325800  0.25599800  0.25010800  1
  C  C47  1  0.71843700  0.25608300  0.74992400  1
  C  C48  1  0.71847100  0.24840100  0.24990000  1
  C  C49  1  0.45182100  0.65539700  0.37317300  1
  C  C50  1  0.55001300  0.65515500  0.62669500  1
  C  C51  1  0.95182100  0.15539700  0.37317300  1
  C  C52  1  0.05001300  0.15515500  0.62669500  1
  C  C53  1  0.95182100  0.65539700  0.87317300  1
  C  C54  1  0.05001300  0.65515500  0.12669500  1
  C  C55  1  0.45182100  0.15539700  0.87317300  1
  C  C56  1  0.55001300  0.15515500  0.12669500  1
  C  C57  1  0.50631100  0.66119500  0.34403700  1
  C  C58  1  0.49521500  0.66128200  0.65554700  1
  C  C59  1  0.00631100  0.16119500  0.34403700  1
  C  C60  1  0.99521500  0.16128200  0.65554700  1
  C  C61  1  0.00631100  0.66119500  0.84403700  1
  C  C62  1  0.99521500  0.66128200  0.15554700  1
  C  C63  1  0.50631100  0.16119500  0.84403700  1
  C  C64  1  0.49521500  0.16128200  0.15554700  1
  C  C65  1  0.56383600  0.63315700  0.34656700  1
  C  C66  1  0.43724000  0.63361300  0.65274200  1
  C  C67  1  0.06383600  0.13315700  0.34656700  1
  C  C68  1  0.93724000  0.13361300  0.65274200  1
  C  C69  1  0.06383600  0.63315700  0.84656700  1
  C  C70  1  0.93724000  0.63361300  0.15274200  1
  C  C71  1  0.56383600  0.13315700  0.84656700  1
  C  C72  1  0.43724000  0.13361300  0.15274200  1
  C  C73  1  0.56588600  0.60105100  0.37819900  1
  C  C74  1  0.43505000  0.60151800  0.62111600  1
  C  C75  1  0.06588600  0.10105100  0.37819900  1
  C  C76  1  0.93505000  0.10151800  0.62111600  1
  C  C77  1  0.06588600  0.60105100  0.87819900  1
  C  C78  1  0.93505000  0.60151800  0.12111600  1
  C  C79  1  0.56588600  0.10105100  0.87819900  1
  C  C80  1  0.43505000  0.10151800  0.12111600  1
  C  C81  1  0.50765900  0.59540000  0.40635300  1
  C  C82  1  0.49356900  0.59552500  0.59324000  1
  C  C83  1  0.00765900  0.09540000  0.40635300  1
  C  C84  1  0.99356900  0.09552500  0.59324000  1
  C  C85  1  0.00765900  0.59540000  0.90635300  1
  C  C86  1  0.99356900  0.59552500  0.09324000  1
  C  C87  1  0.50765900  0.09540000  0.90635300  1
  C  C88  1  0.49356900  0.09552500  0.09324000  1
  C  C89  1  0.45160800  0.62370600  0.40185000  1
  C  C90  1  0.55005500  0.62347500  0.59801100  1
  C  C91  1  0.95160800  0.12370600  0.40185000  1
  C  C92  1  0.05005500  0.12347500  0.59801100  1
  C  C93  1  0.95160800  0.62370600  0.90185000  1
  C  C94  1  0.05005500  0.62347500  0.09801100  1
  C  C95  1  0.45160800  0.12370600  0.90185000  1
  C  C96  1  0.55005500  0.12347500  0.09801100  1
  C  C97  1  0.38024300  0.63510200  0.41995700  1
  C  C98  1  0.62187900  0.63440800  0.58027600  1
  C  C99  1  0.88024300  0.13510200  0.41995700  1
  C  C100  1  0.12187900  0.13440800  0.58027600  1
  C  C101  1  0.88024300  0.63510200  0.91995700  1
  C  C102  1  0.12187900  0.63440800  0.08027600  1
  C  C103  1  0.38024300  0.13510200  0.91995700  1
  C  C104  1  0.62187900  0.13440800  0.08027600  1
  C  C105  1  0.38033800  0.67214800  0.38590400  1
  C  C106  1  0.62198400  0.67143800  0.61434800  1
  C  C107  1  0.88033800  0.17214800  0.38590400  1
  C  C108  1  0.12198400  0.17143800  0.61434800  1
  C  C109  1  0.88033800  0.67214800  0.88590400  1
  C  C110  1  0.12198400  0.67143800  0.11434800  1
  C  C111  1  0.38033800  0.17214800  0.88590400  1
  C  C112  1  0.62198400  0.17143800  0.11434800  1
  C  C113  1  0.46019100  0.88133900  0.16037900  1
  C  C114  1  0.53759200  0.88181800  0.83901800  1
  C  C115  1  0.96019100  0.38133900  0.16037900  1
  C  C116  1  0.03759200  0.38181800  0.83901800  1
  C  C117  1  0.96019100  0.88133900  0.66037900  1
  C  C118  1  0.03759200  0.88181800  0.33901800  1
  C  C119  1  0.46019100  0.38133900  0.66037900  1
  C  C120  1  0.53759200  0.38181800  0.33901800  1
  C  C121  1  0.49630800  0.84343700  0.15501500  1
  C  C122  1  0.50504200  0.84291700  0.84510300  1
  C  C123  1  0.99630800  0.34343700  0.15501500  1
  C  C124  1  0.00504200  0.34291700  0.84510300  1
  C  C125  1  0.99630800  0.84343700  0.65501500  1
  C  C126  1  0.00504200  0.84291700  0.34510300  1
  C  C127  1  0.49630800  0.34343700  0.65501500  1
  C  C128  1  0.50504200  0.34291700  0.34510300  1
  C  C129  1  0.53264100  0.83799200  0.11617300  1
  C  C130  1  0.47202100  0.83632000  0.88481900  1
  C  C131  1  0.03264100  0.33799200  0.11617300  1
  C  C132  1  0.97202100  0.33632000  0.88481900  1
  C  C133  1  0.03264100  0.83799200  0.61617300  1
  C  C134  1  0.97202100  0.83632000  0.38481900  1
  C  C135  1  0.53264100  0.33799200  0.61617300  1
  C  C136  1  0.47202100  0.33632000  0.38481900  1
  C  C137  1  0.53331600  0.87056500  0.08512000  1
  C  C138  1  0.47027200  0.86874600  0.91598300  1
  C  C139  1  0.03331600  0.37056500  0.08512000  1
  C  C140  1  0.97027200  0.36874600  0.91598300  1
  C  C141  1  0.03331600  0.87056500  0.58512000  1
  C  C142  1  0.97027200  0.86874600  0.41598300  1
  C  C143  1  0.53331600  0.37056500  0.58512000  1
  C  C144  1  0.47027200  0.36874600  0.41598300  1
  C  C145  1  0.49446900  0.90819800  0.09160600  1
  C  C146  1  0.50544200  0.90768000  0.90861800  1
  C  C147  1  0.99446900  0.40819800  0.09160600  1
  C  C148  1  0.00544200  0.40768000  0.90861800  1
  C  C149  1  0.99446900  0.90819800  0.59160600  1
  C  C150  1  0.00544200  0.90768000  0.40861800  1
  C  C151  1  0.49446900  0.40819800  0.59160600  1
  C  C152  1  0.50544200  0.40768000  0.40861800  1
  C  C153  1  0.45769100  0.91155600  0.12996100  1
  C  C154  1  0.53974500  0.91193600  0.86951900  1
  C  C155  1  0.95769100  0.41155600  0.12996100  1
  C  C156  1  0.03974500  0.41193600  0.86951900  1
  C  C157  1  0.95769100  0.91155600  0.62996100  1
  C  C158  1  0.03974500  0.91193600  0.36951900  1
  C  C159  1  0.45769100  0.41155600  0.62996100  1
  C  C160  1  0.53974500  0.41193600  0.36951900  1
  C  C161  1  0.41398900  0.94104600  0.15672500  1
  C  C162  1  0.58012700  0.94250800  0.84211000  1
  C  C163  1  0.91398900  0.44104600  0.15672500  1
  C  C164  1  0.08012700  0.44250800  0.84211000  1
  C  C165  1  0.91398900  0.94104600  0.65672500  1
  C  C166  1  0.08012700  0.94250800  0.34211000  1
  C  C167  1  0.41398900  0.44104600  0.65672500  1
  C  C168  1  0.58012700  0.44250800  0.34211000  1
  C  C169  1  0.41608900  0.90557500  0.19220600  1
  C  C170  1  0.57802500  0.90727800  0.80640200  1
  C  C171  1  0.91608900  0.40557500  0.19220600  1
  C  C172  1  0.07802500  0.40727800  0.80640200  1
  C  C173  1  0.91608900  0.90557500  0.69220600  1
  C  C174  1  0.07802500  0.90727800  0.30640200  1
  C  C175  1  0.41608900  0.40557500  0.69220600  1
  C  C176  1  0.57802500  0.40727800  0.30640200  1
  C  C177  1  0.50487500  0.94265900  0.94030800  1
  C  C178  1  0.49528700  0.94287700  0.05965100  1
  C  C179  1  0.00487500  0.44265900  0.94030800  1
  C  C180  1  0.99528700  0.44287700  0.05965100  1
  C  C181  1  0.00487500  0.94265900  0.44030800  1
  C  C182  1  0.99528700  0.94287700  0.55965100  1
  C  C183  1  0.50487500  0.44265900  0.44030800  1
  C  C184  1  0.49528700  0.44287700  0.55965100  1
  C  C185  1  0.50570700  0.56182700  0.43973900  1
  C  C186  1  0.49530600  0.56197900  0.55984700  1
  C  C187  1  0.00570700  0.06182700  0.43973900  1
  C  C188  1  0.99530600  0.06197900  0.55984700  1
  C  C189  1  0.00570700  0.56182700  0.93973900  1
  C  C190  1  0.99530600  0.56197900  0.05984700  1
  C  C191  1  0.50570700  0.06182700  0.93973900  1
  C  C192  1  0.49530600  0.06197900  0.05984700  1
  N  N1  1  0.62716200  0.57364200  0.38061200  1
  N  N2  1  0.37321400  0.57456900  0.61834600  1
  N  N3  1  0.12716200  0.07364200  0.38061200  1
  N  N4  1  0.87321400  0.07456900  0.61834600  1
  N  N5  1  0.12716200  0.57364200  0.88061200  1
  N  N6  1  0.87321400  0.57456900  0.11834600  1
  N  N7  1  0.62716200  0.07364200  0.88061200  1
  N  N8  1  0.37321400  0.07456900  0.11834600  1
  N  N9  1  0.57356000  0.86473700  0.04636000  1
  N  N10  1  0.43303900  0.86090100  0.95554900  1
  N  N11  1  0.07356000  0.36473700  0.04636000  1
  N  N12  1  0.93303900  0.36090100  0.95554900  1
  N  N13  1  0.07356000  0.86473700  0.54636000  1
  N  N14  1  0.93303900  0.86090100  0.45554900  1
  N  N15  1  0.57356000  0.36473700  0.54636000  1
  N  N16  1  0.43303900  0.36090100  0.45554900  1
  N  N17  1  0.45191200  0.98004000  0.16862400  1
  N  N18  1  0.65216600  0.95141800  0.85783200  1
  N  N19  1  0.34251300  0.94875200  0.13951100  1
  N  N20  1  0.53940500  0.98084100  0.83141100  1
  N  N21  1  0.95191200  0.48004000  0.16862400  1
  N  N22  1  0.15216600  0.45141800  0.85783200  1
  N  N23  1  0.84251300  0.44875200  0.13951100  1
  N  N24  1  0.03940500  0.48084100  0.83141100  1
  N  N25  1  0.95191200  0.98004000  0.66862400  1
  N  N26  1  0.15216600  0.95141800  0.35783200  1
  N  N27  1  0.84251300  0.94875200  0.63951100  1
  N  N28  1  0.03940500  0.98084100  0.33141100  1
  N  N29  1  0.45191200  0.48004000  0.66862400  1
  N  N30  1  0.65216600  0.45141800  0.35783200  1
  N  N31  1  0.34251300  0.44875200  0.63951100  1
  N  N32  1  0.53940500  0.48084100  0.33141100  1
  O  O1  1  0.49862100  0.73456700  0.32287800  1
  O  O2  1  0.50296500  0.73458900  0.67689000  1
  O  O3  1  0.99862100  0.23456700  0.32287800  1
  O  O4  1  0.00296500  0.23458900  0.67689000  1
  O  O5  1  0.99862100  0.73456700  0.82287800  1
  O  O6  1  0.00296500  0.73458900  0.17689000  1
  O  O7  1  0.49862100  0.23456700  0.82287800  1
  O  O8  1  0.50296500  0.23458900  0.17689000  1
  O  O9  1  0.50756300  0.68209400  0.27017400  1
  O  O10  1  0.49415600  0.68195200  0.72943600  1
  O  O11  1  0.00756300  0.18209400  0.27017400  1
  O  O12  1  0.99415600  0.18195200  0.72943600  1
  O  O13  1  0.00756300  0.68209400  0.77017400  1
  O  O14  1  0.99415600  0.68195200  0.22943600  1
  O  O15  1  0.50756300  0.18209400  0.77017400  1
  O  O16  1  0.49415600  0.18195200  0.22943600  1
  O  O17  1  0.39121300  0.77654100  0.27726700  1
  O  O18  1  0.39609100  0.77943000  0.72375200  1
  O  O19  1  0.60552600  0.77958100  0.27619900  1
  O  O20  1  0.61039700  0.77643700  0.72261800  1
  O  O21  1  0.89121300  0.27654100  0.27726700  1
  O  O22  1  0.89609100  0.27943000  0.72375200  1
  O  O23  1  0.10552600  0.27958100  0.27619900  1
  O  O24  1  0.11039700  0.27643700  0.72261800  1
  O  O25  1  0.89121300  0.77654100  0.77726700  1
  O  O26  1  0.89609100  0.77943000  0.22375200  1
  O  O27  1  0.10552600  0.77958100  0.77619900  1
  O  O28  1  0.11039700  0.77643700  0.22261800  1
  O  O29  1  0.39121300  0.27654100  0.77726700  1
  O  O30  1  0.39609100  0.27943000  0.22375200  1
  O  O31  1  0.60552600  0.27958100  0.77619900  1
  O  O32  1  0.61039700  0.27643700  0.22261800  1
  O  O33  1  0.39590600  0.72518700  0.22335100  1
  O  O34  1  0.39153600  0.72804400  0.77760400  1
  O  O35  1  0.61021600  0.72834700  0.22221000  1
  O  O36  1  0.60585100  0.72489500  0.77635900  1
  O  O37  1  0.89590600  0.22518700  0.22335100  1
  O  O38  1  0.89153600  0.22804400  0.77760400  1
  O  O39  1  0.11021600  0.22834700  0.22221000  1
  O  O40  1  0.10585100  0.22489500  0.77635900  1
  O  O41  1  0.89590600  0.72518700  0.72335100  1
  O  O42  1  0.89153600  0.72804400  0.27760400  1
  O  O43  1  0.11021600  0.72834700  0.72221000  1
  O  O44  1  0.10585100  0.72489500  0.27635900  1
  O  O45  1  0.39590600  0.22518700  0.72335100  1
  O  O46  1  0.39153600  0.22804400  0.27760400  1
  O  O47  1  0.61021600  0.22834700  0.72221000  1
  O  O48  1  0.60585100  0.22489500  0.27635900  1
  O  O49  1  0.49391600  0.82274500  0.22931500  1
  O  O50  1  0.50766600  0.82245300  0.77075000  1
  O  O51  1  0.99391600  0.32274500  0.22931500  1
  O  O52  1  0.00766600  0.32245300  0.77075000  1
  O  O53  1  0.99391600  0.82274500  0.72931500  1
  O  O54  1  0.00766600  0.82245300  0.27075000  1
  O  O55  1  0.49391600  0.32274500  0.72931500  1
  O  O56  1  0.50766600  0.32245300  0.27075000  1
  O  O57  1  0.50261100  0.77026500  0.17668500  1
  O  O58  1  0.49921300  0.76980300  0.82321600  1
  O  O59  1  0.00261100  0.27026500  0.17668500  1
  O  O60  1  0.99921300  0.26980300  0.82321600  1
  O  O61  1  0.00261100  0.77026500  0.67668500  1
  O  O62  1  0.99921300  0.76980300  0.32321600  1
  O  O63  1  0.50261100  0.27026500  0.67668500  1
  O  O64  1  0.49921300  0.26980300  0.32321600  1
  O  O65  1  0.44246900  0.95638400  0.95437500  1
  O  O66  1  0.43378800  0.95820700  0.04558700  1
  O  O67  1  0.56651600  0.95780500  0.95431000  1
  O  O68  1  0.55787900  0.95621800  0.04545900  1
  O  O69  1  0.94246900  0.45638400  0.95437500  1
  O  O70  1  0.93378800  0.45820700  0.04558700  1
  O  O71  1  0.06651600  0.45780500  0.95431000  1
  O  O72  1  0.05787900  0.45621800  0.04545900  1
  O  O73  1  0.94246900  0.95638400  0.45437500  1
  O  O74  1  0.93378800  0.95820700  0.54558700  1
  O  O75  1  0.06651600  0.95780500  0.45431000  1
  O  O76  1  0.05787900  0.95621800  0.54545900  1
  O  O77  1  0.44246900  0.45638400  0.45437500  1
  O  O78  1  0.43378800  0.45820700  0.54558700  1
  O  O79  1  0.56651600  0.45780500  0.45431000  1
  O  O80  1  0.55787900  0.45621800  0.54545900  1
  O  O81  1  0.44294000  0.54847700  0.45399300  1
  O  O82  1  0.43411700  0.54723500  0.54515700  1
  O  O83  1  0.56676500  0.54683500  0.45442600  1
  O  O84  1  0.55794900  0.54834500  0.54565200  1
  O  O85  1  0.94294000  0.04847700  0.45399300  1
  O  O86  1  0.93411700  0.04723500  0.54515700  1
  O  O87  1  0.06676500  0.04683500  0.45442600  1
  O  O88  1  0.05794900  0.04834500  0.54565200  1
  O  O89  1  0.94294000  0.54847700  0.95399300  1
  O  O90  1  0.93411700  0.54723500  0.04515700  1
  O  O91  1  0.06676500  0.54683500  0.95442600  1
  O  O92  1  0.05794900  0.54834500  0.04565200  1
  O  O93  1  0.44294000  0.04847700  0.95399300  1
  O  O94  1  0.43411700  0.04723500  0.04515700  1
  O  O95  1  0.56676500  0.04683500  0.95442600  1
  O  O96  1  0.55794900  0.04834500  0.04565200  1
