# generated using pymatgen
data_ZnH15C23S2NO4
_symmetry_space_group_name_H-M   'P 1'
_cell_length_a   13.45537100
_cell_length_b   8.60004600
_cell_length_c   19.33807300
_cell_angle_alpha   90.00000000
_cell_angle_beta   91.05636800
_cell_angle_gamma   90.00000000
_symmetry_Int_Tables_number   1
_chemical_formula_structural   ZnH15C23S2NO4
_chemical_formula_sum   'Zn2 H30 C46 S4 N2 O8'
_cell_volume   2237.35978738
_cell_formula_units_Z   2
loop_
 _symmetry_equiv_pos_site_id
 _symmetry_equiv_pos_as_xyz
  1  'x, y, z'
loop_
 _atom_site_type_symbol
 _atom_site_label
 _atom_site_symmetry_multiplicity
 _atom_site_fract_x
 _atom_site_fract_y
 _atom_site_fract_z
 _atom_site_occupancy
  Zn  Zn1  1  0.88995200  0.50123300  0.50304700  1
  Zn  Zn2  1  0.11197800  0.50080900  0.49709900  1
  H  H1  1  0.04384300  0.00776500  0.54877700  1
  H  H2  1  0.96504200  0.99391300  0.45269900  1
  H  H3  1  0.97337200  0.25034700  0.73125400  1
  H  H4  1  0.00339400  0.74958900  0.26628900  1
  H  H5  1  0.01816000  0.24962100  0.27028300  1
  H  H6  1  0.99168400  0.75082900  0.73049400  1
  H  H7  1  0.06264500  0.77624000  0.04457400  1
  H  H8  1  0.05152800  0.23122200  0.95343700  1
  H  H9  1  0.93242500  0.77263800  0.95452700  1
  H  H10  1  0.93510400  0.22925000  0.04688700  1
  H  H11  1  0.07705400  0.77883000  0.16951100  1
  H  H12  1  0.05236200  0.22927800  0.82890800  1
  H  H13  1  0.92138200  0.77409000  0.82925800  1
  H  H14  1  0.93798100  0.22782800  0.17189800  1
  H  H15  1  0.41383000  0.88308500  0.47670400  1
  H  H16  1  0.58959700  0.12011100  0.52625700  1
  H  H17  1  0.58967800  0.88354900  0.47967100  1
  H  H18  1  0.41534200  0.11743600  0.51573000  1
  H  H19  1  0.20018300  0.14205400  0.62816800  1
  H  H20  1  0.31183000  0.24999700  0.61411500  1
  H  H21  1  0.30933900  0.04199000  0.60054200  1
  H  H22  1  0.80805700  0.91136200  0.62017800  1
  H  H23  1  0.73814700  0.73234800  0.61994800  1
  H  H24  1  0.67608500  0.91403500  0.59963000  1
  H  H25  1  0.79268800  0.08387700  0.39136200  1
  H  H26  1  0.72788400  0.26708900  0.39137300  1
  H  H27  1  0.66356800  0.09077600  0.41459400  1
  H  H28  1  0.18474100  0.88325500  0.36529100  1
  H  H29  1  0.26446300  0.71502400  0.37028400  1
  H  H30  1  0.31555300  0.90839200  0.38158900  1
  C  C1  1  0.00864900  0.14312100  0.63651100  1
  C  C2  1  0.99082700  0.85839000  0.36346400  1
  C  C3  1  0.99167900  0.13649900  0.36555400  1
  C  C4  1  0.01084900  0.86514000  0.63486500  1
  C  C5  1  0.98816300  0.14118200  0.70595500  1
  C  C6  1  0.00238100  0.85972400  0.29286200  1
  C  C7  1  0.00681600  0.13886100  0.29513900  1
  C  C8  1  0.99468200  0.86236600  0.70520100  1
  C  C9  1  0.98826300  0.00129100  0.74201100  1
  C  C10  1  0.00682700  0.00056200  0.25760100  1
  C  C11  1  0.02498800  0.00543300  0.60243600  1
  C  C12  1  0.97977200  0.99622600  0.39838800  1
  C  C13  1  0.03557300  0.87559500  0.07280900  1
  C  C14  1  0.02222800  0.13120000  0.92605100  1
  C  C15  1  0.95782500  0.87345100  0.92653800  1
  C  C16  1  0.96641100  0.13034100  0.07402000  1
  C  C17  1  0.04276200  0.87720900  0.14406600  1
  C  C18  1  0.02107400  0.13019700  0.85484200  1
  C  C19  1  0.95250000  0.87440000  0.85514300  1
  C  C20  1  0.96957100  0.12983800  0.14530800  1
  C  C21  1  0.00818600  0.00342500  0.18124600  1
  C  C22  1  0.98531200  0.00236800  0.81837900  1
  C  C23  1  0.99771700  0.00228300  0.03762500  1
  C  C24  1  0.99211800  0.00220200  0.96211300  1
  C  C25  1  0.00801700  0.72340300  0.59242700  1
  C  C26  1  0.99443700  0.27855700  0.40773300  1
  C  C27  1  0.99417800  0.71447600  0.40385700  1
  C  C28  1  0.00679000  0.28718300  0.59615500  1
  C  C29  1  0.29446600  0.36437500  0.50057600  1
  C  C30  1  0.70815900  0.63784400  0.50125000  1
  C  C31  1  0.70812500  0.36624900  0.50889800  1
  C  C32  1  0.29411200  0.63600600  0.49013100  1
  C  C33  1  0.39765200  0.63721500  0.49115000  1
  C  C34  1  0.60497300  0.36554200  0.50924400  1
  C  C35  1  0.60488800  0.63831800  0.49669700  1
  C  C36  1  0.39801500  0.36413700  0.50301500  1
  C  C37  1  0.44968600  0.50104600  0.49860100  1
  C  C38  1  0.55295700  0.50166000  0.50145700  1
  C  C39  1  0.45034000  0.77407000  0.48465400  1
  C  C40  1  0.55288300  0.22869000  0.51601400  1
  C  C41  1  0.55255600  0.77462800  0.48707300  1
  C  C42  1  0.45098600  0.22772500  0.51152400  1
  C  C43  1  0.26598900  0.15113500  0.59522700  1
  C  C44  1  0.74604800  0.84726200  0.59461100  1
  C  C45  1  0.73548600  0.15316300  0.41781600  1
  C  C46  1  0.25083600  0.83261800  0.39165800  1
  S  S1  1  0.23007500  0.18186100  0.50472000  1
  S  S2  1  0.77324800  0.81952300  0.50385100  1
  S  S3  1  0.77248100  0.18423400  0.50767200  1
  S  S4  1  0.22917000  0.81769600  0.48405700  1
  N  N1  1  0.24300800  0.50006900  0.49465200  1
  N  N2  1  0.75908300  0.50196800  0.50559100  1
  O  O1  1  0.09144600  0.67347300  0.56600100  1
  O  O2  1  0.91074900  0.33030100  0.43329100  1
  O  O3  1  0.91101600  0.66644200  0.43083300  1
  O  O4  1  0.09042600  0.33732200  0.57011100  1
  O  O5  1  0.92044100  0.66649000  0.57448900  1
  O  O6  1  0.08192600  0.33400600  0.42635600  1
  O  O7  1  0.08182600  0.65898600  0.42248000  1
  O  O8  1  0.91954000  0.34148800  0.57696300  1
