# generated using pymatgen
data_Zn3H12(C4O3)8
_symmetry_space_group_name_H-M   'P 1'
_cell_length_a   39.69626100
_cell_length_b   23.76427300
_cell_length_c   23.82078100
_cell_angle_alpha   90.00000000
_cell_angle_beta   53.71351800
_cell_angle_gamma   90.00000000
_symmetry_Int_Tables_number   1
_chemical_formula_structural   Zn3H12(C4O3)8
_chemical_formula_sum   'Zn12 H48 C128 O96'
_cell_volume   18113.47505778
_cell_formula_units_Z   4
loop_
 _symmetry_equiv_pos_site_id
 _symmetry_equiv_pos_as_xyz
  1  'x, y, z'
loop_
 _atom_site_type_symbol
 _atom_site_label
 _atom_site_symmetry_multiplicity
 _atom_site_fract_x
 _atom_site_fract_y
 _atom_site_fract_z
 _atom_site_occupancy
  Zn  Zn1  1  0.00027100  0.93666000  0.99936700  1
  Zn  Zn2  1  0.99983600  0.06427600  0.99981300  1
  Zn  Zn3  1  0.50027100  0.43666000  0.99936700  1
  Zn  Zn4  1  0.49983600  0.56427600  0.99981300  1
  Zn  Zn5  1  0.49901500  0.00046700  0.43712400  1
  Zn  Zn6  1  0.50107900  0.00039800  0.56203700  1
  Zn  Zn7  1  0.99901500  0.50046700  0.43712400  1
  Zn  Zn8  1  0.00107900  0.50039800  0.56203700  1
  Zn  Zn9  1  0.04661900  0.00061100  0.45370600  1
  Zn  Zn10  1  0.95354800  0.00025100  0.54544400  1
  Zn  Zn11  1  0.54661900  0.50061100  0.45370600  1
  Zn  Zn12  1  0.45354800  0.50025100  0.54544400  1
  H  H1  1  0.28150400  0.95751900  0.64326000  1
  H  H2  1  0.71919800  0.03445800  0.35954000  1
  H  H3  1  0.71399900  0.94362000  0.35394800  1
  H  H4  1  0.28644300  0.04916700  0.63912300  1
  H  H5  1  0.78150400  0.45751900  0.64326000  1
  H  H6  1  0.21919800  0.53445800  0.35954000  1
  H  H7  1  0.21399900  0.44362000  0.35394800  1
  H  H8  1  0.78644300  0.54916700  0.63912300  1
  H  H9  1  0.21609000  0.09213600  0.77208100  1
  H  H10  1  0.78402300  0.90820800  0.21714500  1
  H  H11  1  0.77833700  0.09040700  0.22255600  1
  H  H12  1  0.22124900  0.91075700  0.78542600  1
  H  H13  1  0.71609000  0.59213600  0.77208100  1
  H  H14  1  0.28402300  0.40820800  0.21714500  1
  H  H15  1  0.27833700  0.59040700  0.22255600  1
  H  H16  1  0.72124900  0.41075700  0.78542600  1
  H  H17  1  0.28815900  0.96692200  0.79642200  1
  H  H18  1  0.71240800  0.04334900  0.20658900  1
  H  H19  1  0.71176900  0.97071400  0.20023400  1
  H  H20  1  0.28773000  0.03988100  0.79557800  1
  H  H21  1  0.78815900  0.46692200  0.79642200  1
  H  H22  1  0.21240800  0.54334900  0.20658900  1
  H  H23  1  0.21176900  0.47071400  0.20023400  1
  H  H24  1  0.78773000  0.53988100  0.79557800  1
  H  H25  1  0.15327500  0.89297500  0.73693200  1
  H  H26  1  0.84734400  0.09736400  0.27040900  1
  H  H27  1  0.78768000  0.93747700  0.37750300  1
  H  H28  1  0.15822300  0.07451300  0.70426100  1
  H  H29  1  0.65327500  0.39297500  0.73693200  1
  H  H30  1  0.34734400  0.59736400  0.27040900  1
  H  H31  1  0.28768000  0.43747700  0.37750300  1
  H  H32  1  0.65822300  0.57451300  0.70426100  1
  H  H33  1  0.29269000  0.16885500  0.75331900  1
  H  H34  1  0.70737100  0.83813400  0.22765000  1
  H  H35  1  0.68988000  0.16577200  0.28650000  1
  H  H36  1  0.30883800  0.83843600  0.73309800  1
  H  H37  1  0.79269000  0.66885500  0.75331900  1
  H  H38  1  0.20737100  0.33813400  0.22765000  1
  H  H39  1  0.18988000  0.66577200  0.28650000  1
  H  H40  1  0.80883800  0.33843600  0.73309800  1
  H  H41  1  0.16051100  0.92744700  0.98049300  1
  H  H42  1  0.78480500  0.12856400  0.08598200  1
  H  H43  1  0.82455300  0.88954900  0.05924900  1
  H  H44  1  0.21813900  0.10339000  0.94575400  1
  H  H45  1  0.66051100  0.42744700  0.98049300  1
  H  H46  1  0.28480500  0.62856400  0.08598200  1
  H  H47  1  0.32455300  0.38954900  0.05924900  1
  H  H48  1  0.71813900  0.60339000  0.94575400  1
  C  C1  1  0.00012600  0.00157600  0.88986000  1
  C  C2  1  0.99998700  0.99935800  0.10932000  1
  C  C3  1  0.50012600  0.50157600  0.88986000  1
  C  C4  1  0.49998700  0.49935800  0.10932000  1
  C  C5  1  0.08169700  0.99991400  0.91920000  1
  C  C6  1  0.91840800  0.00102700  0.07995000  1
  C  C7  1  0.58169700  0.49991400  0.91920000  1
  C  C8  1  0.41840800  0.50102700  0.07995000  1
  C  C9  1  0.22663900  0.94569500  0.75054200  1
  C  C10  1  0.77342400  0.05278800  0.25366100  1
  C  C11  1  0.77392700  0.94550200  0.25090700  1
  C  C12  1  0.22613700  0.05254100  0.74234100  1
  C  C13  1  0.72663900  0.44569500  0.75054200  1
  C  C14  1  0.27342400  0.55278800  0.25366100  1
  C  C15  1  0.27392700  0.44550200  0.25090700  1
  C  C16  1  0.72613700  0.55254100  0.74234100  1
  C  C17  1  0.27394300  0.05288400  0.69449400  1
  C  C18  1  0.72620000  0.94487900  0.29860700  1
  C  C19  1  0.72640200  0.04656500  0.30873300  1
  C  C20  1  0.27378200  0.95060600  0.69553300  1
  C  C21  1  0.77394300  0.55288400  0.69449400  1
  C  C22  1  0.22620000  0.44487900  0.29860700  1
  C  C23  1  0.22640200  0.54656500  0.30873300  1
  C  C24  1  0.77378200  0.45060600  0.69553300  1
  C  C25  1  0.37314500  0.00176900  0.62820300  1
  C  C26  1  0.62694900  0.99914000  0.37093100  1
  C  C27  1  0.87314500  0.50176900  0.62820300  1
  C  C28  1  0.12694900  0.49914000  0.37093100  1
  C  C29  1  0.21008300  0.00133500  0.79238300  1
  C  C30  1  0.79001000  0.99996700  0.20637600  1
  C  C31  1  0.71008300  0.50133500  0.79238300  1
  C  C32  1  0.29001000  0.49996700  0.20637600  1
  C  C33  1  0.28974300  0.00203800  0.71144000  1
  C  C34  1  0.71034900  0.99896600  0.28751400  1
  C  C35  1  0.78974300  0.50203800  0.71144000  1
  C  C36  1  0.21034900  0.49896600  0.28751400  1
  C  C37  1  0.27438900  0.00282200  0.78735500  1
  C  C38  1  0.72567100  0.00479400  0.21185200  1
  C  C39  1  0.77438900  0.50282200  0.78735500  1
  C  C40  1  0.22567100  0.50479400  0.21185200  1
  C  C41  1  0.22644400  0.00484600  0.83750600  1
  C  C42  1  0.77363000  0.00264600  0.16129300  1
  C  C43  1  0.72644400  0.50484600  0.83750600  1
  C  C44  1  0.27363000  0.50264600  0.16129300  1
  C  C45  1  0.33547700  0.00195600  0.66580800  1
  C  C46  1  0.66461600  0.99899700  0.33326100  1
  C  C47  1  0.83547700  0.50195600  0.66580800  1
  C  C48  1  0.16461600  0.49899700  0.33326100  1
  C  C49  1  0.16423200  0.00072000  0.83754100  1
  C  C50  1  0.83586900  0.00038400  0.16132800  1
  C  C51  1  0.66423200  0.50072000  0.83754100  1
  C  C52  1  0.33586900  0.50038400  0.16132800  1
  C  C53  1  0.12653300  0.00041200  0.87488200  1
  C  C54  1  0.87356900  0.00056500  0.12411500  1
  C  C55  1  0.62653300  0.50041200  0.87488200  1
  C  C56  1  0.37356900  0.50056500  0.12411500  1
  C  C57  1  0.00022500  0.00133800  0.82963300  1
  C  C58  1  0.99990700  0.99959200  0.16953300  1
  C  C59  1  0.50022500  0.50133800  0.82963300  1
  C  C60  1  0.49990700  0.49959200  0.16953300  1
  C  C61  1  0.00034000  0.00113400  0.77899400  1
  C  C62  1  0.99980800  0.99978300  0.22016000  1
  C  C63  1  0.50034000  0.50113400  0.77899400  1
  C  C64  1  0.49980800  0.49978300  0.22016000  1
  C  C65  1  0.00051900  0.00090100  0.71963800  1
  C  C66  1  0.99964200  0.99999500  0.27950900  1
  C  C67  1  0.50051900  0.50090100  0.71963800  1
  C  C68  1  0.49964200  0.49999500  0.27950900  1
  C  C69  1  0.00071600  0.00071900  0.66891800  1
  C  C70  1  0.99945000  0.00015900  0.33022600  1
  C  C71  1  0.50071600  0.50071900  0.66891800  1
  C  C72  1  0.49945000  0.50015900  0.33022600  1
  C  C73  1  0.49948000  0.89062000  0.50126600  1
  C  C74  1  0.50061600  0.11024400  0.49789400  1
  C  C75  1  0.99948000  0.39062000  0.50126600  1
  C  C76  1  0.00061600  0.61024400  0.49789400  1
  C  C77  1  0.41799700  0.00137700  0.58336200  1
  C  C78  1  0.58209700  0.99949300  0.41579500  1
  C  C79  1  0.91799700  0.50137700  0.58336200  1
  C  C80  1  0.08209700  0.49949300  0.41579500  1
  C  C81  1  0.99873700  0.10909200  0.50098500  1
  C  C82  1  0.00143000  0.89177000  0.49816800  1
  C  C83  1  0.49873700  0.60909200  0.50098500  1
  C  C84  1  0.50143000  0.39177000  0.49816800  1
  C  C85  1  0.00100400  0.00053700  0.60850400  1
  C  C86  1  0.99916200  0.00032600  0.39064400  1
  C  C87  1  0.50100400  0.50053700  0.60850400  1
  C  C88  1  0.49916200  0.50032600  0.39064400  1
  C  C89  1  0.49924800  0.83025800  0.50122600  1
  C  C90  1  0.50086500  0.17060500  0.49792500  1
  C  C91  1  0.99924800  0.33025800  0.50122600  1
  C  C92  1  0.00086500  0.67060500  0.49792500  1
  C  C93  1  0.49908600  0.77956000  0.50118000  1
  C  C94  1  0.50104500  0.22130400  0.49796800  1
  C  C95  1  0.99908600  0.27956000  0.50118000  1
  C  C96  1  0.00104500  0.72130400  0.49796800  1
  C  C97  1  0.99893200  0.22015400  0.50111400  1
  C  C98  1  0.00121800  0.78070900  0.49803300  1
  C  C99  1  0.49893200  0.72015400  0.50111400  1
  C  C100  1  0.50121800  0.28070900  0.49803300  1
  C  C101  1  0.99883000  0.16945500  0.50105300  1
  C  C102  1  0.00133300  0.83140800  0.49809600  1
  C  C103  1  0.49883000  0.66945500  0.50105300  1
  C  C104  1  0.50133300  0.33140800  0.49809600  1
  C  C105  1  0.20378200  0.92730900  0.72083700  1
  C  C106  1  0.79656100  0.06647300  0.28429800  1
  C  C107  1  0.79270600  0.93675000  0.28967800  1
  C  C108  1  0.20712800  0.05541600  0.70327900  1
  C  C109  1  0.70378200  0.42730900  0.72083700  1
  C  C110  1  0.29656100  0.56647300  0.28429800  1
  C  C111  1  0.29270600  0.43675000  0.28967800  1
  C  C112  1  0.70712800  0.55541600  0.70327900  1
  C  C113  1  0.29131800  0.10764800  0.69826700  1
  C  C114  1  0.70887300  0.89268900  0.28898700  1
  C  C115  1  0.70385200  0.10097200  0.32146400  1
  C  C116  1  0.29594800  0.89749300  0.68980100  1
  C  C117  1  0.79131800  0.60764800  0.69826700  1
  C  C118  1  0.20887300  0.39268900  0.28898700  1
  C  C119  1  0.20385200  0.60097200  0.32146400  1
  C  C120  1  0.79594800  0.39749300  0.68980100  1
  C  C121  1  0.20866500  0.95784400  0.89047000  1
  C  C122  1  0.79146800  0.05288500  0.11305100  1
  C  C123  1  0.78640800  0.95323900  0.11277000  1
  C  C124  1  0.21368100  0.05749400  0.88102700  1
  C  C125  1  0.70866500  0.45784400  0.89047000  1
  C  C126  1  0.29146800  0.55288500  0.11305100  1
  C  C127  1  0.28640800  0.45323900  0.11277000  1
  C  C128  1  0.71368100  0.55749400  0.88102700  1
  O  O1  1  0.00122700  0.95304600  0.91497200  1
  O  O2  1  0.99888500  0.04788600  0.08420500  1
  O  O3  1  0.00117700  0.95065500  0.08233700  1
  O  O4  1  0.99893100  0.05028300  0.91684200  1
  O  O5  1  0.50122700  0.45304600  0.91497200  1
  O  O6  1  0.49888500  0.54788600  0.08420500  1
  O  O7  1  0.50117700  0.45065500  0.08233700  1
  O  O8  1  0.49893100  0.55028300  0.91684200  1
  O  O9  1  0.06259700  0.95108900  0.93933800  1
  O  O10  1  0.93751200  0.04984800  0.05983200  1
  O  O11  1  0.93813000  0.95262100  0.06183700  1
  O  O12  1  0.06197500  0.04831700  0.93733200  1
  O  O13  1  0.56259700  0.45108900  0.93933800  1
  O  O14  1  0.43751200  0.54984800  0.05983200  1
  O  O15  1  0.43813000  0.45262100  0.06183700  1
  O  O16  1  0.56197500  0.54831700  0.93733200  1
  O  O17  1  0.50049000  0.91694700  0.45182600  1
  O  O18  1  0.49960400  0.08391800  0.54733500  1
  O  O19  1  0.49867400  0.91650300  0.55071400  1
  O  O20  1  0.50142100  0.08436200  0.44844600  1
  O  O21  1  0.00049000  0.41694700  0.45182600  1
  O  O22  1  0.99960400  0.58391800  0.54733500  1
  O  O23  1  0.99867400  0.41650300  0.55071400  1
  O  O24  1  0.00142100  0.58436200  0.44844600  1
  O  O25  1  0.43708000  0.00256500  0.51582700  1
  O  O26  1  0.56301600  0.99830300  0.48333200  1
  O  O27  1  0.93708000  0.50256500  0.51582700  1
  O  O28  1  0.06301600  0.49830300  0.48333200  1
  O  O29  1  0.43779500  0.99963300  0.61198000  1
  O  O30  1  0.56229900  0.00123500  0.38718100  1
  O  O31  1  0.93779500  0.49963300  0.61198000  1
  O  O32  1  0.06229900  0.50123500  0.38718100  1
  O  O33  1  0.03497800  0.08292500  0.46693400  1
  O  O34  1  0.96518900  0.91793700  0.53221800  1
  O  O35  1  0.96244600  0.08314500  0.53494100  1
  O  O36  1  0.03772100  0.91771700  0.46421000  1
  O  O37  1  0.53497800  0.58292500  0.46693400  1
  O  O38  1  0.46518900  0.41793700  0.53221800  1
  O  O39  1  0.46244600  0.58314500  0.53494100  1
  O  O40  1  0.53772100  0.41771700  0.46421000  1
  O  O41  1  0.03702600  0.99877900  0.54717600  1
  O  O42  1  0.96314100  0.00208300  0.45197400  1
  O  O43  1  0.53702600  0.49877900  0.54717600  1
  O  O44  1  0.46314100  0.50208300  0.45197400  1
  O  O45  1  0.96521600  0.00213200  0.61732700  1
  O  O46  1  0.03495100  0.99873000  0.38182400  1
  O  O47  1  0.46521600  0.50213200  0.61732700  1
  O  O48  1  0.53495100  0.49873000  0.38182400  1
  O  O49  1  0.22125800  0.92588600  0.65814500  1
  O  O50  1  0.16360900  0.90532100  0.76494300  1
  O  O51  1  0.77906000  0.06488500  0.34698700  1
  O  O52  1  0.83690900  0.08815500  0.24167400  1
  O  O53  1  0.82786600  0.91734400  0.25883000  1
  O  O54  1  0.77007900  0.94691500  0.36086000  1
  O  O55  1  0.22757000  0.04502800  0.64118500  1
  O  O56  1  0.16612000  0.07390400  0.73759500  1
  O  O57  1  0.72125800  0.42588600  0.65814500  1
  O  O58  1  0.66360900  0.40532100  0.76494300  1
  O  O59  1  0.27905900  0.56488500  0.34698700  1
  O  O60  1  0.33690900  0.58815500  0.24167400  1
  O  O61  1  0.32786600  0.41734400  0.25883000  1
  O  O62  1  0.27007900  0.44691500  0.36086000  1
  O  O63  1  0.72757000  0.54502800  0.64118500  1
  O  O64  1  0.66612000  0.57390400  0.73759500  1
  O  O65  1  0.31661100  0.13277700  0.64441300  1
  O  O66  1  0.27790500  0.13176400  0.76158500  1
  O  O67  1  0.68379000  0.86435500  0.33988200  1
  O  O68  1  0.72208600  0.87438200  0.22339100  1
  O  O69  1  0.68288200  0.12072900  0.38004900  1
  O  O70  1  0.70699600  0.13002300  0.26786100  1
  O  O71  1  0.31737200  0.87349400  0.63378400  1
  O  O72  1  0.29187300  0.87425700  0.74712900  1
  O  O73  1  0.81661100  0.63277700  0.64441300  1
  O  O74  1  0.77790500  0.63176400  0.76158500  1
  O  O75  1  0.18379000  0.36435500  0.33988200  1
  O  O76  1  0.22208600  0.37438200  0.22339100  1
  O  O77  1  0.18288200  0.62072900  0.38004900  1
  O  O78  1  0.20699600  0.63002300  0.26786100  1
  O  O79  1  0.81737200  0.37349400  0.63378400  1
  O  O80  1  0.79187300  0.37425700  0.74712900  1
  O  O81  1  0.23015700  0.91853000  0.88499400  1
  O  O82  1  0.16746100  0.96120200  0.94950100  1
  O  O83  1  0.82733600  0.05096900  0.06047600  1
  O  O84  1  0.76750000  0.10022000  0.12458500  1
  O  O85  1  0.77088600  0.94794700  0.08161000  1
  O  O86  1  0.81944700  0.91813000  0.09500100  1
  O  O87  1  0.18500500  0.08706200  0.89298400  1
  O  O88  1  0.23117000  0.06842200  0.91615100  1
  O  O89  1  0.73015700  0.41853000  0.88499400  1
  O  O90  1  0.66746100  0.46120200  0.94950100  1
  O  O91  1  0.32733600  0.55096900  0.06047600  1
  O  O92  1  0.26750000  0.60022000  0.12458500  1
  O  O93  1  0.27088600  0.44794700  0.08161000  1
  O  O94  1  0.31944700  0.41813000  0.09500100  1
  O  O95  1  0.68500500  0.58706200  0.89298400  1
  O  O96  1  0.73117000  0.56842200  0.91615100  1
