# generated using pymatgen
data_Zn2H20C36N6O11
_symmetry_space_group_name_H-M   'P 1'
_cell_length_a   19.33784000
_cell_length_b   10.99749000
_cell_length_c   9.84613200
_cell_angle_alpha   90.00017700
_cell_angle_beta   89.99332200
_cell_angle_gamma   90.00536100
_symmetry_Int_Tables_number   1
_chemical_formula_structural   Zn2H20C36N6O11
_chemical_formula_sum   'Zn2 H20 C36 N6 O11'
_cell_volume   2093.95424284
_cell_formula_units_Z   1
loop_
 _symmetry_equiv_pos_site_id
 _symmetry_equiv_pos_as_xyz
  1  'x, y, z'
loop_
 _atom_site_type_symbol
 _atom_site_label
 _atom_site_symmetry_multiplicity
 _atom_site_fract_x
 _atom_site_fract_y
 _atom_site_fract_z
 _atom_site_occupancy
  Zn  Zn1  1  0.48437300  0.49969700  0.66539800  1
  Zn  Zn2  1  0.48584900  0.50136500  0.35596700  1
  H  H1  1  0.26469800  0.52365400  0.72383800  1
  H  H2  1  0.13998900  0.52507600  0.72465800  1
  H  H3  1  0.13932700  0.49854300  0.29048600  1
  H  H4  1  0.26443000  0.49614500  0.29034100  1
  H  H5  1  0.83112100  0.50645400  0.72981800  1
  H  H6  1  0.70616800  0.50361100  0.73120100  1
  H  H7  1  0.70526300  0.50263900  0.29619800  1
  H  H8  1  0.82980100  0.50539400  0.29475000  1
  H  H9  1  0.41506000  0.10957200  0.35667700  1
  H  H10  1  0.59425000  0.22392900  0.66526500  1
  H  H11  1  0.67281600  0.89164300  0.81004900  1
  H  H12  1  0.59376600  0.77946400  0.67104500  1
  H  H13  1  0.41474000  0.88832100  0.35978600  1
  H  H14  1  0.39480400  0.34121700  0.26506600  1
  H  H15  1  0.32884100  0.19325400  0.16114800  1
  H  H16  1  0.32507300  0.17917200  0.91599400  1
  H  H17  1  0.55481900  0.63192900  0.87899200  1
  H  H18  1  0.72293900  0.13652300  0.76127900  1
  H  H19  1  0.54381700  0.73302300  0.13491600  1
  H  H20  1  0.33000600  0.32077800  0.74478600  1
  C  C1  1  0.48795500  0.26156600  0.50848900  1
  C  C2  1  0.34955000  0.50557500  0.50757000  1
  C  C3  1  0.48791200  0.73894500  0.51333300  1
  C  C4  1  0.62040400  0.50171700  0.51382600  1
  C  C5  1  0.23775500  0.51763700  0.62797200  1
  C  C6  1  0.16650200  0.51870600  0.62833200  1
  C  C7  1  0.13017700  0.51156900  0.50764700  1
  C  C8  1  0.16619200  0.50417600  0.38648700  1
  C  C9  1  0.23754000  0.50286700  0.38626500  1
  C  C10  1  0.27372800  0.50889300  0.50709800  1
  C  C11  1  0.91582500  0.50801500  0.51093400  1
  C  C12  1  0.05424600  0.51089100  0.50860000  1
  C  C13  1  0.80408600  0.50569500  0.63381300  1
  C  C14  1  0.73274700  0.50399100  0.63466200  1
  C  C15  1  0.69631500  0.50295100  0.51386300  1
  C  C16  1  0.73217100  0.50341100  0.39233400  1
  C  C17  1  0.80341600  0.50493300  0.39147600  1
  C  C18  1  0.83990500  0.50620700  0.51217000  1
  C  C19  1  0.58864600  0.12659800  0.66861300  1
  C  C20  1  0.63507900  0.06472300  0.74853900  1
  C  C21  1  0.63500200  0.94017200  0.75007300  1
  C  C22  1  0.58840700  0.87684700  0.67191100  1
  C  C23  1  0.53918900  0.93750600  0.59411400  1
  C  C24  1  0.53938100  0.06453000  0.59221100  1
  C  C25  1  0.49298000  0.12738100  0.50888100  1
  C  C26  1  0.45042900  0.06223500  0.42313000  1
  C  C27  1  0.45018500  0.93683400  0.42513700  1
  C  C28  1  0.49246700  0.87320900  0.51293900  1
  C  C29  1  0.39971000  0.34060600  0.15905200  1
  C  C30  1  0.35985400  0.25383200  0.09977100  1
  C  C31  1  0.35790400  0.24658900  0.96334000  1
  C  C32  1  0.39428400  0.32780000  0.88570400  1
  C  C33  1  0.43968600  0.41484000  0.94392400  1
  C  C34  1  0.44222300  0.41934800  0.08584700  1
  C  C35  1  0.52458600  0.57395300  0.07705000  1
  C  C36  1  0.52214200  0.57076800  0.93608100  1
  N  N1  1  0.01876300  0.50648600  0.39119000  1
  N  N2  1  0.95040300  0.50515400  0.39236200  1
  N  N3  1  0.95131400  0.51243300  0.62831300  1
  N  N4  1  0.01966100  0.51387200  0.62713600  1
  N  N5  1  0.48460900  0.49910900  0.15184600  1
  N  N6  1  0.48023000  0.49293000  0.86912900  1
  O  O1  1  0.48616800  0.31932600  0.62368100  1
  O  O2  1  0.48715000  0.31990000  0.39326400  1
  O  O3  1  0.38191400  0.50471300  0.62313300  1
  O  O4  1  0.38270000  0.50453400  0.39281500  1
  O  O5  1  0.48631700  0.68160400  0.63183200  1
  O  O6  1  0.48697600  0.68261800  0.39425400  1
  O  O7  1  0.58791600  0.50156600  0.63241400  1
  O  O8  1  0.58878400  0.50246500  0.39455200  1
  O  O9  1  0.68285200  0.12740900  0.82298400  1
  O  O10  1  0.56811200  0.65392000  0.13997600  1
  O  O11  1  0.38109900  0.31921400  0.75156600  1
