# generated using pymatgen
data_ZnH7C10NO4
_symmetry_space_group_name_H-M   'P 1'
_cell_length_a   10.01641600
_cell_length_b   11.24363600
_cell_length_c   13.06955800
_cell_angle_alpha   91.09749800
_cell_angle_beta   93.91978800
_cell_angle_gamma   92.45030600
_symmetry_Int_Tables_number   1
_chemical_formula_structural   ZnH7C10NO4
_chemical_formula_sum   'Zn2 H14 C20 N2 O8'
_cell_volume   1466.76012227
_cell_formula_units_Z   2
loop_
 _symmetry_equiv_pos_site_id
 _symmetry_equiv_pos_as_xyz
  1  'x, y, z'
loop_
 _atom_site_type_symbol
 _atom_site_label
 _atom_site_symmetry_multiplicity
 _atom_site_fract_x
 _atom_site_fract_y
 _atom_site_fract_z
 _atom_site_occupancy
  Zn  Zn1  1  0.64877100  0.47943000  0.51850200  1
  Zn  Zn2  1  0.35123000  0.52057000  0.48149900  1
  H  H1  1  0.33000500  0.52325300  0.15275800  1
  H  H2  1  0.66999600  0.47674600  0.84724200  1
  H  H3  1  0.74904900  0.46557700  0.20179400  1
  H  H4  1  0.25095200  0.53442300  0.79820600  1
  H  H5  1  0.23126200  0.53698300  0.98262000  1
  H  H6  1  0.76873900  0.46301700  0.01738100  1
  H  H7  1  0.38008200  0.90439000  0.48519700  1
  H  H8  1  0.61991900  0.09561100  0.51480300  1
  H  H9  1  0.68455000  0.89207400  0.52279900  1
  H  H10  1  0.31545100  0.10792600  0.47720100  1
  H  H11  1  0.89196800  0.57250800  0.43577100  1
  H  H12  1  0.10803300  0.42749100  0.56422900  1
  H  H13  1  0.88440900  0.39285700  0.59555000  1
  H  H14  1  0.11559100  0.60714300  0.40445000  1
  C  C1  1  0.44786300  0.26988800  0.49354600  1
  C  C2  1  0.55213700  0.73011200  0.50645400  1
  C  C3  1  0.47486100  0.50363600  0.69816100  1
  C  C4  1  0.52514000  0.49636400  0.30184000  1
  C  C5  1  0.53792100  0.49461800  0.19062900  1
  C  C6  1  0.46208000  0.50538100  0.80937100  1
  C  C7  1  0.32782500  0.52372800  0.95302600  1
  C  C8  1  0.67217600  0.47627200  0.04697500  1
  C  C9  1  0.33927600  0.52224000  0.84848200  1
  C  C10  1  0.66072500  0.47775900  0.15151900  1
  C  C11  1  0.57308800  0.49006200  0.87610000  1
  C  C12  1  0.42691200  0.50993800  0.12390100  1
  C  C13  1  0.56127400  0.49159100  0.98073800  1
  C  C14  1  0.43872700  0.50840900  0.01926300  1
  C  C15  1  0.41862700  0.14095100  0.48993900  1
  C  C16  1  0.58137400  0.85904800  0.51006200  1
  C  C17  1  0.51621400  0.06426700  0.50199700  1
  C  C18  1  0.48378700  0.93573200  0.49800400  1
  C  C19  1  0.07205500  0.49056600  0.50818900  1
  C  C20  1  0.92794600  0.50943300  0.49181200  1
  N  N1  1  0.15598200  0.54860600  0.45628900  1
  N  N2  1  0.84401900  0.45139400  0.54371100  1
  O  O1  1  0.57284900  0.30938300  0.50896600  1
  O  O2  1  0.42715200  0.69061700  0.49103400  1
  O  O3  1  0.34703000  0.34021600  0.48111800  1
  O  O4  1  0.65297100  0.65978400  0.51888200  1
  O  O5  1  0.59334300  0.48739100  0.66456900  1
  O  O6  1  0.40665800  0.51260900  0.33543200  1
  O  O7  1  0.36766200  0.51825300  0.63684100  1
  O  O8  1  0.63233800  0.48174700  0.36316000  1
