# generated using pymatgen
data_Cu3H20C41O26
_symmetry_space_group_name_H-M   'P 1'
_cell_length_a   37.98048100
_cell_length_b   32.08532600
_cell_length_c   21.28756300
_cell_angle_alpha   90.00000000
_cell_angle_beta   57.49981600
_cell_angle_gamma   90.00000000
_symmetry_Int_Tables_number   1
_chemical_formula_structural   Cu3H20C41O26
_chemical_formula_sum   'Cu12 H80 C164 O104'
_cell_volume   21878.68252093
_cell_formula_units_Z   4
loop_
 _symmetry_equiv_pos_site_id
 _symmetry_equiv_pos_as_xyz
  1  'x, y, z'
loop_
 _atom_site_type_symbol
 _atom_site_label
 _atom_site_symmetry_multiplicity
 _atom_site_fract_x
 _atom_site_fract_y
 _atom_site_fract_z
 _atom_site_occupancy
  Cu  Cu1  1  0.00000000  0.54112100  0.50000000  1
  Cu  Cu2  1  0.50000000  0.04112100  0.50000000  1
  Cu  Cu3  1  0.00000000  0.45973600  0.50000000  1
  Cu  Cu4  1  0.50000000  0.95973600  0.50000000  1
  Cu  Cu5  1  0.95841200  0.49764900  0.04186100  1
  Cu  Cu6  1  0.04158800  0.49764900  0.95813800  1
  Cu  Cu7  1  0.45841200  0.99764900  0.04186100  1
  Cu  Cu8  1  0.54158800  0.99764900  0.95813800  1
  Cu  Cu9  1  0.49793000  0.49741500  0.93945600  1
  Cu  Cu10  1  0.50207000  0.49741500  0.06054200  1
  Cu  Cu11  1  0.99793000  0.99741500  0.93945600  1
  Cu  Cu12  1  0.00207000  0.99741500  0.06054200  1
  H  H1  1  0.99897700  0.56921200  0.30721000  1
  H  H2  1  0.00102300  0.56921300  0.69279000  1
  H  H3  1  0.49897700  0.06921300  0.30721000  1
  H  H4  1  0.50102300  0.06921300  0.69279000  1
  H  H5  1  0.95197000  0.54153400  0.34245100  1
  H  H6  1  0.04802900  0.54153500  0.65754900  1
  H  H7  1  0.45197000  0.04153400  0.34245100  1
  H  H8  1  0.54802900  0.04153500  0.65754900  1
  H  H9  1  0.01836100  0.56381100  0.18713300  1
  H  H10  1  0.98163900  0.56381100  0.81286700  1
  H  H11  1  0.51836100  0.06381100  0.18713300  1
  H  H12  1  0.48163900  0.06381100  0.81286700  1
  H  H13  1  0.07099200  0.51031800  0.11981000  1
  H  H14  1  0.92900700  0.51031800  0.88019000  1
  H  H15  1  0.57099200  0.01031800  0.11981000  1
  H  H16  1  0.42900700  0.01031800  0.88019000  1
  H  H17  1  0.99955600  0.43399800  0.29520400  1
  H  H18  1  0.00044400  0.43399800  0.70479600  1
  H  H19  1  0.49955600  0.93399800  0.29520400  1
  H  H20  1  0.50044400  0.93399800  0.70479600  1
  H  H21  1  0.94117300  0.47800500  0.26701200  1
  H  H22  1  0.05882700  0.47800500  0.73298800  1
  H  H23  1  0.44117300  0.97800500  0.26701200  1
  H  H24  1  0.55882700  0.97800500  0.73298800  1
  H  H25  1  0.05760300  0.45876500  0.14858500  1
  H  H26  1  0.94239700  0.45876500  0.85141500  1
  H  H27  1  0.55760300  0.95876500  0.14858500  1
  H  H28  1  0.44239700  0.95876500  0.85141500  1
  H  H29  1  0.79393400  0.45594600  0.77404400  1
  H  H30  1  0.20606600  0.45594300  0.22596000  1
  H  H31  1  0.29393400  0.95594600  0.77404400  1
  H  H32  1  0.70606600  0.95594300  0.22596000  1
  H  H33  1  0.70846400  0.53625900  0.70764100  1
  H  H34  1  0.29153600  0.53626200  0.29235300  1
  H  H35  1  0.20846400  0.03625900  0.70764100  1
  H  H36  1  0.79153600  0.03626200  0.29235300  1
  H  H37  1  0.78492700  0.53834600  0.62758200  1
  H  H38  1  0.21507300  0.53835000  0.37241200  1
  H  H39  1  0.28492700  0.03834600  0.62758200  1
  H  H40  1  0.71507300  0.03835000  0.37241200  1
  H  H41  1  0.03983400  0.70917800  0.88169800  1
  H  H42  1  0.96016500  0.70917800  0.11830100  1
  H  H43  1  0.53983400  0.20917800  0.88169800  1
  H  H44  1  0.46016500  0.20917800  0.11830100  1
  H  H45  1  0.53984000  0.28586300  0.88169600  1
  H  H46  1  0.46015900  0.28586300  0.11830300  1
  H  H47  1  0.03984000  0.78586300  0.88169600  1
  H  H48  1  0.96015900  0.78586300  0.11830300  1
  H  H49  1  0.53987300  0.70796700  0.04060400  1
  H  H50  1  0.46012700  0.70796700  0.95939400  1
  H  H51  1  0.03987300  0.20796700  0.04060400  1
  H  H52  1  0.96012700  0.20796700  0.95939400  1
  H  H53  1  0.94724300  0.38298100  0.18372800  1
  H  H54  1  0.05275700  0.38298100  0.81627100  1
  H  H55  1  0.44724300  0.88298100  0.18372800  1
  H  H56  1  0.55275700  0.88298100  0.81627100  1
  H  H57  1  0.09309500  0.40653300  0.23799400  1
  H  H58  1  0.90690500  0.40653200  0.76200500  1
  H  H59  1  0.59309500  0.90653300  0.23799400  1
  H  H60  1  0.40690500  0.90653200  0.76200500  1
  H  H61  1  0.66373900  0.41655200  0.95767100  1
  H  H62  1  0.33626000  0.41654500  0.04233800  1
  H  H63  1  0.16373900  0.91655200  0.95767100  1
  H  H64  1  0.83626000  0.91654500  0.04233800  1
  H  H65  1  0.09005900  0.28480000  0.07576700  1
  H  H66  1  0.90994100  0.28480100  0.92423100  1
  H  H67  1  0.59005900  0.78480000  0.07576700  1
  H  H68  1  0.40994100  0.78480100  0.92423100  1
  H  H69  1  0.89400800  0.56444500  0.26856300  1
  H  H70  1  0.10599100  0.56444500  0.73143700  1
  H  H71  1  0.39400800  0.06444500  0.26856300  1
  H  H72  1  0.60599100  0.06444500  0.73143700  1
  H  H73  1  0.09155400  0.58187700  0.27448100  1
  H  H74  1  0.90844500  0.58187700  0.72551900  1
  H  H75  1  0.59155400  0.08187700  0.27448100  1
  H  H76  1  0.40844500  0.08187700  0.72551900  1
  H  H77  1  0.88389600  0.47255100  0.45580500  1
  H  H78  1  0.11610400  0.47255200  0.54419500  1
  H  H79  1  0.38389600  0.97255100  0.45580500  1
  H  H80  1  0.61610400  0.97255200  0.54419500  1
  C  C1  1  0.92098400  0.50035400  0.57014300  1
  C  C2  1  0.07901600  0.50035400  0.42985700  1
  C  C3  1  0.42098400  0.00035400  0.57014300  1
  C  C4  1  0.57901600  0.00035400  0.42985700  1
  C  C5  1  0.00444000  0.50063400  0.37680500  1
  C  C6  1  0.99556000  0.50063400  0.62319500  1
  C  C7  1  0.50444000  0.00063400  0.37680500  1
  C  C8  1  0.49556000  0.00063400  0.62319500  1
  C  C9  1  0.00000000  0.37303800  0.00000000  1
  C  C10  1  0.50000000  0.87303800  0.00000000  1
  C  C11  1  0.50000000  0.62210200  0.99999900  1
  C  C12  1  0.00000000  0.12210200  0.99999900  1
  C  C13  1  0.00000000  0.29059900  0.99999900  1
  C  C14  1  0.50000000  0.79059900  0.99999900  1
  C  C15  1  0.97730400  0.26872300  0.97634800  1
  C  C16  1  0.02269600  0.26872300  0.02365000  1
  C  C17  1  0.47730400  0.76872300  0.97634800  1
  C  C18  1  0.52269600  0.76872300  0.02365000  1
  C  C19  1  0.98554200  0.54058300  0.29913800  1
  C  C20  1  0.01445700  0.54058300  0.70086200  1
  C  C21  1  0.48554200  0.04058300  0.29913800  1
  C  C22  1  0.51445700  0.04058300  0.70086200  1
  C  C23  1  0.99181800  0.54274300  0.22251500  1
  C  C24  1  0.00818100  0.54274300  0.77748500  1
  C  C25  1  0.49181800  0.04274300  0.22251500  1
  C  C26  1  0.50818100  0.04274300  0.77748500  1
  C  C27  1  0.05135200  0.49918100  0.23621200  1
  C  C28  1  0.94864800  0.49918100  0.76378800  1
  C  C29  1  0.55135200  0.99918100  0.23621200  1
  C  C30  1  0.44864800  0.99918100  0.76378800  1
  C  C31  1  0.98137100  0.46253300  0.30482000  1
  C  C32  1  0.01862900  0.46253300  0.69517900  1
  C  C33  1  0.48137100  0.96253300  0.30482000  1
  C  C34  1  0.51862900  0.96253300  0.69517900  1
  C  C35  1  0.00591900  0.50058000  0.30512300  1
  C  C36  1  0.99408100  0.50058000  0.69487700  1
  C  C37  1  0.50591900  0.00058000  0.30512300  1
  C  C38  1  0.49408100  0.00058000  0.69487700  1
  C  C39  1  0.00377600  0.49946900  0.18710100  1
  C  C40  1  0.99622400  0.49946900  0.81289900  1
  C  C41  1  0.50377600  0.99946900  0.18710100  1
  C  C42  1  0.49622400  0.99946900  0.81289900  1
  C  C43  1  0.04841600  0.49112300  0.16784300  1
  C  C44  1  0.95158400  0.49112300  0.83215700  1
  C  C45  1  0.54841600  0.99112300  0.16784300  1
  C  C46  1  0.45158400  0.99112300  0.83215700  1
  C  C47  1  0.97347600  0.46710900  0.24274100  1
  C  C48  1  0.02652400  0.46710900  0.75725800  1
  C  C49  1  0.47347600  0.96710900  0.24274100  1
  C  C50  1  0.52652400  0.96710900  0.75725800  1
  C  C51  1  0.73129900  0.47148700  0.80610700  1
  C  C52  1  0.26870100  0.47148500  0.19389500  1
  C  C53  1  0.23129900  0.97148700  0.80610700  1
  C  C54  1  0.76870100  0.97148500  0.19389500  1
  C  C55  1  0.70741600  0.49454500  0.78666400  1
  C  C56  1  0.29258300  0.49454500  0.21333500  1
  C  C57  1  0.20741600  0.99454500  0.78666400  1
  C  C58  1  0.79258300  0.99454500  0.21333500  1
  C  C59  1  0.72700800  0.51828800  0.72251200  1
  C  C60  1  0.27299200  0.51829000  0.27748400  1
  C  C61  1  0.22700800  0.01828800  0.72251200  1
  C  C62  1  0.77299200  0.01829000  0.27748400  1
  C  C63  1  0.76992900  0.51957200  0.67756800  1
  C  C64  1  0.23007100  0.51957400  0.32242800  1
  C  C65  1  0.26992900  0.01957200  0.67756800  1
  C  C66  1  0.73007100  0.01957400  0.32242800  1
  C  C67  1  0.79366500  0.49716100  0.69674200  1
  C  C68  1  0.20633500  0.49716100  0.30325700  1
  C  C69  1  0.29366500  0.99716100  0.69674200  1
  C  C70  1  0.70633500  0.99716100  0.30325700  1
  C  C71  1  0.77446500  0.47335600  0.76061900  1
  C  C72  1  0.22553400  0.47335500  0.23938300  1
  C  C73  1  0.27446500  0.97335600  0.76061900  1
  C  C74  1  0.72553400  0.97335500  0.23938300  1
  C  C75  1  0.66251300  0.49566800  0.83233100  1
  C  C76  1  0.33748700  0.49566800  0.16766700  1
  C  C77  1  0.16251300  0.99566800  0.83233100  1
  C  C78  1  0.83748700  0.99566800  0.16766700  1
  C  C79  1  0.83847800  0.49864000  0.65074400  1
  C  C80  1  0.16152200  0.49864000  0.34925600  1
  C  C81  1  0.33847800  0.99864000  0.65074400  1
  C  C82  1  0.66152200  0.99864000  0.34925600  1
  C  C83  1  0.87612000  0.49958900  0.61324200  1
  C  C84  1  0.12388000  0.49958900  0.38675800  1
  C  C85  1  0.37612000  0.99958900  0.61324200  1
  C  C86  1  0.62388000  0.99958900  0.38675800  1
  C  C87  1  0.62486400  0.49669000  0.87067200  1
  C  C88  1  0.37513600  0.49669100  0.12932500  1
  C  C89  1  0.12486400  0.99669000  0.87067200  1
  C  C90  1  0.87513600  0.99669100  0.12932500  1
  C  C91  1  0.50000000  0.65964700  0.99999900  1
  C  C92  1  0.00000000  0.15964700  0.99999900  1
  C  C93  1  0.00000000  0.57762600  0.00000000  1
  C  C94  1  0.50000000  0.07762600  0.00000000  1
  C  C95  1  0.00230500  0.49857700  0.11836000  1
  C  C96  1  0.99769400  0.49857700  0.88164000  1
  C  C97  1  0.50230500  0.99857700  0.11836000  1
  C  C98  1  0.49769400  0.99857700  0.88164000  1
  C  C99  1  0.00000000  0.33546300  0.99999900  1
  C  C100  1  0.50000000  0.83546300  0.99999900  1
  C  C101  1  0.00000000  0.41771300  0.00000000  1
  C  C102  1  0.50000000  0.91771300  0.00000000  1
  C  C103  1  0.50000000  0.41745000  0.99999900  1
  C  C104  1  0.00000000  0.91745000  0.99999900  1
  C  C105  1  0.58003700  0.49764000  0.91686300  1
  C  C106  1  0.41996200  0.49764000  0.08313400  1
  C  C107  1  0.08003700  0.99764000  0.91686300  1
  C  C108  1  0.91996200  0.99764000  0.08313400  1
  C  C109  1  0.50000000  0.57739800  0.99999900  1
  C  C110  1  0.00000000  0.07739800  0.99999900  1
  C  C111  1  0.52233600  0.26900800  0.93367300  1
  C  C112  1  0.47766300  0.26900900  0.06632500  1
  C  C113  1  0.02233600  0.76900800  0.93367300  1
  C  C114  1  0.97766300  0.76900900  0.06632500  1
  C  C115  1  0.50000000  0.29048600  0.99999900  1
  C  C116  1  0.00000000  0.79048600  0.99999900  1
  C  C117  1  0.97766500  0.72603800  0.06632600  1
  C  C118  1  0.02233400  0.72603800  0.93367300  1
  C  C119  1  0.47766500  0.22603800  0.06632600  1
  C  C120  1  0.52233400  0.22603800  0.93367300  1
  C  C121  1  0.00000000  0.70456500  0.00000000  1
  C  C122  1  0.50000000  0.20456500  0.00000000  1
  C  C123  1  0.50000000  0.33519400  0.99999900  1
  C  C124  1  0.00000000  0.83519400  0.99999900  1
  C  C125  1  0.00000000  0.65986300  0.00000000  1
  C  C126  1  0.50000000  0.15986300  0.00000000  1
  C  C127  1  0.00000000  0.62232200  0.00000000  1
  C  C128  1  0.50000000  0.12232200  0.00000000  1
  C  C129  1  0.50000000  0.37274200  0.99999900  1
  C  C130  1  0.00000000  0.87274200  0.99999900  1
  C  C131  1  0.52266800  0.72565300  0.02255700  1
  C  C132  1  0.47733300  0.72565300  0.97744100  1
  C  C133  1  0.02266800  0.22565300  0.02255700  1
  C  C134  1  0.97733300  0.22565300  0.97744100  1
  C  C135  1  0.50000000  0.70434900  0.99999900  1
  C  C136  1  0.00000000  0.20434900  0.99999900  1
  C  C137  1  0.97583700  0.42574600  0.20769700  1
  C  C138  1  0.02416300  0.42574600  0.79230300  1
  C  C139  1  0.47583700  0.92574600  0.20769700  1
  C  C140  1  0.52416300  0.92574600  0.79230300  1
  C  C141  1  0.07799800  0.46587100  0.24063200  1
  C  C142  1  0.92200200  0.46587100  0.75936800  1
  C  C143  1  0.57799800  0.96587100  0.24063200  1
  C  C144  1  0.42200200  0.96587100  0.75936800  1
  C  C145  1  0.71263600  0.44515500  0.87358900  1
  C  C146  1  0.28736400  0.44515100  0.12641500  1
  C  C147  1  0.21263600  0.94515500  0.87358900  1
  C  C148  1  0.78736400  0.94515100  0.12641500  1
  C  C149  1  0.04727600  0.28944000  0.04998800  1
  C  C150  1  0.95272400  0.28944100  0.95001000  1
  C  C151  1  0.54727600  0.78944000  0.04998800  1
  C  C152  1  0.45272400  0.78944100  0.95001000  1
  C  C153  1  0.95488900  0.56220300  0.22605900  1
  C  C154  1  0.04511100  0.56220300  0.77394100  1
  C  C155  1  0.45488900  0.06220300  0.22605900  1
  C  C156  1  0.54511100  0.06220300  0.77394100  1
  C  C157  1  0.07345400  0.53998100  0.22921500  1
  C  C158  1  0.92654600  0.53998000  0.77078500  1
  C  C159  1  0.57345400  0.03998100  0.22921500  1
  C  C160  1  0.42654600  0.03998000  0.77078500  1
  C  C161  1  0.94122500  0.45515400  0.37791100  1
  C  C162  1  0.05877500  0.45515500  0.62208800  1
  C  C163  1  0.44122500  0.95515400  0.37791100  1
  C  C164  1  0.55877500  0.95515500  0.62208800  1
  O  O1  1  0.93994700  0.53479400  0.57041400  1
  O  O2  1  0.06005300  0.53479400  0.42958600  1
  O  O3  1  0.43994700  0.03479400  0.57041400  1
  O  O4  1  0.56005300  0.03479400  0.42958600  1
  O  O5  1  0.94106100  0.46604700  0.53468800  1
  O  O6  1  0.05893900  0.46604700  0.46531200  1
  O  O7  1  0.44106100  0.96604700  0.53468800  1
  O  O8  1  0.55893900  0.96604700  0.46531200  1
  O  O9  1  0.99141700  0.53476700  0.41790700  1
  O  O10  1  0.00858200  0.53476700  0.58209300  1
  O  O11  1  0.49141700  0.03476700  0.41790700  1
  O  O12  1  0.50858200  0.03476700  0.58209300  1
  O  O13  1  0.01451600  0.46610200  0.39747500  1
  O  O14  1  0.98548400  0.46610200  0.60252500  1
  O  O15  1  0.51451600  0.96610200  0.39747500  1
  O  O16  1  0.48548400  0.96610200  0.60252500  1
  O  O17  1  0.96407900  0.55823900  0.03824500  1
  O  O18  1  0.03592100  0.55824000  0.96175500  1
  O  O19  1  0.46407900  0.05823900  0.03824500  1
  O  O20  1  0.53592100  0.05824000  0.96175500  1
  O  O21  1  0.96574200  0.49649400  0.12585300  1
  O  O22  1  0.03425800  0.49649400  0.87414700  1
  O  O23  1  0.46574200  0.99649400  0.12585200  1
  O  O24  1  0.53425800  0.99649400  0.87414700  1
  O  O25  1  0.03751300  0.49584100  0.05351100  1
  O  O26  1  0.96248700  0.49584100  0.94648900  1
  O  O27  1  0.53751300  0.99584100  0.05351100  1
  O  O28  1  0.46248700  0.99584100  0.94648900  1
  O  O29  1  0.96407100  0.43707300  0.03925700  1
  O  O30  1  0.03592900  0.43707400  0.96074300  1
  O  O31  1  0.46407100  0.93707300  0.03925700  1
  O  O32  1  0.53592900  0.93707400  0.96074300  1
  O  O33  1  0.49986300  0.43682100  0.94583500  1
  O  O34  1  0.50013700  0.43682100  0.05416300  1
  O  O35  1  0.99986300  0.93682100  0.94583500  1
  O  O36  1  0.00013700  0.93682100  0.05416300  1
  O  O37  1  0.55884200  0.49582600  0.88453900  1
  O  O38  1  0.44115700  0.49582700  0.11545900  1
  O  O39  1  0.05884200  0.99582600  0.88453900  1
  O  O40  1  0.94115700  0.99582700  0.11545900  1
  O  O41  1  0.56234500  0.49583500  0.98933800  1
  O  O42  1  0.43765400  0.49583500  0.01066000  1
  O  O43  1  0.06234500  0.99583500  0.98933800  1
  O  O44  1  0.93765400  0.99583500  0.01066000  1
  O  O45  1  0.50000000  0.55799300  0.94585300  1
  O  O46  1  0.49999900  0.55799300  0.05414500  1
  O  O47  1  0.00000000  0.05799300  0.94585300  1
  O  O48  1  0.99999900  0.05799300  0.05414500  1
  O  O49  1  0.00726800  0.40436700  0.17953700  1
  O  O50  1  0.94097300  0.41112000  0.20902500  1
  O  O51  1  0.99273200  0.40436700  0.82046200  1
  O  O52  1  0.05902800  0.41112000  0.79097400  1
  O  O53  1  0.50726800  0.90436700  0.17953700  1
  O  O54  1  0.44097300  0.91112000  0.20902500  1
  O  O55  1  0.49273200  0.90436700  0.82046200  1
  O  O56  1  0.55902800  0.91112000  0.79097400  1
  O  O57  1  0.10783900  0.47621800  0.24395500  1
  O  O58  1  0.07142300  0.42363900  0.23574100  1
  O  O59  1  0.89216100  0.47621700  0.75604500  1
  O  O60  1  0.92857700  0.42363900  0.76425900  1
  O  O61  1  0.60783900  0.97621800  0.24395500  1
  O  O62  1  0.57142300  0.92363900  0.23574100  1
  O  O63  1  0.39216100  0.97621700  0.75604500  1
  O  O64  1  0.42857700  0.92363900  0.76425900  1
  O  O65  1  0.73489900  0.43082900  0.89336900  1
  O  O66  1  0.67038700  0.43510500  0.91418700  1
  O  O67  1  0.26510000  0.43082400  0.10663600  1
  O  O68  1  0.32961200  0.43510000  0.08582000  1
  O  O69  1  0.23489900  0.93082900  0.89336900  1
  O  O70  1  0.17038700  0.93510500  0.91418700  1
  O  O71  1  0.76510000  0.93082400  0.10663600  1
  O  O72  1  0.82961200  0.93510000  0.08582000  1
  O  O73  1  0.04171900  0.32589900  0.06902400  1
  O  O74  1  0.07639800  0.26649400  0.05606600  1
  O  O75  1  0.95828100  0.32590000  0.93097500  1
  O  O76  1  0.92360200  0.26649500  0.94393100  1
  O  O77  1  0.54171900  0.82589900  0.06902400  1
  O  O78  1  0.57639800  0.76649400  0.05606600  1
  O  O79  1  0.45828100  0.82590000  0.93097500  1
  O  O80  1  0.42360200  0.76649500  0.94393100  1
  O  O81  1  0.96015700  0.59307900  0.18860000  1
  O  O82  1  0.91462300  0.54696100  0.27333500  1
  O  O83  1  0.03984300  0.59307900  0.81140000  1
  O  O84  1  0.08537700  0.54696100  0.72666500  1
  O  O85  1  0.46015700  0.09307900  0.18860000  1
  O  O86  1  0.41462300  0.04696100  0.27333500  1
  O  O87  1  0.53984300  0.09307900  0.81140000  1
  O  O88  1  0.58537700  0.04696100  0.72666500  1
  O  O89  1  0.09071500  0.55999100  0.17147900  1
  O  O90  1  0.07546400  0.55476000  0.28862900  1
  O  O91  1  0.90928500  0.55999100  0.82852100  1
  O  O92  1  0.92453500  0.55476000  0.71137100  1
  O  O93  1  0.59071500  0.05999100  0.17147900  1
  O  O94  1  0.57546400  0.05476000  0.28862900  1
  O  O95  1  0.40928500  0.05999100  0.82852100  1
  O  O96  1  0.42453500  0.05476000  0.71137100  1
  O  O97  1  0.93688800  0.42278700  0.41133400  1
  O  O98  1  0.90821800  0.48329100  0.40684700  1
  O  O99  1  0.06311200  0.42278800  0.58866600  1
  O  O100  1  0.09178200  0.48329100  0.59315200  1
  O  O101  1  0.43688800  0.92278700  0.41133400  1
  O  O102  1  0.40821800  0.98329100  0.40684700  1
  O  O103  1  0.56311200  0.92278800  0.58866600  1
  O  O104  1  0.59178200  0.98329100  0.59315200  1
