# generated using pymatgen
data_Cu2H8C29(IO)8
_symmetry_space_group_name_H-M   'P 1'
_cell_length_a   11.78328000
_cell_length_b   11.78624200
_cell_length_c   23.89281400
_cell_angle_alpha   90.00000000
_cell_angle_beta   90.00000000
_cell_angle_gamma   90.00000000
_symmetry_Int_Tables_number   1
_chemical_formula_structural   Cu2H8C29(IO)8
_chemical_formula_sum   'Cu4 H16 C58 I16 O16'
_cell_volume   3318.24809633
_cell_formula_units_Z   2
loop_
 _symmetry_equiv_pos_site_id
 _symmetry_equiv_pos_as_xyz
  1  'x, y, z'
loop_
 _atom_site_type_symbol
 _atom_site_label
 _atom_site_symmetry_multiplicity
 _atom_site_fract_x
 _atom_site_fract_y
 _atom_site_fract_z
 _atom_site_occupancy
  Cu  Cu1  1  0.88881500  0.49390500  0.00012800  1
  Cu  Cu2  1  0.11043700  0.50581800  0.99999000  1
  Cu  Cu3  1  0.50602100  0.88963000  0.50013900  1
  Cu  Cu4  1  0.49390700  0.11115100  0.50008000  1
  H  H1  1  0.16302400  0.04711800  0.17526400  1
  H  H2  1  0.83969000  0.95654300  0.82719800  1
  H  H3  1  0.95687500  0.16002200  0.67300800  1
  H  H4  1  0.04785700  0.83671100  0.32477800  1
  H  H5  1  0.83713400  0.95311900  0.17520000  1
  H  H6  1  0.15881700  0.04221300  0.82771900  1
  H  H7  1  0.04299800  0.84064200  0.67256600  1
  H  H8  1  0.95323500  0.16259300  0.32507100  1
  H  H9  1  0.15254900  0.81697400  0.76710500  1
  H  H10  1  0.84226500  0.17677700  0.23002500  1
  H  H11  1  0.82313400  0.84216200  0.27017800  1
  H  H12  1  0.18226400  0.15310700  0.73324200  1
  H  H13  1  0.84647800  0.18233300  0.76727600  1
  H  H14  1  0.15781500  0.82294700  0.22979300  1
  H  H15  1  0.17634400  0.15822900  0.27037000  1
  H  H16  1  0.81769200  0.84625500  0.73219900  1
  C  C1  1  0.00010500  0.99988500  0.25007000  1
  C  C2  1  0.99966400  0.99979300  0.75006300  1
  C  C3  1  0.00496000  0.10105600  0.21046400  1
  C  C4  1  0.99394200  0.89825800  0.78947600  1
  C  C5  1  0.89852800  0.00545000  0.71039300  1
  C  C6  1  0.10137900  0.99500600  0.28963800  1
  C  C7  1  0.99510100  0.89882800  0.21038800  1
  C  C8  1  0.00499400  0.10094200  0.78973200  1
  C  C9  1  0.10120100  0.99454800  0.71062100  1
  C  C10  1  0.89901700  0.00475400  0.28975500  1
  C  C11  1  0.99151400  0.65008500  0.92133400  1
  C  C12  1  0.00777400  0.35000200  0.07882300  1
  C  C13  1  0.34943800  0.99239000  0.42154600  1
  C  C14  1  0.65057700  0.00836400  0.57856200  1
  C  C15  1  0.00736400  0.34915600  0.92156000  1
  C  C16  1  0.99186100  0.65014800  0.07862600  1
  C  C17  1  0.65005600  0.00760000  0.42142900  1
  C  C18  1  0.34949000  0.99317900  0.57877400  1
  C  C19  1  0.09401500  0.10734400  0.17288000  1
  C  C20  1  0.90694700  0.89421300  0.82834600  1
  C  C21  1  0.89469900  0.09264500  0.67161500  1
  C  C22  1  0.10795000  0.90583400  0.32715800  1
  C  C23  1  0.90605400  0.89279800  0.17278300  1
  C  C24  1  0.09164600  0.10464000  0.82879500  1
  C  C25  1  0.10525200  0.90797200  0.67154700  1
  C  C26  1  0.89290400  0.09367800  0.32741600  1
  C  C27  1  0.07920100  0.81753600  0.79398000  1
  C  C28  1  0.91738600  0.17872800  0.20435400  1
  C  C29  1  0.82128600  0.91723200  0.29587200  1
  C  C30  1  0.18179000  0.07997200  0.70623600  1
  C  C31  1  0.91972000  0.18166100  0.79422000  1
  C  C32  1  0.08262900  0.82113100  0.20417100  1
  C  C33  1  0.17867000  0.08293000  0.29589200  1
  C  C34  1  0.81820900  0.91985400  0.70549400  1
  C  C35  1  0.09916100  0.18944100  0.13190500  1
  C  C36  1  0.90254800  0.81232100  0.86945500  1
  C  C37  1  0.81292900  0.09734300  0.63045300  1
  C  C38  1  0.19013000  0.90101200  0.36811800  1
  C  C39  1  0.90088900  0.81093300  0.13169100  1
  C  C40  1  0.09595600  0.18647700  0.86992400  1
  C  C41  1  0.18718700  0.90392700  0.63046000  1
  C  C42  1  0.81093700  0.09871800  0.36847600  1
  C  C43  1  0.07597100  0.73447400  0.83466000  1
  C  C44  1  0.92064000  0.26144700  0.16350900  1
  C  C45  1  0.73856800  0.92050700  0.33672800  1
  C  C46  1  0.26478000  0.07722400  0.66549400  1
  C  C47  1  0.92284100  0.26464100  0.83494100  1
  C  C48  1  0.07923500  0.73850800  0.16328600  1
  C  C49  1  0.26129000  0.07995000  0.33679700  1
  C  C50  1  0.73571100  0.92315500  0.66452400  1
  C  C51  1  0.01028300  0.26659000  0.12533800  1
  C  C52  1  0.98891700  0.73221600  0.87432700  1
  C  C53  1  0.73325800  0.01071700  0.62525700  1
  C  C54  1  0.26679700  0.99006900  0.37476500  1
  C  C55  1  0.98958700  0.73359900  0.12511800  1
  C  C56  1  0.00978300  0.26680500  0.87466000  1
  C  C57  1  0.26719200  0.99041500  0.62571300  1
  C  C58  1  0.73355500  0.01004000  0.37494500  1
  I  I1  1  0.24718600  0.18153900  0.08221700  1
  I  I2  1  0.76160400  0.82498100  0.92350400  1
  I  I3  1  0.82499500  0.23904700  0.57688000  1
  I  I4  1  0.18359300  0.75401200  0.41844400  1
  I  I5  1  0.75331100  0.81956900  0.08171700  1
  I  I6  1  0.23648300  0.17349800  0.92419800  1
  I  I7  1  0.17470900  0.76317000  0.57632000  1
  I  I8  1  0.81954200  0.24600600  0.41862700  1
  I  I9  1  0.20618700  0.61114700  0.82780800  1
  I  I10  1  0.78634700  0.38076900  0.16778500  1
  I  I11  1  0.61909600  0.78637300  0.33246000  1
  I  I12  1  0.38777700  0.20772200  0.67240800  1
  I  I13  1  0.79274400  0.38807500  0.82804600  1
  I  I14  1  0.21337100  0.61899900  0.16746800  1
  I  I15  1  0.37972200  0.21506400  0.33303300  1
  I  I16  1  0.61258000  0.79263000  0.66977800  1
  O  O1  1  0.89689300  0.60558100  0.93990500  1
  O  O2  1  0.10232800  0.38774400  0.05713600  1
  O  O3  1  0.39438700  0.89808300  0.43991200  1
  O  O4  1  0.60585900  0.10299800  0.56017900  1
  O  O5  1  0.10207300  0.39379200  0.93993700  1
  O  O6  1  0.89719600  0.61230600  0.05709900  1
  O  O7  1  0.61191200  0.10230200  0.44290100  1
  O  O8  1  0.39397700  0.89870300  0.56017100  1
  O  O9  1  0.90987000  0.37744200  0.05718700  1
  O  O10  1  0.08998500  0.61626000  0.94005100  1
  O  O11  1  0.38351700  0.09150700  0.56011600  1
  O  O12  1  0.62292500  0.90967700  0.44320100  1
  O  O13  1  0.08965800  0.62260800  0.05691100  1
  O  O14  1  0.90897600  0.38311400  0.94032100  1
  O  O15  1  0.62297200  0.91029900  0.55700400  1
  O  O16  1  0.37676100  0.09011000  0.44335000  1
