# generated using pymatgen
data_CuH23C46Br3(NO3)2
_symmetry_space_group_name_H-M   'P 1'
_cell_length_a   17.77568300
_cell_length_b   16.20783700
_cell_length_c   23.32524100
_cell_angle_alpha   90.00000000
_cell_angle_beta   90.01332500
_cell_angle_gamma   90.00000000
_symmetry_Int_Tables_number   1
_chemical_formula_structural   CuH23C46Br3(NO3)2
_chemical_formula_sum   'Cu2 H46 C92 Br6 N4 O12'
_cell_volume   6720.12706820
_cell_formula_units_Z   2
loop_
 _symmetry_equiv_pos_site_id
 _symmetry_equiv_pos_as_xyz
  1  'x, y, z'
loop_
 _atom_site_type_symbol
 _atom_site_label
 _atom_site_symmetry_multiplicity
 _atom_site_fract_x
 _atom_site_fract_y
 _atom_site_fract_z
 _atom_site_occupancy
  Cu  Cu1  1  0.49925200  0.58321000  0.49985500  1
  Cu  Cu2  1  0.50015100  0.41850300  0.49946300  1
  H  H1  1  0.31606000  0.47108200  0.94524800  1
  H  H2  1  0.68345300  0.52986100  0.05451700  1
  H  H3  1  0.49025700  0.63374000  0.21509600  1
  H  H4  1  0.52657000  0.62733500  0.78519200  1
  H  H5  1  0.49011300  0.63352600  0.31965800  1
  H  H6  1  0.52605900  0.62895900  0.68069700  1
  H  H7  1  0.50781600  0.36997700  0.31847200  1
  H  H8  1  0.47409700  0.37102700  0.67968500  1
  H  H9  1  0.50610900  0.37166700  0.21388600  1
  H  H10  1  0.47546900  0.37043500  0.78413700  1
  H  H11  1  0.87742800  0.61677600  0.45780200  1
  H  H12  1  0.12198600  0.38605600  0.45567300  1
  H  H13  1  0.12277800  0.61282300  0.54636500  1
  H  H14  1  0.87591100  0.38627800  0.54380400  1
  H  H15  1  0.58397700  0.86637400  0.56273600  1
  H  H16  1  0.58225600  0.13681400  0.43151500  1
  H  H17  1  0.41593500  0.86442100  0.43273400  1
  H  H18  1  0.41561000  0.13585300  0.56250500  1
  H  H19  1  0.58255600  0.71492100  0.56344900  1
  H  H20  1  0.58192400  0.28832700  0.43328100  1
  H  H21  1  0.41664700  0.71290100  0.43477600  1
  H  H22  1  0.41740700  0.28728100  0.56294400  1
  H  H23  1  0.29332100  0.60687900  0.07908200  1
  H  H24  1  0.16490900  0.60575200  0.11810800  1
  H  H25  1  0.14010500  0.35472400  0.06745600  1
  H  H26  1  0.26858200  0.35553400  0.02862900  1
  H  H27  1  0.73042700  0.64577200  0.96998300  1
  H  H28  1  0.85882100  0.64652400  0.93095500  1
  H  H29  1  0.83500700  0.39442400  0.88264700  1
  H  H30  1  0.70670400  0.39336000  0.92190500  1
  H  H31  1  0.68672100  0.56237600  0.37900100  1
  H  H32  1  0.62644700  0.67955300  0.33047400  1
  H  H33  1  0.71022400  0.84216200  0.45883400  1
  H  H34  1  0.77149500  0.72547400  0.50713800  1
  H  H35  1  0.30759400  0.44427500  0.37597400  1
  H  H36  1  0.36868600  0.32987300  0.32487000  1
  H  H37  1  0.29528800  0.16255500  0.45398100  1
  H  H38  1  0.23285300  0.27640800  0.50469700  1
  H  H39  1  0.31294300  0.55220400  0.62350900  1
  H  H40  1  0.37717300  0.66547800  0.67351500  1
  H  H41  1  0.29524100  0.83563800  0.54922500  1
  H  H42  1  0.23020400  0.72281800  0.49936400  1
  H  H43  1  0.68386400  0.44606100  0.62086100  1
  H  H44  1  0.62011300  0.33154900  0.66976200  1
  H  H45  1  0.70541900  0.16362800  0.54538700  1
  H  H46  1  0.76999700  0.27768600  0.49658500  1
  C  C1  1  0.35451100  0.49950400  0.49998300  1
  C  C2  1  0.64474300  0.50218400  0.49966300  1
  C  C3  1  0.49939000  0.50118500  0.38946100  1
  C  C4  1  0.49985600  0.50052000  0.60989000  1
  C  C5  1  0.56661800  0.51071100  0.88082400  1
  C  C6  1  0.43293900  0.49022200  0.11885500  1
  C  C7  1  0.43679800  0.48553600  0.88073900  1
  C  C8  1  0.56262000  0.51598000  0.11895700  1
  C  C9  1  0.43540500  0.48712700  0.93984300  1
  C  C10  1  0.56412600  0.51403600  0.05986500  1
  C  C11  1  0.50088800  0.49942500  0.97015400  1
  C  C12  1  0.49862900  0.50168700  0.02955000  1
  C  C13  1  0.56824100  0.50917000  0.94077300  1
  C  C14  1  0.43126000  0.49185000  0.05892700  1
  C  C15  1  0.36816800  0.47828600  0.96854200  1
  C  C16  1  0.63136200  0.52271900  0.03118700  1
  C  C17  1  0.36500600  0.48205400  0.02739500  1
  C  C18  1  0.63452400  0.51879500  0.97234200  1
  C  C19  1  0.49398900  0.57591700  0.23800800  1
  C  C20  1  0.51536600  0.57096700  0.76193700  1
  C  C21  1  0.49417900  0.57547800  0.29709200  1
  C  C22  1  0.51465000  0.57174700  0.70284000  1
  C  C23  1  0.49902000  0.50166900  0.32663700  1
  C  C24  1  0.50011200  0.50005300  0.67269000  1
  C  C25  1  0.50344600  0.42840900  0.29641700  1
  C  C26  1  0.48599200  0.42777100  0.70226100  1
  C  C27  1  0.50267600  0.42906600  0.23732200  1
  C  C28  1  0.48638900  0.42725700  0.76134200  1
  C  C29  1  0.49802000  0.50277500  0.20808400  1
  C  C30  1  0.50130100  0.49873400  0.79134900  1
  C  C31  1  0.84631400  0.56658800  0.47701200  1
  C  C32  1  0.15288800  0.43553400  0.47595500  1
  C  C33  1  0.15335200  0.56323300  0.52594900  1
  C  C34  1  0.84547400  0.43672400  0.52429500  1
  C  C35  1  0.76864900  0.56722300  0.47583000  1
  C  C36  1  0.23053200  0.43525100  0.47476800  1
  C  C37  1  0.23099300  0.56304400  0.52693900  1
  C  C38  1  0.76782700  0.43717300  0.52522800  1
  C  C39  1  0.72807800  0.50230100  0.50024900  1
  C  C40  1  0.27104200  0.49917700  0.50060300  1
  C  C41  1  0.88470300  0.50130800  0.50061600  1
  C  C42  1  0.11429900  0.49958900  0.50091100  1
  C  C43  1  0.96556800  0.50066900  0.50072800  1
  C  C44  1  0.03343700  0.50010000  0.50082000  1
  C  C45  1  0.54653100  0.83309700  0.53447400  1
  C  C46  1  0.54575000  0.16945400  0.46081000  1
  C  C47  1  0.45278200  0.83199100  0.46190300  1
  C  C48  1  0.45279100  0.16891300  0.53393900  1
  C  C49  1  0.54553800  0.74809800  0.53483500  1
  C  C50  1  0.54548900  0.25445700  0.46193000  1
  C  C51  1  0.45329400  0.74701300  0.46315100  1
  C  C52  1  0.45403400  0.25388200  0.53416900  1
  C  C53  1  0.49954300  0.87533200  0.49795400  1
  C  C54  1  0.49934100  0.12639400  0.49728500  1
  C  C55  1  0.49950800  0.96373300  0.49738800  1
  C  C56  1  0.49945100  0.03799900  0.49717500  1
  C  C57  1  0.28973600  0.48055900  0.05281600  1
  C  C58  1  0.26001800  0.55115000  0.07707300  1
  C  C59  1  0.18790800  0.55062500  0.09880100  1
  C  C60  1  0.14498300  0.47993900  0.09562700  1
  C  C61  1  0.17400200  0.40992800  0.07038700  1
  C  C62  1  0.24611400  0.41039400  0.04864800  1
  C  C63  1  0.70980800  0.52018100  0.94697000  1
  C  C64  1  0.75310700  0.59066000  0.95043700  1
  C  C65  1  0.82516100  0.59109100  0.92858700  1
  C  C66  1  0.85441900  0.52076300  0.90393400  1
  C  C67  1  0.81181600  0.44978700  0.90148400  1
  C  C68  1  0.73978200  0.44928300  0.92334600  1
  C  C69  1  0.73202500  0.63638400  0.44665900  1
  C  C70  1  0.69176400  0.62373800  0.39676100  1
  C  C71  1  0.65784800  0.68943100  0.36952300  1
  C  C72  1  0.66402100  0.76777100  0.39202300  1
  C  C73  1  0.70514700  0.78068400  0.44129900  1
  C  C74  1  0.73960800  0.71517800  0.46833000  1
  C  C75  1  0.26713900  0.36763100  0.44394900  1
  C  C76  1  0.30483600  0.38243300  0.39321200  1
  C  C77  1  0.33928900  0.31832800  0.36458600  1
  C  C78  1  0.33636100  0.23949200  0.38663700  1
  C  C79  1  0.29776800  0.22442500  0.43678700  1
  C  C80  1  0.26265000  0.28830700  0.46516600  1
  C  C81  1  0.26816700  0.63026500  0.55786700  1
  C  C82  1  0.30879000  0.61445100  0.60716800  1
  C  C83  1  0.34500300  0.67794300  0.63519500  1
  C  C84  1  0.34056600  0.75727100  0.61417300  1
  C  C85  1  0.29881300  0.77340700  0.56566000  1
  C  C86  1  0.26217500  0.71008500  0.53778300  1
  C  C87  1  0.73021600  0.36926500  0.55513000  1
  C  C88  1  0.68869600  0.38407900  0.60413700  1
  C  C89  1  0.65280800  0.31987600  0.63159300  1
  C  C90  1  0.65841800  0.24080300  0.61030200  1
  C  C91  1  0.70090700  0.22566900  0.56202200  1
  C  C92  1  0.73726300  0.28970700  0.53472900  1
  Br  Br1  1  0.04518400  0.47931900  0.12546400  1
  Br  Br2  1  0.95412200  0.52136200  0.87391000  1
  Br  Br3  1  0.61618500  0.85832100  0.35479100  1
  Br  Br4  1  0.38544500  0.15127400  0.34770200  1
  Br  Br5  1  0.39208500  0.84464900  0.65220700  1
  Br  Br6  1  0.60774400  0.15235500  0.64777600  1
  N  N1  1  0.50163400  0.49798900  0.85245600  1
  N  N2  1  0.49780500  0.50344600  0.14710300  1
  N  N3  1  0.49830500  0.70652900  0.50011900  1
  N  N4  1  0.50110000  0.29518700  0.49919400  1
  O  O1  1  0.39003300  0.57039300  0.50106500  1
  O  O2  1  0.60931200  0.43138100  0.49653600  1
  O  O3  1  0.60864600  0.57262100  0.50259900  1
  O  O4  1  0.39071600  0.42904700  0.49854600  1
  O  O5  1  0.50278200  0.57181100  0.41655700  1
  O  O6  1  0.49861500  0.42982800  0.58280200  1
  O  O7  1  0.50108800  0.57151200  0.58317100  1
  O  O8  1  0.49619500  0.43023800  0.41619200  1
  O  O9  1  0.62890800  0.52577500  0.84999200  1
  O  O10  1  0.37112900  0.47360700  0.14985400  1
  O  O11  1  0.37285700  0.47435500  0.85098900  1
  O  O12  1  0.62617000  0.52853000  0.14891100  1
