# generated using pymatgen
data_CuH17C27(NO3)2
_symmetry_space_group_name_H-M   'P 1'
_cell_length_a   23.26517200
_cell_length_b   10.81634900
_cell_length_c   9.40149900
_cell_angle_alpha   89.98647300
_cell_angle_beta   89.98878800
_cell_angle_gamma   90.01235100
_symmetry_Int_Tables_number   1
_chemical_formula_structural   CuH17C27(NO3)2
_chemical_formula_sum   'Cu2 H34 C54 N4 O12'
_cell_volume   2365.83271549
_cell_formula_units_Z   2
loop_
 _symmetry_equiv_pos_site_id
 _symmetry_equiv_pos_as_xyz
  1  'x, y, z'
loop_
 _atom_site_type_symbol
 _atom_site_label
 _atom_site_symmetry_multiplicity
 _atom_site_fract_x
 _atom_site_fract_y
 _atom_site_fract_z
 _atom_site_occupancy
  Cu  Cu1  1  0.49886200  0.49441500  0.63209800  1
  Cu  Cu2  1  0.49617200  0.49894900  0.35321200  1
  H  H1  1  0.94708400  0.17922100  0.44850100  1
  H  H2  1  0.05087100  0.18099900  0.45612400  1
  H  H3  1  0.04771100  0.79301800  0.53798500  1
  H  H4  1  0.94396600  0.79158100  0.52693300  1
  H  H5  1  0.21328300  0.56843600  0.71218200  1
  H  H6  1  0.31804200  0.57138500  0.71115800  1
  H  H7  1  0.31735600  0.41427000  0.29296100  1
  H  H8  1  0.21304100  0.41217900  0.29572700  1
  H  H9  1  0.78138300  0.36559000  0.65958600  1
  H  H10  1  0.67673600  0.36830600  0.66188800  1
  H  H11  1  0.67712200  0.60362700  0.29604800  1
  H  H12  1  0.78194600  0.59974500  0.29439800  1
  H  H13  1  0.49064900  0.10632600  0.27171100  1
  H  H14  1  0.55017800  0.21027900  0.74442400  1
  H  H15  1  0.54104200  0.10983400  0.97174000  1
  H  H16  1  0.49771000  0.90340600  0.98856300  1
  H  H17  1  0.46955900  0.79442300  0.77760700  1
  H  H18  1  0.48601200  0.88330700  0.27707700  1
  H  H19  1  0.43450700  0.36274900  0.12122600  1
  H  H20  1  0.55619600  0.70173300  0.24104300  1
  H  H21  1  0.62054300  0.82238600  0.12401900  1
  H  H22  1  0.59157100  0.62713800  0.74538000  1
  H  H23  1  0.43614100  0.36157400  0.86139600  1
  H  H24  1  0.63386600  0.83543200  0.74492500  1
  H  H25  1  0.64751500  0.96908300  0.96480500  1
  H  H26  1  0.70084000  0.97444500  0.82959900  1
  H  H27  1  0.71345000  0.83659700  0.11448200  1
  H  H28  1  0.74933600  0.97370400  0.05524000  1
  H  H29  1  0.80916100  0.78472900  0.03186500  1
  H  H30  1  0.79595200  0.85777900  0.86201800  1
  H  H31  1  0.72748700  0.63942800  0.98732000  1
  H  H32  1  0.78298800  0.62845400  0.85347000  1
  H  H33  1  0.68878600  0.63153300  0.73964500  1
  H  H34  1  0.72809000  0.76850400  0.69599900  1
  C  C1  1  0.50155700  0.26200100  0.49111700  1
  C  C2  1  0.38845000  0.49478000  0.49939700  1
  C  C3  1  0.49335700  0.73193600  0.50101000  1
  C  C4  1  0.60663200  0.49234400  0.48480100  1
  C  C5  1  0.87802500  0.59216100  0.49461500  1
  C  C6  1  0.87909400  0.37656600  0.46869300  1
  C  C7  1  0.93853100  0.37601500  0.47326500  1
  C  C8  1  0.96776800  0.48575800  0.48960200  1
  C  C9  1  0.93743300  0.59458600  0.50041900  1
  C  C10  1  0.96892000  0.26666500  0.46150500  1
  C  C11  1  0.02813600  0.26767400  0.46596100  1
  C  C12  1  0.05739500  0.37798500  0.48274100  1
  C  C13  1  0.02704800  0.48666600  0.49512900  1
  C  C14  1  0.05627800  0.59627200  0.51277700  1
  C  C15  1  0.02588500  0.70564700  0.52425600  1
  C  C16  1  0.96669000  0.70482500  0.51791200  1
  C  C17  1  0.11681100  0.38054300  0.48705200  1
  C  C18  1  0.11572300  0.59568700  0.51751700  1
  C  C19  1  0.23620000  0.53505700  0.61981500  1
  C  C20  1  0.29553500  0.53595700  0.61926700  1
  C  C21  1  0.32539800  0.49306000  0.50198700  1
  C  C22  1  0.29524100  0.44852100  0.38601000  1
  C  C23  1  0.23604300  0.44639700  0.38754800  1
  C  C24  1  0.20626900  0.48988800  0.50411900  1
  C  C25  1  0.75856600  0.41695400  0.57870300  1
  C  C26  1  0.69933900  0.41940100  0.58043600  1
  C  C27  1  0.66953800  0.48710800  0.47987600  1
  C  C28  1  0.69955400  0.55032200  0.37585400  1
  C  C29  1  0.75885500  0.54897300  0.37534200  1
  C  C30  1  0.78856700  0.48275600  0.47715500  1
  C  C31  1  0.53033200  0.12021000  0.74684400  1
  C  C32  1  0.52703700  0.06237500  0.87668500  1
  C  C33  1  0.50368200  0.94645200  0.88587500  1
  C  C34  1  0.48961100  0.88333500  0.76390000  1
  C  C35  1  0.49794000  0.93654300  0.63054300  1
  C  C36  1  0.51084600  0.06180300  0.62401900  1
  C  C37  1  0.50497500  0.12561500  0.49545100  1
  C  C38  1  0.49524900  0.05932600  0.37251200  1
  C  C39  1  0.49110800  0.93222500  0.37639300  1
  C  C40  1  0.49233400  0.86891500  0.50440500  1
  C  C41  1  0.56188800  0.67672100  0.13326000  1
  C  C42  1  0.60106100  0.74913500  0.06374300  1
  C  C43  1  0.61373400  0.72639900  0.92399100  1
  C  C44  1  0.58118400  0.63883600  0.85403600  1
  C  C45  1  0.53776600  0.57040600  0.92022400  1
  C  C46  1  0.53131400  0.58256700  0.06630000  1
  C  C47  1  0.46306200  0.42506700  0.06570300  1
  C  C48  1  0.46478100  0.42281700  0.91813600  1
  C  C49  1  0.65726600  0.80009700  0.83932600  1
  C  C50  1  0.68204400  0.91451700  0.91329100  1
  C  C51  1  0.72977300  0.88550200  0.01955800  1
  C  C52  1  0.77581800  0.80692900  0.95154300  1
  C  C53  1  0.74894200  0.68860800  0.89846000  1
  C  C54  1  0.70581400  0.71883900  0.78326900  1
  N  N1  1  0.84988600  0.48390500  0.47918600  1
  N  N2  1  0.14494600  0.48860600  0.50413800  1
  N  N3  1  0.49515300  0.50642500  0.13981700  1
  N  N4  1  0.50267400  0.49303300  0.84536100  1
  O  O1  1  0.48394900  0.31821700  0.60791300  1
  O  O2  1  0.51136700  0.32157800  0.36950000  1
  O  O3  1  0.41637900  0.52576800  0.61697100  1
  O  O4  1  0.41428300  0.46587100  0.37847800  1
  O  O5  1  0.51300900  0.67148100  0.61183200  1
  O  O6  1  0.48058100  0.67492900  0.38128900  1
  O  O7  1  0.58065800  0.46183900  0.60367700  1
  O  O8  1  0.57856100  0.53008600  0.37182000  1
  O  O9  1  0.84800600  0.69761400  0.50831400  1
  O  O10  1  0.85019600  0.27010200  0.45093800  1
  O  O11  1  0.14678800  0.27474000  0.47671200  1
  O  O12  1  0.14467500  0.70252300  0.53132100  1
