# generated using pymatgen
data_Zn3H28C56(NO9)2
_symmetry_space_group_name_H-M   'P 1'
_cell_length_a   21.51404800
_cell_length_b   21.51391300
_cell_length_c   46.94334000
_cell_angle_alpha   90.00000000
_cell_angle_beta   90.00000000
_cell_angle_gamma   90.00000000
_symmetry_Int_Tables_number   1
_chemical_formula_structural   Zn3H28C56(NO9)2
_chemical_formula_sum   'Zn12 H112 C224 N8 O72'
_cell_volume   21727.78861876
_cell_formula_units_Z   4
loop_
 _symmetry_equiv_pos_site_id
 _symmetry_equiv_pos_as_xyz
  1  'x, y, z'
loop_
 _atom_site_type_symbol
 _atom_site_label
 _atom_site_symmetry_multiplicity
 _atom_site_fract_x
 _atom_site_fract_y
 _atom_site_fract_z
 _atom_site_occupancy
  Zn  Zn1  1  0.99984000  0.00023100  0.46974900  1
  Zn  Zn2  1  0.49979300  0.50022900  0.96975000  1
  Zn  Zn3  1  0.00008500  0.99988900  0.53436000  1
  Zn  Zn4  1  0.50004300  0.49988200  0.03436000  1
  Zn  Zn5  1  0.92972000  0.49955500  0.50186900  1
  Zn  Zn6  1  0.50039400  0.92933300  0.50196000  1
  Zn  Zn7  1  0.07058600  0.50060800  0.50181500  1
  Zn  Zn8  1  0.49950700  0.07019700  0.50159400  1
  Zn  Zn9  1  0.42967900  0.99955000  0.00186600  1
  Zn  Zn10  1  0.00034900  0.42932700  0.00196300  1
  Zn  Zn11  1  0.57054600  0.00060300  0.00181800  1
  Zn  Zn12  1  0.99946300  0.57019000  0.00159100  1
  H  H1  1  0.44529600  0.91798300  0.35854600  1
  H  H2  1  0.08024100  0.44444400  0.35838700  1
  H  H3  1  0.55651200  0.08076000  0.35823400  1
  H  H4  1  0.91823800  0.55679400  0.35834300  1
  H  H5  1  0.94528400  0.41794000  0.85854700  1
  H  H6  1  0.58023200  0.94442600  0.85839200  1
  H  H7  1  0.05649900  0.58071900  0.85823300  1
  H  H8  1  0.41823000  0.05677600  0.85833800  1
  H  H9  1  0.92408300  0.28936100  0.53473000  1
  H  H10  1  0.71155400  0.90886700  0.52712900  1
  H  H11  1  0.07621900  0.71056500  0.53505600  1
  H  H12  1  0.28836700  0.07628100  0.53506800  1
  H  H13  1  0.42403800  0.78935800  0.03473100  1
  H  H14  1  0.21151100  0.40884800  0.02712300  1
  H  H15  1  0.57618700  0.21056200  0.03504800  1
  H  H16  1  0.78832400  0.57627700  0.03506400  1
  H  H17  1  0.02472500  0.21154500  0.54923900  1
  H  H18  1  0.78732300  0.00189800  0.55121100  1
  H  H19  1  0.97548200  0.78794200  0.54980300  1
  H  H20  1  0.21158700  0.97433900  0.54881200  1
  H  H21  1  0.52467700  0.71154000  0.04924300  1
  H  H22  1  0.28728000  0.50186800  0.05121400  1
  H  H23  1  0.47545300  0.28793600  0.04980100  1
  H  H24  1  0.71154400  0.47433600  0.04881000  1
  H  H25  1  0.10336900  0.28757100  0.51615000  1
  H  H26  1  0.71051600  0.09265600  0.52593000  1
  H  H27  1  0.89688900  0.71220200  0.51658600  1
  H  H28  1  0.28843100  0.89763900  0.51522600  1
  H  H29  1  0.60332600  0.78756400  0.01615500  1
  H  H30  1  0.21047000  0.59263700  0.02594300  1
  H  H31  1  0.39685200  0.21219500  0.01658800  1
  H  H32  1  0.78838600  0.39763500  0.01522400  1
  H  H33  1  0.07917700  0.21053400  0.46880200  1
  H  H34  1  0.78880600  0.09152700  0.47766400  1
  H  H35  1  0.92080600  0.78986800  0.46939300  1
  H  H36  1  0.21131700  0.92261500  0.46798500  1
  H  H37  1  0.57913600  0.71052900  0.96880600  1
  H  H38  1  0.28875900  0.59153300  0.97767600  1
  H  H39  1  0.42075400  0.28986300  0.96939500  1
  H  H40  1  0.71127000  0.42260900  0.96798300  1
  H  H41  1  0.97867800  0.28893600  0.45432600  1
  H  H42  1  0.71238100  0.99835400  0.45359700  1
  H  H43  1  0.02137300  0.71173700  0.45468100  1
  H  H44  1  0.28874000  0.02439300  0.45428900  1
  H  H45  1  0.47864100  0.78893200  0.95432900  1
  H  H46  1  0.21233600  0.49837000  0.95360000  1
  H  H47  1  0.52132000  0.21173500  0.95467700  1
  H  H48  1  0.78869400  0.52438600  0.95428500  1
  H  H49  1  0.90003600  0.21201700  0.48734700  1
  H  H50  1  0.78974300  0.90787300  0.47883900  1
  H  H51  1  0.09999600  0.78843500  0.48782300  1
  H  H52  1  0.21089500  0.10111800  0.48781000  1
  H  H53  1  0.39999400  0.71201500  0.98734800  1
  H  H54  1  0.28969900  0.40787800  0.97883200  1
  H  H55  1  0.59994900  0.28843400  0.98781400  1
  H  H56  1  0.71085000  0.60111300  0.98780600  1
  H  H57  1  0.34693600  0.98403400  0.27709600  1
  H  H58  1  0.01465700  0.34649400  0.27708900  1
  H  H59  1  0.65500100  0.01431000  0.27712300  1
  H  H60  1  0.98386900  0.65450200  0.27699800  1
  H  H61  1  0.84695000  0.48397800  0.77708600  1
  H  H62  1  0.51467400  0.84647500  0.77709000  1
  H  H63  1  0.15501500  0.51425400  0.77713300  1
  H  H64  1  0.48388600  0.15448400  0.77699700  1
  H  H65  1  0.84732600  0.48089400  0.72571100  1
  H  H66  1  0.51808700  0.84678200  0.72572200  1
  H  H67  1  0.15467800  0.51770100  0.72576400  1
  H  H68  1  0.48046500  0.15402900  0.72562600  1
  H  H69  1  0.34729600  0.98094600  0.22572100  1
  H  H70  1  0.01805500  0.34680000  0.22572100  1
  H  H71  1  0.65464800  0.01775300  0.22575400  1
  H  H72  1  0.98043400  0.65404800  0.22562700  1
  H  H73  1  0.07420800  0.43224200  0.64386600  1
  H  H74  1  0.56570000  0.07395700  0.64365000  1
  H  H75  1  0.92793100  0.56684000  0.64386200  1
  H  H76  1  0.43241600  0.92645000  0.64390700  1
  H  H77  1  0.57415700  0.93226700  0.14386900  1
  H  H78  1  0.06564900  0.57397500  0.14364700  1
  H  H79  1  0.42788100  0.06686500  0.14385800  1
  H  H80  1  0.93236500  0.42646900  0.14390900  1
  H  H81  1  0.07641200  0.43514600  0.59198000  1
  H  H82  1  0.56296500  0.07546100  0.59173500  1
  H  H83  1  0.92612900  0.56434900  0.59196000  1
  H  H84  1  0.43536500  0.92388500  0.59201700  1
  H  H85  1  0.57635800  0.93515400  0.09198300  1
  H  H86  1  0.06291200  0.57547400  0.09173200  1
  H  H87  1  0.42607500  0.06435700  0.09195600  1
  H  H88  1  0.93531100  0.42389800  0.09202000  1
  H  H89  1  0.44150900  0.82551000  0.38843600  1
  H  H90  1  0.35620100  0.77946200  0.42349800  1
  H  H91  1  0.32471500  0.87057700  0.45812200  1
  H  H92  1  0.17318400  0.44157100  0.38831700  1
  H  H93  1  0.21943400  0.35557400  0.42297900  1
  H  H94  1  0.12828700  0.32281600  0.45731900  1
  H  H95  1  0.55997600  0.17389700  0.38747100  1
  H  H96  1  0.64434500  0.22137200  0.42260300  1
  H  H97  1  0.67537000  0.13146700  0.45800800  1
  H  H98  1  0.82524300  0.56029700  0.38819600  1
  H  H99  1  0.77942300  0.64652200  0.42286100  1
  H  H100  1  0.87065900  0.67860100  0.45729700  1
  H  H101  1  0.94148200  0.32547700  0.88844200  1
  H  H102  1  0.85616300  0.27944300  0.92350300  1
  H  H103  1  0.82467100  0.37056800  0.95811900  1
  H  H104  1  0.67316700  0.94155600  0.88832700  1
  H  H105  1  0.71941000  0.85556300  0.92299300  1
  H  H106  1  0.62825600  0.82280700  0.95732900  1
  H  H107  1  0.05994400  0.67386600  0.88746300  1
  H  H108  1  0.14430200  0.72135700  0.92259800  1
  H  H109  1  0.17532300  0.63146400  0.95801000  1
  H  H110  1  0.32522600  0.06028300  0.88818600  1
  H  H111  1  0.27940000  0.14651200  0.92284700  1
  H  H112  1  0.37062800  0.17859200  0.95728700  1
  C  C1  1  0.12134500  0.99943300  0.50141400  1
  C  C2  1  0.00053300  0.12147000  0.50159400  1
  C  C3  1  0.87856000  0.00065200  0.50270900  1
  C  C4  1  0.99940900  0.87866600  0.50253200  1
  C  C5  1  0.62130000  0.49942900  0.00141200  1
  C  C6  1  0.50048800  0.62146500  0.00159600  1
  C  C7  1  0.37851500  0.50064700  0.00271100  1
  C  C8  1  0.49936500  0.37866200  0.00253000  1
  C  C9  1  0.00106700  0.49953700  0.64763700  1
  C  C10  1  0.49907400  0.00021700  0.64756500  1
  C  C11  1  0.50101800  0.99956400  0.14763700  1
  C  C12  1  0.99902400  0.50023600  0.14756500  1
  C  C13  1  0.47001500  0.95365400  0.37010300  1
  C  C14  1  0.04476700  0.46935700  0.36998600  1
  C  C15  1  0.53180900  0.04529400  0.36992900  1
  C  C16  1  0.95362700  0.53180000  0.36995900  1
  C  C17  1  0.97000000  0.45361400  0.87010400  1
  C  C18  1  0.54475500  0.96933900  0.86998800  1
  C  C19  1  0.03179300  0.54525500  0.86992800  1
  C  C20  1  0.45361500  0.03178300  0.86995600  1
  C  C21  1  0.50077300  0.99997200  0.41449100  1
  C  C22  1  0.99904100  0.50043400  0.41448300  1
  C  C23  1  0.00074300  0.49994700  0.91449100  1
  C  C24  1  0.49901800  0.00042000  0.91448300  1
  C  C25  1  0.50096300  0.99931100  0.35517400  1
  C  C26  1  0.99921300  0.50057400  0.35512000  1
  C  C27  1  0.00095300  0.49926800  0.85517400  1
  C  C28  1  0.49920600  0.00055600  0.85512000  1
  C  C29  1  0.01421700  0.22969100  0.52766200  1
  C  C30  1  0.76974400  0.00112500  0.52901000  1
  C  C31  1  0.98596500  0.77011300  0.52816700  1
  C  C32  1  0.22964400  0.98578800  0.52732000  1
  C  C33  1  0.51417100  0.72968600  0.02766600  1
  C  C34  1  0.26970000  0.50110500  0.02901300  1
  C  C35  1  0.48593000  0.27010700  0.02816500  1
  C  C36  1  0.72960000  0.48578400  0.02731700  1
  C  C37  1  0.95926400  0.27061500  0.51975800  1
  C  C38  1  0.72978300  0.95035900  0.51588000  1
  C  C39  1  0.04096500  0.72938600  0.52014000  1
  C  C40  1  0.27001400  0.04142000  0.51983900  1
  C  C41  1  0.45922000  0.77061100  0.01976000  1
  C  C42  1  0.22973900  0.45034600  0.01587800  1
  C  C43  1  0.54092900  0.22938200  0.02013400  1
  C  C44  1  0.76997000  0.54141500  0.01983600  1
  C  C45  1  0.00213500  0.30956800  0.50172400  1
  C  C46  1  0.69044800  0.99991900  0.50212600  1
  C  C47  1  0.99810200  0.69056300  0.50204700  1
  C  C48  1  0.30944500  0.99957600  0.50152700  1
  C  C49  1  0.50209400  0.80956400  0.00172700  1
  C  C50  1  0.19040400  0.49991100  0.00212900  1
  C  C51  1  0.49806100  0.19055800  0.00204400  1
  C  C52  1  0.80940000  0.49957100  0.00152300  1
  C  C53  1  0.05713500  0.26979900  0.50961900  1
  C  C54  1  0.72926200  0.05068500  0.51524700  1
  C  C55  1  0.94305800  0.73015200  0.51006100  1
  C  C56  1  0.27022200  0.94390100  0.50899700  1
  C  C57  1  0.55709300  0.76979400  0.00962300  1
  C  C58  1  0.22921700  0.55067100  0.01525500  1
  C  C59  1  0.44301900  0.23014600  0.01006200  1
  C  C60  1  0.77017800  0.44389700  0.00899500  1
  C  C61  1  0.04399200  0.22936400  0.48375100  1
  C  C62  1  0.77028200  0.05009300  0.48885900  1
  C  C63  1  0.95604800  0.77090500  0.48427900  1
  C  C64  1  0.22972100  0.95748600  0.48319800  1
  C  C65  1  0.54395100  0.72935900  0.98375500  1
  C  C66  1  0.27023600  0.55009300  0.98886700  1
  C  C67  1  0.45600100  0.27090000  0.98427800  1
  C  C68  1  0.72967500  0.45748000  0.98319500  1
  C  C69  1  0.98898900  0.27031500  0.47583900  1
  C  C70  1  0.73029700  0.99931300  0.47573400  1
  C  C71  1  0.01109700  0.73011900  0.47624100  1
  C  C72  1  0.27013700  0.01317100  0.47570900  1
  C  C73  1  0.48895000  0.77031100  0.97584200  1
  C  C74  1  0.23025200  0.49931900  0.97573800  1
  C  C75  1  0.51104900  0.23011500  0.97623700  1
  C  C76  1  0.77009200  0.51316500  0.97570600  1
  C  C77  1  0.94612300  0.23021200  0.49385400  1
  C  C78  1  0.77077500  0.94977800  0.48949700  1
  C  C79  1  0.05396000  0.77010000  0.49432400  1
  C  C80  1  0.22954900  0.05501100  0.49400700  1
  C  C81  1  0.44608100  0.73020800  0.99385600  1
  C  C82  1  0.27073000  0.44977800  0.98949500  1
  C  C83  1  0.55391600  0.27009700  0.99431800  1
  C  C84  1  0.72950500  0.55500600  0.99400300  1
  C  C85  1  0.00110200  0.19044200  0.50177300  1
  C  C86  1  0.80958300  0.00053800  0.50261600  1
  C  C87  1  0.99893500  0.80968900  0.50236400  1
  C  C88  1  0.19032200  0.99935800  0.50150300  1
  C  C89  1  0.50105800  0.69043800  0.00177600  1
  C  C90  1  0.30953800  0.50053200  0.00261900  1
  C  C91  1  0.49889200  0.30968400  0.00236100  1
  C  C92  1  0.69027700  0.49935400  0.00150000  1
  C  C93  1  0.46752700  0.95493500  0.39949800  1
  C  C94  1  0.04368000  0.46680400  0.39937600  1
  C  C95  1  0.53408200  0.04471400  0.39932700  1
  C  C96  1  0.95457500  0.53423500  0.39935200  1
  C  C97  1  0.96750200  0.45490500  0.89949800  1
  C  C98  1  0.54366000  0.96678900  0.89937900  1
  C  C99  1  0.03405600  0.54468500  0.89932600  1
  C  C100  1  0.45455600  0.03422000  0.89934900  1
  C  C101  1  0.00148700  0.49992600  0.55753300  1
  C  C102  1  0.49947100  0.99903300  0.55747500  1
  C  C103  1  0.50143700  0.99992800  0.05753200  1
  C  C104  1  0.99941900  0.49903900  0.05747500  1
  C  C105  1  0.00212300  0.37855900  0.50173100  1
  C  C106  1  0.62145700  0.99937700  0.50194200  1
  C  C107  1  0.99815300  0.62157600  0.50195300  1
  C  C108  1  0.37842200  0.00014700  0.50159500  1
  C  C109  1  0.50208300  0.87855400  0.00173400  1
  C  C110  1  0.12141200  0.49937000  0.00194500  1
  C  C111  1  0.49811300  0.12157200  0.00195000  1
  C  C112  1  0.87837800  0.50014200  0.00159200  1
  C  C113  1  0.99882800  0.50026900  0.44592600  1
  C  C114  1  0.50045300  0.00052200  0.44589400  1
  C  C115  1  0.49879800  0.00025900  0.94592600  1
  C  C116  1  0.00041600  0.50050300  0.94589400  1
  C  C117  1  0.55536300  0.00217700  0.31032000  1
  C  C118  1  0.99619000  0.55493900  0.31023700  1
  C  C119  1  0.44656500  0.99601600  0.31031600  1
  C  C120  1  0.00231400  0.44614000  0.31026600  1
  C  C121  1  0.05536700  0.50212400  0.81032400  1
  C  C122  1  0.49619600  0.05492100  0.81023700  1
  C  C123  1  0.94656900  0.49596200  0.81031300  1
  C  C124  1  0.50232000  0.94612100  0.81026600  1
  C  C125  1  0.44602800  0.99428300  0.28087400  1
  C  C126  1  0.00418400  0.44557200  0.28082700  1
  C  C127  1  0.55591000  0.00401200  0.28088100  1
  C  C128  1  0.99433100  0.55543400  0.28079600  1
  C  C129  1  0.94604100  0.49422800  0.78087000  1
  C  C130  1  0.50420000  0.94555300  0.78082700  1
  C  C131  1  0.05592300  0.50395700  0.78088400  1
  C  C132  1  0.49434600  0.05541600  0.78079600  1
  C  C133  1  0.50097000  0.99919000  0.26611300  1
  C  C134  1  0.99925500  0.50048300  0.26604800  1
  C  C135  1  0.00098800  0.49913600  0.76611300  1
  C  C136  1  0.49927500  0.00046500  0.76604800  1
  C  C137  1  0.39082100  0.98820500  0.26608000  1
  C  C138  1  0.01044500  0.39035700  0.26605700  1
  C  C139  1  0.61111800  0.01019500  0.26609900  1
  C  C140  1  0.98807300  0.61060800  0.26599100  1
  C  C141  1  0.89083900  0.48815000  0.76607300  1
  C  C142  1  0.51046500  0.89033900  0.76605700  1
  C  C143  1  0.11113600  0.51014000  0.76610600  1
  C  C144  1  0.48809300  0.11058900  0.76599000  1
  C  C145  1  0.89107100  0.48625700  0.73673600  1
  C  C146  1  0.51255600  0.89053300  0.73672600  1
  C  C147  1  0.11092500  0.51224700  0.73677400  1
  C  C148  1  0.48600100  0.11031200  0.73665700  1
  C  C149  1  0.39104500  0.98631000  0.23674300  1
  C  C150  1  0.01252700  0.39055100  0.23672500  1
  C  C151  1  0.61089800  0.01230000  0.23676700  1
  C  C152  1  0.98597300  0.61033100  0.23665800  1
  C  C153  1  0.94631200  0.49222400  0.72195600  1
  C  C154  1  0.50652100  0.94573500  0.72192100  1
  C  C155  1  0.05569400  0.50639200  0.72197800  1
  C  C156  1  0.49201500  0.05506600  0.72188400  1
  C  C157  1  0.44628100  0.99227500  0.22195900  1
  C  C158  1  0.00648800  0.44575300  0.22192100  1
  C  C159  1  0.55566300  0.00644200  0.22197400  1
  C  C160  1  0.99198200  0.55508500  0.22188400  1
  C  C161  1  0.00099800  0.49924500  0.73673200  1
  C  C162  1  0.49927100  0.00042300  0.73666700  1
  C  C163  1  0.50097100  0.99929700  0.23673100  1
  C  C164  1  0.99924300  0.50044200  0.23666700  1
  C  C165  1  0.94723300  0.49069400  0.69251200  1
  C  C166  1  0.50820500  0.94660600  0.69248200  1
  C  C167  1  0.05479800  0.50815700  0.69253800  1
  C  C168  1  0.49027300  0.05409400  0.69244200  1
  C  C169  1  0.44719400  0.99073800  0.19251500  1
  C  C170  1  0.00816400  0.44662500  0.19248100  1
  C  C171  1  0.55475900  0.00820100  0.19253400  1
  C  C172  1  0.99023200  0.55411300  0.19244300  1
  C  C173  1  0.04246900  0.46263100  0.63270400  1
  C  C174  1  0.53561500  0.04182600  0.63255200  1
  C  C175  1  0.95974400  0.53653100  0.63269900  1
  C  C176  1  0.46248700  0.95841100  0.63269800  1
  C  C177  1  0.54241800  0.96265100  0.13270500  1
  C  C178  1  0.03556300  0.54184400  0.13255000  1
  C  C179  1  0.45969200  0.03655200  0.13269700  1
  C  C180  1  0.96243500  0.45842900  0.13270000  1
  C  C181  1  0.04357700  0.46395400  0.60335500  1
  C  C182  1  0.53440900  0.04254600  0.60319500  1
  C  C183  1  0.95886500  0.53544500  0.60334400  1
  C  C184  1  0.46380100  0.95710600  0.60335400  1
  C  C185  1  0.54352300  0.96396500  0.10335700  1
  C  C186  1  0.03435500  0.54256000  0.10319300  1
  C  C187  1  0.45881100  0.03545600  0.10334200  1
  C  C188  1  0.96374800  0.45712100  0.10335500  1
  C  C189  1  0.00129300  0.49977200  0.58861700  1
  C  C190  1  0.49916600  0.99964200  0.58855000  1
  C  C191  1  0.50123900  0.99977900  0.08861700  1
  C  C192  1  0.99911300  0.49965500  0.08855000  1
  C  C193  1  0.42598500  0.91060900  0.41378600  1
  C  C194  1  0.41797000  0.84989400  0.40543600  1
  C  C195  1  0.37450900  0.82624800  0.42334600  1
  C  C196  1  0.35858500  0.87416900  0.44122000  1
  C  C197  1  0.08802800  0.42499300  0.41347600  1
  C  C198  1  0.14882100  0.41746500  0.40515600  1
  C  C199  1  0.17256100  0.37365900  0.42286000  1
  C  C200  1  0.12460700  0.35706300  0.44058500  1
  C  C201  1  0.57525100  0.08965300  0.41345500  1
  C  C202  1  0.58323900  0.15012700  0.40473100  1
  C  C203  1  0.62621600  0.17451600  0.42268200  1
  C  C204  1  0.64189500  0.12724500  0.44095900  1
  C  C205  1  0.91039500  0.57623300  0.41344400  1
  C  C206  1  0.84968900  0.58418700  0.40507400  1
  C  C207  1  0.82617100  0.62811600  0.42277800  1
  C  C208  1  0.87416200  0.64435400  0.44055200  1
  C  C209  1  0.92595500  0.41058400  0.91378700  1
  C  C210  1  0.91794000  0.34986700  0.90544000  1
  C  C211  1  0.87447300  0.32622700  0.92334900  1
  C  C212  1  0.85854600  0.37415400  0.94121900  1
  C  C213  1  0.58800500  0.92497900  0.91348100  1
  C  C214  1  0.64880100  0.91745100  0.90516500  1
  C  C215  1  0.67253700  0.87364700  0.92287100  1
  C  C216  1  0.62457900  0.85705300  0.94059400  1
  C  C217  1  0.07521900  0.58963000  0.91345400  1
  C  C218  1  0.08320500  0.65010200  0.90472600  1
  C  C219  1  0.12617500  0.67450000  0.92267800  1
  C  C220  1  0.14185200  0.62723500  0.94096000  1
  C  C221  1  0.41037300  0.07621900  0.91343800  1
  C  C222  1  0.34966900  0.08417400  0.90506500  1
  C  C223  1  0.32614700  0.12810400  0.92276600  1
  C  C224  1  0.37413500  0.14434300  0.94054300  1
  N  N1  1  0.50096300  0.99909200  0.32467400  1
  N  N2  1  0.99924700  0.50055600  0.32461500  1
  N  N3  1  0.00096200  0.49904000  0.82467400  1
  N  N4  1  0.49924800  0.00053700  0.82461400  1
  N  N5  1  0.00102500  0.49947100  0.67815200  1
  N  N6  1  0.49919800  0.00031900  0.67808400  1
  N  N7  1  0.50098200  0.99951100  0.17815200  1
  N  N8  1  0.99915400  0.50033800  0.17808400  1
  O  O1  1  0.09272200  0.00174300  0.47677400  1
  O  O2  1  0.00129600  0.09306500  0.47688900  1
  O  O3  1  0.90746100  0.00177000  0.47810500  1
  O  O4  1  0.00131700  0.90779400  0.47799200  1
  O  O5  1  0.59267600  0.50174100  0.97677200  1
  O  O6  1  0.50125000  0.59306200  0.97689100  1
  O  O7  1  0.40741400  0.50176700  0.97810600  1
  O  O8  1  0.50127100  0.40779100  0.97799000  1
  O  O9  1  0.09239200  0.99751200  0.52599300  1
  O  O10  1  0.99947500  0.09228700  0.52612800  1
  O  O11  1  0.90724100  0.99923800  0.52734600  1
  O  O12  1  0.99774300  0.90712700  0.52721200  1
  O  O13  1  0.59234900  0.49750600  0.02599200  1
  O  O14  1  0.49943100  0.59228100  0.02613000  1
  O  O15  1  0.40719800  0.49923100  0.02734800  1
  O  O16  1  0.49770000  0.40712100  0.02721000  1
  O  O17  1  0.94786000  0.50149000  0.54421400  1
  O  O18  1  0.50060300  0.94504900  0.54450000  1
  O  O19  1  0.05526500  0.49837000  0.54437700  1
  O  O20  1  0.49859400  0.05247300  0.54398500  1
  O  O21  1  0.44781200  0.00149100  0.04421200  1
  O  O22  1  0.00055300  0.44505200  0.04450200  1
  O  O23  1  0.55521700  0.99837000  0.04437900  1
  O  O24  1  0.99854400  0.55247600  0.04398200  1
  O  O25  1  0.94837500  0.40726100  0.50128600  1
  O  O26  1  0.59311000  0.94550100  0.50306900  1
  O  O27  1  0.05189400  0.59288000  0.50277200  1
  O  O28  1  0.40675700  0.05407300  0.50097700  1
  O  O29  1  0.44833500  0.90725700  0.00128600  1
  O  O30  1  0.09306400  0.44549400  0.00307400  1
  O  O31  1  0.55185400  0.09287500  0.00277200  1
  O  O32  1  0.90671300  0.55406700  0.00097200  1
  O  O33  1  0.05572000  0.40750100  0.50219000  1
  O  O34  1  0.59218000  0.05278500  0.50075400  1
  O  O35  1  0.94457900  0.59264400  0.50102000  1
  O  O36  1  0.40770700  0.94671900  0.50224900  1
  O  O37  1  0.55567900  0.90749700  0.00219400  1
  O  O38  1  0.09213600  0.55277800  0.00075400  1
  O  O39  1  0.44453900  0.09264000  0.00101600  1
  O  O40  1  0.90766200  0.44671400  0.00224900  1
  O  O41  1  0.94521900  0.50063200  0.45929000  1
  O  O42  1  0.50259600  0.94729100  0.45957500  1
  O  O43  1  0.05226600  0.49982200  0.45945900  1
  O  O44  1  0.49793300  0.05427100  0.45905800  1
  O  O45  1  0.44518700  0.00062300  0.95928800  1
  O  O46  1  0.00255700  0.44727500  0.95957800  1
  O  O47  1  0.55223400  0.99981300  0.95946100  1
  O  O48  1  0.99789300  0.55425500  0.95905500  1
  O  O49  1  0.60944700  0.00206000  0.32465000  1
  O  O50  1  0.99640800  0.60906200  0.32453600  1
  O  O51  1  0.39247600  0.99614200  0.32464000  1
  O  O52  1  0.00207800  0.39205100  0.32459200  1
  O  O53  1  0.10944700  0.50200800  0.82465700  1
  O  O54  1  0.49641000  0.10904300  0.82453600  1
  O  O55  1  0.89247500  0.49608900  0.82463300  1
  O  O56  1  0.50208000  0.89203300  0.82459200  1
  O  O57  1  0.89443800  0.47885600  0.67820200  1
  O  O58  1  0.52041500  0.89383500  0.67821800  1
  O  O59  1  0.10760500  0.52012900  0.67826000  1
  O  O60  1  0.47807100  0.10681600  0.67813900  1
  O  O61  1  0.39439400  0.97889800  0.17820900  1
  O  O62  1  0.02037100  0.39385400  0.17821700  1
  O  O63  1  0.60756200  0.02017000  0.17825300  1
  O  O64  1  0.97802800  0.60683500  0.17814100  1
  O  O65  1  0.38947000  0.92588200  0.43542100  1
  O  O66  1  0.07277800  0.38785400  0.43488800  1
  O  O67  1  0.61131400  0.07524300  0.43536600  1
  O  O68  1  0.92580400  0.61322600  0.43488500  1
  O  O69  1  0.88943500  0.42586500  0.93541900  1
  O  O70  1  0.57275100  0.88784200  0.93489400  1
  O  O71  1  0.11127600  0.57523000  0.93536800  1
  O  O72  1  0.42577700  0.11321400  0.93488000  1
