# generated using pymatgen
data_ZnH16C20N2O5
_symmetry_space_group_name_H-M   'P 1'
_cell_length_a   14.02940900
_cell_length_b   14.08642700
_cell_length_c   15.20194500
_cell_angle_alpha   89.98853500
_cell_angle_beta   90.00486100
_cell_angle_gamma   85.34351500
_symmetry_Int_Tables_number   1
_chemical_formula_structural   ZnH16C20N2O5
_chemical_formula_sum   'Zn2 H32 C40 N4 O10'
_cell_volume   2994.35672556
_cell_formula_units_Z   2
loop_
 _symmetry_equiv_pos_site_id
 _symmetry_equiv_pos_as_xyz
  1  'x, y, z'
loop_
 _atom_site_type_symbol
 _atom_site_label
 _atom_site_symmetry_multiplicity
 _atom_site_fract_x
 _atom_site_fract_y
 _atom_site_fract_z
 _atom_site_occupancy
  Zn  Zn1  1  0.60834400  0.50024900  0.47941500  1
  Zn  Zn2  1  0.39132800  0.49986000  0.47943400  1
  H  H1  1  0.64896100  0.45335100  0.04065100  1
  H  H2  1  0.35844700  0.45281700  0.91819700  1
  H  H3  1  0.64930700  0.45661200  0.19942300  1
  H  H4  1  0.35763100  0.45596400  0.75941100  1
  H  H5  1  0.35023000  0.54358400  0.19937600  1
  H  H6  1  0.64210700  0.54404500  0.75948600  1
  H  H7  1  0.35058200  0.54674800  0.04058100  1
  H  H8  1  0.64115300  0.54731700  0.91826400  1
  H  H9  1  0.07175800  0.43653200  0.35141700  1
  H  H10  1  0.92212900  0.63408600  0.54690300  1
  H  H11  1  0.24504000  0.43492700  0.35481700  1
  H  H12  1  0.74915700  0.63036900  0.54793200  1
  H  H13  1  0.23459800  0.56462000  0.60406900  1
  H  H14  1  0.77019900  0.37039700  0.41089500  1
  H  H15  1  0.06151100  0.56369400  0.60731400  1
  H  H16  1  0.94374000  0.36656300  0.41179200  1
  H  H17  1  0.61448900  0.90731000  0.60588900  1
  H  H18  1  0.67791200  0.01387000  0.60645000  1
  H  H19  1  0.74893200  0.81938100  0.52743700  1
  H  H20  1  0.78780400  0.87000000  0.62825500  1
  H  H21  1  0.77953300  0.88502800  0.39803600  1
  H  H22  1  0.84600200  0.98850000  0.39186800  1
  H  H23  1  0.67458800  0.03188700  0.36576700  1
  H  H24  1  0.71676800  0.08564800  0.46573700  1
  H  H25  1  0.39069200  0.09067400  0.61084200  1
  H  H26  1  0.32731900  0.98408000  0.61232300  1
  H  H27  1  0.25310800  0.17995500  0.53816200  1
  H  H28  1  0.21836100  0.12734600  0.63951000  1
  H  H29  1  0.21738300  0.11658200  0.40898200  1
  H  H30  1  0.15061000  0.01325700  0.40370500  1
  H  H31  1  0.32082900  0.97023700  0.37150200  1
  H  H32  1  0.28265900  0.91478100  0.47215900  1
  C  C1  1  0.49979800  0.50019400  0.30724500  1
  C  C2  1  0.49992700  0.49991800  0.65160200  1
  C  C3  1  0.51526400  0.31392300  0.47938000  1
  C  C4  1  0.48437200  0.68618100  0.47955300  1
  C  C5  1  0.47583900  0.78834500  0.48104800  1
  C  C6  1  0.52386600  0.21174900  0.48059300  1
  C  C7  1  0.46055600  0.97670900  0.48658500  1
  C  C8  1  0.53955900  0.02334700  0.48527300  1
  C  C9  1  0.53114400  0.12592800  0.48230500  1
  C  C10  1  0.46872500  0.87415300  0.48309800  1
  C  C11  1  0.58313500  0.47557400  0.07432800  1
  C  C12  1  0.42057300  0.47522800  0.88451700  1
  C  C13  1  0.58329700  0.47655600  0.16501800  1
  C  C14  1  0.42029700  0.47612700  0.79382100  1
  C  C15  1  0.49978100  0.50015800  0.21085400  1
  C  C16  1  0.49989800  0.49994500  0.74799300  1
  C  C17  1  0.41625000  0.52366900  0.16499000  1
  C  C18  1  0.57943300  0.52386000  0.79386400  1
  C  C19  1  0.41641300  0.52457900  0.07429300  1
  C  C20  1  0.57906800  0.52485000  0.88455600  1
  C  C21  1  0.49978000  0.50007200  0.02795400  1
  C  C22  1  0.49980400  0.50005000  0.93089300  1
  C  C23  1  0.10572400  0.46364000  0.40892000  1
  C  C24  1  0.89084500  0.57393300  0.51780600  1
  C  C25  1  0.20399200  0.46369600  0.41020100  1
  C  C26  1  0.79267200  0.57264400  0.51751700  1
  C  C27  1  0.19817700  0.53591000  0.54868700  1
  C  C28  1  0.80435900  0.42815300  0.44121300  1
  C  C29  1  0.09986500  0.53640000  0.54986700  1
  C  C30  1  0.90273200  0.42677200  0.44086700  1
  C  C31  1  0.05230000  0.50014300  0.47936300  1
  C  C32  1  0.94727400  0.50031200  0.47932800  1
  C  C33  1  0.66637100  0.94784900  0.56956900  1
  C  C34  1  0.76027000  0.88728500  0.56128400  1
  C  C35  1  0.79221600  0.95316700  0.43086900  1
  C  C36  1  0.70080400  0.01795100  0.43376300  1
  C  C37  1  0.33733100  0.05073900  0.57584800  1
  C  C38  1  0.24315600  0.11138300  0.57144800  1
  C  C39  1  0.20595600  0.04786200  0.44135500  1
  C  C40  1  0.29736900  0.98301500  0.44046800  1
  N  N1  1  0.24873700  0.49969800  0.47947100  1
  N  N2  1  0.75092000  0.50042000  0.47937100  1
  N  N3  1  0.63055800  0.97170000  0.48316600  1
  N  N4  1  0.36958500  0.02840900  0.48804400  1
  O  O1  1  0.58209800  0.49983100  0.34836600  1
  O  O2  1  0.41771200  0.49927500  0.61047800  1
  O  O3  1  0.41752000  0.50052700  0.34837900  1
  O  O4  1  0.58214300  0.50060600  0.61048000  1
  O  O5  1  0.59388600  0.35831200  0.47981500  1
  O  O6  1  0.40573800  0.64180200  0.47996400  1
  O  O7  1  0.42923100  0.35797800  0.47901400  1
  O  O8  1  0.57039200  0.64212400  0.47911600  1
  O  O9  1  0.82754600  0.93713100  0.51618700  1
  O  O10  1  0.17408700  0.06235700  0.52796300  1
