# generated using pymatgen
data_ZnH9C15NO10
_symmetry_space_group_name_H-M   'P 1'
_cell_length_a   16.08398200
_cell_length_b   10.76594000
_cell_length_c   9.79150800
_cell_angle_alpha   90.00800500
_cell_angle_beta   89.99225300
_cell_angle_gamma   89.99417300
_symmetry_Int_Tables_number   1
_chemical_formula_structural   ZnH9C15NO10
_chemical_formula_sum   'Zn2 H18 C30 N2 O20'
_cell_volume   1695.48950608
_cell_formula_units_Z   2
loop_
 _symmetry_equiv_pos_site_id
 _symmetry_equiv_pos_as_xyz
  1  'x, y, z'
loop_
 _atom_site_type_symbol
 _atom_site_label
 _atom_site_symmetry_multiplicity
 _atom_site_fract_x
 _atom_site_fract_y
 _atom_site_fract_z
 _atom_site_occupancy
  Zn  Zn1  1  0.49928800  0.50003100  0.65563300  1
  Zn  Zn2  1  0.50071200  0.49996800  0.34436700  1
  H  H1  1  0.62372900  0.92262700  0.38593900  1
  H  H2  1  0.37627100  0.07737300  0.61406100  1
  H  H3  1  0.62204900  0.07712800  0.61897900  1
  H  H4  1  0.37795100  0.92287200  0.38102100  1
  H  H5  1  0.49816000  0.92386900  0.73351900  1
  H  H6  1  0.50184000  0.07613100  0.26648100  1
  H  H7  1  0.00340500  0.25077200  0.34180400  1
  H  H8  1  0.99659500  0.74922700  0.65819600  1
  H  H9  1  0.99655600  0.25091900  0.65839400  1
  H  H10  1  0.00344400  0.74908100  0.34160600  1
  H  H11  1  0.99367800  0.49986200  0.18375800  1
  H  H12  1  0.00632300  0.50013800  0.81624200  1
  H  H13  1  0.61282600  0.27450100  0.97903000  1
  H  H14  1  0.38717400  0.72549800  0.02097000  1
  H  H15  1  0.42638400  0.24071300  0.01649100  1
  H  H16  1  0.57361600  0.75928600  0.98350900  1
  H  H17  1  0.31258200  0.46651200  0.99162100  1
  H  H18  1  0.68741800  0.53348700  0.00837900  1
  C  C1  1  0.50006200  0.25730500  0.50040400  1
  C  C2  1  0.49993800  0.74269500  0.49959600  1
  C  C3  1  0.33755700  0.49993000  0.49768500  1
  C  C4  1  0.66244300  0.50006900  0.50231500  1
  C  C5  1  0.97321600  0.40100000  0.56334600  1
  C  C6  1  0.02678400  0.59899900  0.43665400  1
  C  C7  1  0.02676900  0.40092500  0.43673200  1
  C  C8  1  0.97323100  0.59907400  0.56326800  1
  C  C9  1  0.24833800  0.49993100  0.49707100  1
  C  C10  1  0.75166200  0.50006900  0.50292900  1
  C  C11  1  0.02791600  0.50004700  0.62523900  1
  C  C12  1  0.97208400  0.49995200  0.37476100  1
  C  C13  1  0.08246200  0.49997200  0.49859200  1
  C  C14  1  0.91753800  0.50002800  0.50140800  1
  C  C15  1  0.17342000  0.49994500  0.49742500  1
  C  C16  1  0.82658000  0.50005500  0.50257500  1
  C  C17  1  0.56663600  0.04045500  0.56498600  1
  C  C18  1  0.43336400  0.95954500  0.43501400  1
  C  C19  1  0.56755500  0.95941800  0.43770700  1
  C  C20  1  0.43244600  0.04058200  0.56229300  1
  C  C21  1  0.49995300  0.88079900  0.49998400  1
  C  C22  1  0.50004700  0.11920000  0.50001600  1
  C  C23  1  0.49903000  0.95956800  0.62730600  1
  C  C24  1  0.50097000  0.04043200  0.37269400  1
  C  C25  1  0.47225000  0.40099100  0.04817800  1
  C  C26  1  0.52775000  0.59900900  0.95182200  1
  C  C27  1  0.54249800  0.41414600  0.95030900  1
  C  C28  1  0.45750200  0.58585400  0.04969100  1
  C  C29  1  0.42785900  0.48741700  0.95480300  1
  C  C30  1  0.57214100  0.51258300  0.04519700  1
  N  N1  1  0.49811600  0.50056300  0.85995100  1
  N  N2  1  0.50188400  0.49943700  0.14004900  1
  O  O1  1  0.49949900  0.31486200  0.61857000  1
  O  O2  1  0.50050100  0.68513800  0.38143000  1
  O  O3  1  0.50059700  0.31501700  0.38244300  1
  O  O4  1  0.49940300  0.68498200  0.61755700  1
  O  O5  1  0.37565400  0.49988000  0.61613200  1
  O  O6  1  0.62434600  0.50012000  0.38386800  1
  O  O7  1  0.37661900  0.50001200  0.38001400  1
  O  O8  1  0.62338200  0.49998700  0.61998700  1
  O  O9  1  0.05478100  0.29495400  0.36901200  1
  O  O10  1  0.94521900  0.70504600  0.63098800  1
  O  O11  1  0.94518700  0.29510800  0.63114800  1
  O  O12  1  0.05481300  0.70489100  0.36885200  1
  O  O13  1  0.94282200  0.49990200  0.24073400  1
  O  O14  1  0.05717800  0.50009800  0.75926600  1
  O  O15  1  0.59039000  0.31742400  0.89756700  1
  O  O16  1  0.40961000  0.68257600  0.10243300  1
  O  O17  1  0.44087600  0.28944300  0.09886900  1
  O  O18  1  0.55912400  0.71055700  0.90113100  1
  O  O19  1  0.34662900  0.47312700  0.90769800  1
  O  O20  1  0.65337100  0.52687300  0.09230200  1
