# generated using pymatgen
data_ZnH20C26N5O4
_symmetry_space_group_name_H-M   'P 1'
_cell_length_a   15.91852500
_cell_length_b   17.06432600
_cell_length_c   19.32734100
_cell_angle_alpha   89.99948900
_cell_angle_beta   92.70878900
_cell_angle_gamma   89.11736400
_symmetry_Int_Tables_number   1
_chemical_formula_structural   ZnH20C26N5O4
_chemical_formula_sum   'Zn2 H40 C52 N10 O8'
_cell_volume   5243.56776358
_cell_formula_units_Z   2
loop_
 _symmetry_equiv_pos_site_id
 _symmetry_equiv_pos_as_xyz
  1  'x, y, z'
loop_
 _atom_site_type_symbol
 _atom_site_label
 _atom_site_symmetry_multiplicity
 _atom_site_fract_x
 _atom_site_fract_y
 _atom_site_fract_z
 _atom_site_occupancy
  Zn  Zn1  1  0.40389700  0.50153000  0.48974600  1
  Zn  Zn2  1  0.59499600  0.50449400  0.49772700  1
  H  H1  1  0.36392400  0.50805600  0.70907300  1
  H  H2  1  0.63496600  0.49802900  0.27839700  1
  H  H3  1  0.36409500  0.50643300  0.83406200  1
  H  H4  1  0.63479200  0.49968500  0.15340900  1
  H  H5  1  0.63342600  0.51010000  0.84417900  1
  H  H6  1  0.36546200  0.49599000  0.14329300  1
  H  H7  1  0.63304600  0.51172900  0.71932700  1
  H  H8  1  0.36584600  0.49432800  0.26814500  1
  H  H9  1  0.37381900  0.25429800  0.49325800  1
  H  H10  1  0.62288000  0.75042800  0.50072200  1
  H  H11  1  0.35588200  0.89391500  0.45848000  1
  H  H12  1  0.64223700  0.11164400  0.53026100  1
  H  H13  1  0.35722700  0.75155600  0.46598600  1
  H  H14  1  0.64194800  0.25381500  0.51893200  1
  H  H15  1  0.26276300  0.59665000  0.54783200  1
  H  H16  1  0.73606900  0.40849700  0.44070400  1
  H  H17  1  0.11133800  0.58905700  0.54539900  1
  H  H18  1  0.88760900  0.41509500  0.44410400  1
  H  H19  1  0.71896900  0.60884900  0.56542800  1
  H  H20  1  0.28009200  0.39742300  0.42177100  1
  H  H21  1  0.83491100  0.68134900  0.59831400  1
  H  H22  1  0.92720200  0.67054400  0.54877200  1
  H  H23  1  0.93072900  0.54663400  0.65733400  1
  H  H24  1  0.97345800  0.71969700  0.67527600  1
  H  H25  1  0.00723700  0.63537300  0.73297400  1
  H  H26  1  0.16274300  0.33570300  0.37512300  1
  H  H27  1  0.06341600  0.38757500  0.37184600  1
  H  H28  1  0.09170100  0.31636800  0.51168800  1
  H  H29  1  0.03670000  0.23346000  0.37724600  1
  H  H30  1  0.02195700  0.20076500  0.46854500  1
  H  H31  1  0.35402700  0.04034400  0.52082000  1
  H  H32  1  0.31368000  0.11469300  0.46156900  1
  H  H33  1  0.32851400  0.17953800  0.60494800  1
  H  H34  1  0.19144800  0.07580100  0.53987900  1
  H  H35  1  0.18504700  0.14180300  0.61717100  1
  H  H36  1  0.65254400  0.94262800  0.53883200  1
  H  H37  1  0.64352700  0.95226400  0.44595800  1
  H  H38  1  0.74405700  0.82241500  0.52744200  1
  H  H39  1  0.74723300  0.89573300  0.38305600  1
  H  H40  1  0.82267700  0.82277200  0.42468800  1
  C  C1  1  0.49275100  0.65636600  0.48822700  1
  C  C2  1  0.50612800  0.34970400  0.49932600  1
  C  C3  1  0.49854200  0.50875600  0.62909500  1
  C  C4  1  0.50035000  0.49728700  0.35837800  1
  C  C5  1  0.42351800  0.50876200  0.73822800  1
  C  C6  1  0.57537100  0.49732400  0.24924300  1
  C  C7  1  0.42367100  0.50777800  0.80957700  1
  C  C8  1  0.57521700  0.49832700  0.17789400  1
  C  C9  1  0.49879200  0.50796200  0.84857600  1
  C  C10  1  0.50009600  0.49814300  0.13889600  1
  C  C11  1  0.57369600  0.50981500  0.81523400  1
  C  C12  1  0.42519200  0.49627400  0.17223800  1
  C  C13  1  0.57350900  0.51079000  0.74391800  1
  C  C14  1  0.42538100  0.49528000  0.24355400  1
  C  C15  1  0.49845100  0.50994800  0.70496100  1
  C  C16  1  0.50044000  0.49611800  0.28251100  1
  C  C17  1  0.49978000  0.50049400  0.06295600  1
  C  C18  1  0.49910600  0.50562300  0.92451600  1
  C  C19  1  0.49099900  0.74228000  0.48440000  1
  C  C20  1  0.50770100  0.26396300  0.50461300  1
  C  C21  1  0.56523600  0.78336000  0.49136100  1
  C  C22  1  0.43316600  0.22327800  0.50128300  1
  C  C23  1  0.56502100  0.86474800  0.48700300  1
  C  C24  1  0.43271400  0.14283700  0.50975000  1
  C  C25  1  0.48828400  0.90439300  0.47644400  1
  C  C26  1  0.50901900  0.10217800  0.51852200  1
  C  C27  1  0.41497400  0.86280700  0.46792600  1
  C  C28  1  0.58311000  0.14314100  0.52248000  1
  C  C29  1  0.41587400  0.78236500  0.47240500  1
  C  C30  1  0.58282000  0.22346600  0.51555300  1
  C  C31  1  0.76685700  0.45484400  0.46981900  1
  C  C32  1  0.23203000  0.55041200  0.51853500  1
  C  C33  1  0.85340000  0.45925600  0.47193400  1
  C  C34  1  0.14555700  0.54534300  0.51706100  1
  C  C35  1  0.89280900  0.51942000  0.50853400  1
  C  C36  1  0.10626800  0.48506900  0.48050400  1
  C  C37  1  0.84397500  0.57322000  0.54267900  1
  C  C38  1  0.15518000  0.43168000  0.44597800  1
  C  C39  1  0.75758900  0.56670200  0.53921500  1
  C  C40  1  0.24141300  0.43934700  0.44818400  1
  C  C41  1  0.88387800  0.63919600  0.58211400  1
  C  C42  1  0.93094800  0.60866800  0.64525600  1
  C  C43  1  0.97310700  0.65759800  0.68705300  1
  C  C44  1  0.11557300  0.36530900  0.40692100  1
  C  C45  1  0.08334500  0.30708100  0.45631700  1
  C  C46  1  0.04496500  0.24321200  0.43255400  1
  C  C47  1  0.34883500  0.10416000  0.51170100  1
  C  C48  1  0.29987100  0.13821000  0.56871700  1
  C  C49  1  0.22063500  0.11726500  0.57568500  1
  C  C50  1  0.64593300  0.90979900  0.48944200  1
  C  C51  1  0.72263500  0.85892900  0.48397900  1
  C  C52  1  0.76670700  0.85946300  0.42715900  1
  N  N1  1  0.57234700  0.50530700  0.96222700  1
  N  N2  1  0.42654000  0.50081200  0.02524600  1
  N  N3  1  0.57268400  0.50281400  0.03059400  1
  N  N4  1  0.42620200  0.50330500  0.95687800  1
  N  N5  1  0.48309100  0.98694400  0.47131400  1
  N  N6  1  0.51374200  0.01973900  0.52400800  1
  N  N7  1  0.72058700  0.50820200  0.50310500  1
  N  N8  1  0.27831100  0.49781800  0.48438800  1
  N  N9  1  0.98121200  0.52781600  0.51124200  1
  N  N10  1  0.01785900  0.47668900  0.47760500  1
  O  O1  1  0.42129000  0.61884500  0.48647800  1
  O  O2  1  0.57760900  0.38718000  0.50101200  1
  O  O3  1  0.56617500  0.62041800  0.49260500  1
  O  O4  1  0.43270100  0.38560600  0.49492000  1
  O  O5  1  0.42619400  0.50682500  0.59370700  1
  O  O6  1  0.57269900  0.49924500  0.39376400  1
  O  O7  1  0.57115300  0.50813100  0.59971500  1
  O  O8  1  0.42773700  0.49790500  0.38775800  1
