# generated using pymatgen
data_ZnH9C22N3O8
_symmetry_space_group_name_H-M   'P 1'
_cell_length_a   8.57997500
_cell_length_b   10.84054100
_cell_length_c   17.53962800
_cell_angle_alpha   90.00000000
_cell_angle_beta   90.00000000
_cell_angle_gamma   90.00000000
_symmetry_Int_Tables_number   1
_chemical_formula_structural   ZnH9C22N3O8
_chemical_formula_sum   'Zn2 H18 C44 N6 O16'
_cell_volume   1631.38835094
_cell_formula_units_Z   2
loop_
 _symmetry_equiv_pos_site_id
 _symmetry_equiv_pos_as_xyz
  1  'x, y, z'
loop_
 _atom_site_type_symbol
 _atom_site_label
 _atom_site_symmetry_multiplicity
 _atom_site_fract_x
 _atom_site_fract_y
 _atom_site_fract_z
 _atom_site_occupancy
  Zn  Zn1  1  0.49764900  0.50924000  0.08462500  1
  Zn  Zn2  1  0.49764900  0.49076000  0.91537500  1
  H  H1  1  0.46141100  0.70395500  0.19216100  1
  H  H2  1  0.46141100  0.29604500  0.80783900  1
  H  H3  1  0.52837200  0.32485800  0.18720700  1
  H  H4  1  0.52837200  0.67514200  0.81279300  1
  H  H5  1  0.45388700  0.19037700  0.54837500  1
  H  H6  1  0.45388700  0.80962300  0.45162500  1
  H  H7  1  0.54198700  0.80357700  0.55939900  1
  H  H8  1  0.54198700  0.19642300  0.44060100  1
  H  H9  1  0.61165900  0.88585700  0.00472000  1
  H  H10  1  0.36378100  0.10187600  0.04906900  1
  H  H11  1  0.35291200  0.10136900  0.94652100  1
  H  H12  1  0.71289200  0.95788100  0.08324400  1
  H  H13  1  0.61165900  0.11414300  0.99528000  1
  H  H14  1  0.36378100  0.89812400  0.95093100  1
  H  H15  1  0.35291200  0.89863100  0.05347900  1
  H  H16  1  0.71289200  0.04211900  0.91675600  1
  H  H17  1  0.99587600  0.58491400  0.97004100  1
  H  H18  1  0.99587600  0.41508600  0.02995900  1
  C  C1  1  0.99679100  0.68224600  0.98084600  1
  C  C2  1  0.99679100  0.31775400  0.01915400  1
  C  C3  1  0.85825300  0.74303300  0.99132500  1
  C  C4  1  0.13651400  0.25824400  0.00959100  1
  C  C5  1  0.85825300  0.25696700  0.00867500  1
  C  C6  1  0.13651400  0.74175600  0.99040900  1
  C  C7  1  0.86043100  0.86967500  0.00251700  1
  C  C8  1  0.13965900  0.13143200  0.00356500  1
  C  C9  1  0.86043100  0.13032500  0.99748200  1
  C  C10  1  0.13965900  0.86856800  0.99643500  1
  C  C11  1  0.71588600  0.93925500  0.02109000  1
  C  C12  1  0.29439000  0.07019200  0.99948500  1
  C  C13  1  0.71588600  0.06074500  0.97891000  1
  C  C14  1  0.29439000  0.92980800  0.00051500  1
  C  C15  1  0.48960400  0.38740800  0.53781000  1
  C  C16  1  0.48960400  0.61259200  0.46219000  1
  C  C17  1  0.50196700  0.60841700  0.54170200  1
  C  C18  1  0.50196700  0.39158300  0.45829800  1
  C  C19  1  0.00077900  0.93292100  0.99873300  1
  C  C20  1  0.00077900  0.06707900  0.00126700  1
  C  C21  1  0.51295500  0.40666300  0.22101900  1
  C  C22  1  0.51295500  0.59333700  0.77898000  1
  C  C23  1  0.48093400  0.62045200  0.22393700  1
  C  C24  1  0.48093400  0.37954800  0.77606300  1
  C  C25  1  0.49637600  0.50811700  0.34147500  1
  C  C26  1  0.49637600  0.49188300  0.65852500  1
  C  C27  1  0.50852000  0.40069600  0.29971100  1
  C  C28  1  0.50852000  0.59930400  0.70028900  1
  C  C29  1  0.48528600  0.61937100  0.30312900  1
  C  C30  1  0.48528600  0.38062900  0.69687100  1
  C  C31  1  0.52354500  0.28904300  0.33704500  1
  C  C32  1  0.52354500  0.71095700  0.66295500  1
  C  C33  1  0.47216600  0.72740300  0.34450400  1
  C  C34  1  0.47216600  0.27259700  0.65549600  1
  C  C35  1  0.49575600  0.49590500  0.57922400  1
  C  C36  1  0.49575600  0.50409500  0.42077600  1
  C  C37  1  0.47107000  0.27677200  0.57701300  1
  C  C38  1  0.47107000  0.72322800  0.42298700  1
  C  C39  1  0.52293200  0.71470000  0.58467300  1
  C  C40  1  0.52293200  0.28530000  0.41532700  1
  C  C41  1  0.71686700  0.33293600  0.00492700  1
  C  C42  1  0.27809000  0.66653600  0.99472600  1
  C  C43  1  0.71686700  0.66706400  0.99507300  1
  C  C44  1  0.27809000  0.33346300  0.00527400  1
  N  N1  1  0.49770600  0.51503000  0.18461900  1
  N  N2  1  0.49770600  0.48497000  0.81538100  1
  N  N3  1  0.54028900  0.17606700  0.29617500  1
  N  N4  1  0.54028900  0.82393300  0.70382500  1
  N  N5  1  0.46431200  0.84465200  0.30763800  1
  N  N6  1  0.46431200  0.15534800  0.69236200  1
  O  O1  1  0.66276800  0.36390400  0.93752500  1
  O  O2  1  0.33153700  0.63533300  0.06239000  1
  O  O3  1  0.33051800  0.61822000  0.93127100  1
  O  O4  1  0.66570000  0.38244700  0.06845900  1
  O  O5  1  0.66276800  0.63609600  0.06247500  1
  O  O6  1  0.33153700  0.36466700  0.93761000  1
  O  O7  1  0.33051800  0.38178000  0.06872900  1
  O  O8  1  0.66570000  0.61755300  0.93154100  1
  O  O9  1  0.63437400  0.09225600  0.32249900  1
  O  O10  1  0.43469200  0.14430200  0.24672600  1
  O  O11  1  0.63437400  0.90774400  0.67750100  1
  O  O12  1  0.43469200  0.85569800  0.75327400  1
  O  O13  1  0.38296400  0.93259300  0.33860100  1
  O  O14  1  0.56742100  0.87280200  0.25614900  1
  O  O15  1  0.38296400  0.06740700  0.66139900  1
  O  O16  1  0.56742100  0.12719800  0.74385100  1
