# generated using pymatgen
data_ZnH12C21NO5
_symmetry_space_group_name_H-M   'P 1'
_cell_length_a   11.90312600
_cell_length_b   13.09203700
_cell_length_c   14.53538500
_cell_angle_alpha   89.99130400
_cell_angle_beta   85.54468000
_cell_angle_gamma   91.19255400
_symmetry_Int_Tables_number   1
_chemical_formula_structural   ZnH12C21NO5
_chemical_formula_sum   'Zn2 H24 C42 N2 O10'
_cell_volume   2257.80119778
_cell_formula_units_Z   2
loop_
 _symmetry_equiv_pos_site_id
 _symmetry_equiv_pos_as_xyz
  1  'x, y, z'
loop_
 _atom_site_type_symbol
 _atom_site_label
 _atom_site_symmetry_multiplicity
 _atom_site_fract_x
 _atom_site_fract_y
 _atom_site_fract_z
 _atom_site_occupancy
  Zn  Zn1  1  0.37034700  0.51002100  0.52895300  1
  Zn  Zn2  1  0.62598600  0.49295500  0.51382100  1
  H  H1  1  0.64109600  0.16966600  0.50638900  1
  H  H2  1  0.35626900  0.83404300  0.53770700  1
  H  H3  1  0.28405800  0.18645800  0.52613700  1
  H  H4  1  0.71185000  0.81565400  0.49636100  1
  H  H5  1  0.18369500  0.42398400  0.42566900  1
  H  H6  1  0.81245900  0.57833000  0.61775200  1
  H  H7  1  0.20048400  0.61916100  0.65411500  1
  H  H8  1  0.79601800  0.38501000  0.38801100  1
  H  H9  1  0.00214700  0.37651500  0.37119100  1
  H  H10  1  0.99424700  0.62796800  0.67105400  1
  H  H11  1  0.78397000  0.05863700  0.61832400  1
  H  H12  1  0.96320400  0.14853600  0.57461200  1
  H  H13  1  0.18956500  0.22003800  0.32506100  1
  H  H14  1  0.05421500  0.21381800  0.27759100  1
  H  H15  1  0.13183900  0.09768000  0.29406100  1
  H  H16  1  0.93301000  0.06350700  0.29285800  1
  H  H17  1  0.75578600  0.97680100  0.33737600  1
  H  H18  1  0.18232500  0.99905200  0.65562600  1
  H  H19  1  0.01313200  0.89218600  0.63847600  1
  H  H20  1  0.85830100  0.70520000  0.42427500  1
  H  H21  1  0.00586700  0.70168700  0.38725700  1
  H  H22  1  0.92084500  0.80815700  0.35465500  1
  H  H23  1  0.11451400  0.85635200  0.35105900  1
  H  H24  1  0.28015700  0.96102500  0.36986800  1
  C  C1  1  0.51985200  0.70110600  0.52086100  1
  C  C2  1  0.47654600  0.30186500  0.52145400  1
  C  C3  1  0.49671500  0.50044000  0.70126800  1
  C  C4  1  0.49961800  0.50253900  0.34151400  1
  C  C5  1  0.49639900  0.50051500  0.80001400  1
  C  C6  1  0.49993500  0.50246600  0.24276800  1
  C  C7  1  0.49679000  0.50079200  0.88289000  1
  C  C8  1  0.49954800  0.50219000  0.15989200  1
  C  C9  1  0.49771700  0.50126800  0.97997000  1
  C  C10  1  0.49862500  0.50171400  0.06281100  1
  C  C11  1  0.46491000  0.18977800  0.52094800  1
  C  C12  1  0.53185100  0.81316000  0.51880300  1
  C  C13  1  0.64723700  0.96554800  0.50368600  1
  C  C14  1  0.35052900  0.03694800  0.52436100  1
  C  C15  1  0.63673100  0.86031800  0.50567900  1
  C  C16  1  0.35979000  0.14223400  0.52512200  1
  C  C17  1  0.43724900  0.87225600  0.52690700  1
  C  C18  1  0.56017000  0.13106900  0.51298000  1
  C  C19  1  0.44637100  0.97808500  0.52246300  1
  C  C20  1  0.55171100  0.02514100  0.51404600  1
  C  C21  1  0.96159500  0.42065100  0.42656500  1
  C  C22  1  0.03473200  0.58273900  0.61630400  1
  C  C23  1  0.84552500  0.42555200  0.43606700  1
  C  C24  1  0.15086200  0.57796800  0.60655000  1
  C  C25  1  0.85487500  0.53294900  0.56408200  1
  C  C26  1  0.14134800  0.46946800  0.47930700  1
  C  C27  1  0.97123800  0.52951400  0.55621500  1
  C  C28  1  0.02501500  0.47305100  0.48719400  1
  C  C29  1  0.75882300  0.01182400  0.48049100  1
  C  C30  1  0.81780500  0.05915500  0.54711700  1
  C  C31  1  0.91811000  0.11024100  0.52235900  1
  C  C32  1  0.96128200  0.11324800  0.43138800  1
  C  C33  1  0.11055800  0.17405500  0.32256500  1
  C  C34  1  0.90288600  0.06364700  0.36486900  1
  C  C35  1  0.80218500  0.01337300  0.38976600  1
  C  C36  1  0.24091400  0.98796900  0.51339400  1
  C  C37  1  0.16534300  0.96950700  0.58855000  1
  C  C38  1  0.07095800  0.90849800  0.57898000  1
  C  C39  1  0.05129100  0.86584300  0.49457000  1
  C  C40  1  0.93579800  0.75272600  0.40988800  1
  C  C41  1  0.12595700  0.88719700  0.41865700  1
  C  C42  1  0.22007100  0.94783100  0.42854000  1
  N  N1  1  0.20244100  0.52163200  0.53876400  1
  N  N2  1  0.79388100  0.48134200  0.50416100  1
  O  O1  1  0.41787300  0.65961800  0.52673000  1
  O  O2  1  0.57846700  0.34337900  0.51595100  1
  O  O3  1  0.61160000  0.64688000  0.51536800  1
  O  O4  1  0.38474200  0.35607700  0.52720900  1
  O  O5  1  0.40001800  0.50693900  0.66430400  1
  O  O6  1  0.59638600  0.49599000  0.37845000  1
  O  O7  1  0.59391900  0.49440100  0.65274600  1
  O  O8  1  0.40234100  0.50863600  0.39001700  1
  O  O9  1  0.05959700  0.16453300  0.41033500  1
  O  O10  1  0.96014700  0.80360700  0.48885000  1
