# generated using pymatgen
data_FeH16C33N2O8F
_symmetry_space_group_name_H-M   'P 1'
_cell_length_a   15.77376100
_cell_length_b   16.08117300
_cell_length_c   21.93160900
_cell_angle_alpha   86.82004900
_cell_angle_beta   104.97444700
_cell_angle_gamma   65.67596800
_symmetry_Int_Tables_number   1
_chemical_formula_structural   FeH16C33N2O8F
_chemical_formula_sum   'Fe2 H32 C66 N4 O16 F2'
_cell_volume   4813.65572549
_cell_formula_units_Z   2
loop_
 _symmetry_equiv_pos_site_id
 _symmetry_equiv_pos_as_xyz
  1  'x, y, z'
loop_
 _atom_site_type_symbol
 _atom_site_label
 _atom_site_symmetry_multiplicity
 _atom_site_fract_x
 _atom_site_fract_y
 _atom_site_fract_z
 _atom_site_occupancy
  Fe  Fe1  1  0.50865600  0.96581700  0.88987200  1
  Fe  Fe2  1  0.49622200  0.02830800  0.11289300  1
  H  H1  1  0.81933500  0.00392100  0.16614300  1
  H  H2  1  0.84150600  0.97679800  0.94829400  1
  H  H3  1  0.99955100  0.07181700  0.04778200  1
  H  H4  1  0.99554100  0.94195000  0.95174800  1
  H  H5  1  0.04613700  0.98796500  0.86496600  1
  H  H6  1  0.17616100  0.00517800  0.83332900  1
  H  H7  1  0.56601400  0.77746800  0.47157100  1
  H  H8  1  0.51758500  0.52659000  0.74208500  1
  H  H9  1  0.52453900  0.36320200  0.73333700  1
  H  H10  1  0.42751300  0.22421200  0.52919700  1
  H  H11  1  0.41921500  0.25098900  0.40757500  1
  H  H12  1  0.48738900  0.46755800  0.26016400  1
  H  H13  1  0.48318400  0.63009500  0.26922900  1
  H  H14  1  0.57238900  0.75151100  0.59274800  1
  H  H15  1  0.55042000  0.40991400  0.50511200  1
  H  H16  1  0.45191300  0.58446700  0.49630600  1
  H  H17  1  0.34947900  0.83606500  0.35169900  1
  H  H18  1  0.62741300  0.78299100  0.27073600  1
  H  H19  1  0.63765400  0.66254600  0.34908700  1
  H  H20  1  0.65307400  0.60587300  0.72639300  1
  H  H21  1  0.64002200  0.70991400  0.80459000  1
  H  H22  1  0.33368500  0.86455500  0.70473900  1
  H  H23  1  0.34855600  0.76074600  0.62758300  1
  H  H24  1  0.65121200  0.23894900  0.37228800  1
  H  H25  1  0.66689400  0.13547900  0.29502400  1
  H  H26  1  0.35908200  0.28427900  0.19787200  1
  H  H27  1  0.34523500  0.38840800  0.27614600  1
  H  H28  1  0.64804600  0.15624600  0.64296500  1
  H  H29  1  0.38056300  0.21232200  0.73532700  1
  H  H30  1  0.36922700  0.33468100  0.65824300  1
  H  H31  1  0.33823500  0.95760800  0.27440900  1
  H  H32  1  0.65982300  0.03242000  0.71867700  1
  C  C1  1  0.82490400  0.99661600  0.11843600  1
  C  C2  1  0.89671000  0.01005300  0.10107000  1
  C  C3  1  0.90423200  0.00249000  0.04013900  1
  C  C4  1  0.83895600  0.98008100  0.99682300  1
  C  C5  1  0.76431200  0.96936000  0.01336000  1
  C  C6  1  0.75701500  0.97890600  0.07476500  1
  C  C7  1  0.97828200  0.02412000  0.02270100  1
  C  C8  1  0.01886900  0.98774200  0.97802600  1
  C  C9  1  0.09913200  0.00206600  0.89936800  1
  C  C10  1  0.17227400  0.01206700  0.88140900  1
  C  C11  1  0.24331800  0.02586300  0.92509600  1
  C  C12  1  0.23791000  0.03494300  0.98679700  1
  C  C13  1  0.16362900  0.02543700  0.00465600  1
  C  C14  1  0.09413100  0.00788200  0.96094300  1
  C  C15  1  0.53363600  0.04441500  0.78366800  1
  C  C16  1  0.32400300  0.02781900  0.90486000  1
  C  C17  1  0.69420300  0.94955200  0.96484300  1
  C  C18  1  0.47673200  0.85950000  0.80426100  1
  C  C19  1  0.52411600  0.13733300  0.19699200  1
  C  C20  1  0.31022900  0.05333000  0.03417900  1
  C  C21  1  0.67830500  0.97292000  0.09537600  1
  C  C22  1  0.47020300  0.94639300  0.21493500  1
  C  C23  1  0.51491000  0.49721000  0.69888500  1
  C  C24  1  0.51868600  0.41119700  0.69421400  1
  C  C25  1  0.51232600  0.40121400  0.63117500  1
  C  C26  1  0.50950900  0.53496400  0.63911100  1
  C  C27  1  0.50749200  0.32874300  0.60617300  1
  C  C28  1  0.49224400  0.32336400  0.53771600  1
  C  C29  1  0.45236400  0.26860200  0.50795000  1
  C  C30  1  0.44796800  0.28254500  0.44462500  1
  C  C31  1  0.48495700  0.34555400  0.43799500  1
  C  C32  1  0.49151000  0.37942600  0.37654500  1
  C  C33  1  0.49153600  0.46107400  0.36238800  1
  C  C34  1  0.48903000  0.49754000  0.30311800  1
  C  C35  1  0.48659100  0.58307800  0.30795500  1
  C  C36  1  0.49042400  0.59411700  0.37057100  1
  C  C37  1  0.49444400  0.66695900  0.39538700  1
  C  C38  1  0.50631400  0.67437200  0.46339200  1
  C  C39  1  0.54250400  0.73181900  0.49279900  1
  C  C40  1  0.54585100  0.71834100  0.55593700  1
  C  C41  1  0.51185800  0.65299000  0.56284700  1
  C  C42  1  0.50717600  0.61766500  0.62460200  1
  C  C43  1  0.41092900  0.82532600  0.33455000  1
  C  C44  1  0.40492000  0.89357900  0.29082500  1
  C  C45  1  0.48162700  0.87801300  0.26655600  1
  C  C46  1  0.56639700  0.79591500  0.28879100  1
  C  C47  1  0.57241400  0.72793300  0.33293200  1
  C  C48  1  0.49328300  0.74165300  0.35400100  1
  C  C49  1  0.58306100  0.66255200  0.72225400  1
  C  C50  1  0.57543600  0.72111600  0.76621200  1
  C  C51  1  0.48591500  0.79398200  0.76027300  1
  C  C52  1  0.40433500  0.80775300  0.71055400  1
  C  C53  1  0.41229500  0.74954200  0.66675000  1
  C  C54  1  0.50125900  0.67704200  0.67260500  1
  C  C55  1  0.58726500  0.24894600  0.33374400  1
  C  C56  1  0.59567600  0.19090300  0.28985000  1
  C  C57  1  0.51394800  0.20303800  0.24087800  1
  C  C58  1  0.42375400  0.27429600  0.23570100  1
  C  C59  1  0.41567900  0.33284500  0.27971900  1
  C  C60  1  0.49764300  0.31974200  0.32873600  1
  C  C61  1  0.58884400  0.16774900  0.66267600  1
  C  C62  1  0.59513500  0.09814900  0.70543500  1
  C  C63  1  0.52161100  0.11447900  0.73298900  1
  C  C64  1  0.43934200  0.19882700  0.71488200  1
  C  C65  1  0.43274200  0.26794300  0.67147100  1
  C  C66  1  0.50926100  0.25340000  0.64735700  1
  N  N1  1  0.50787500  0.47643500  0.59781600  1
  N  N2  1  0.51338900  0.36924800  0.49508500  1
  N  N3  1  0.49247400  0.51991100  0.40352300  1
  N  N4  1  0.48621300  0.62742100  0.50606100  1
  O  O1  1  0.47189700  0.06537300  0.81717500  1
  O  O2  1  0.30520800  0.08830400  0.85468300  1
  O  O3  1  0.61030600  0.96358500  0.79855900  1
  O  O4  1  0.41231400  0.95930600  0.93020300  1
  O  O5  1  0.60263000  0.98159700  0.96422500  1
  O  O6  1  0.72210800  0.90504900  0.91999600  1
  O  O7  1  0.55334900  0.85279000  0.84963800  1
  O  O8  1  0.39179200  0.93071600  0.79506200  1
  O  O9  1  0.44796100  0.14178500  0.15230400  1
  O  O10  1  0.61016300  0.06811800  0.20549300  1
  O  O11  1  0.40371500  0.00754600  0.04038000  1
  O  O12  1  0.28152000  0.11226400  0.07200100  1
  O  O13  1  0.38788900  0.02230200  0.19318200  1
  O  O14  1  0.58867000  0.03920900  0.07045300  1
  O  O15  1  0.53843100  0.92879100  0.18695500  1
  O  O16  1  0.69988500  0.91171900  0.14588800  1
  F  F1  1  0.96004600  0.03094800  0.14445400  1
  F  F2  1  0.16669600  0.02350600  0.06705800  1
