# generated using pymatgen
data_Cu3H24(C19O10)2
_symmetry_space_group_name_H-M   'P 1'
_cell_length_a   21.47452000
_cell_length_b   21.47452000
_cell_length_c   30.07641100
_cell_angle_alpha   90.00000000
_cell_angle_beta   90.00000000
_cell_angle_gamma   90.00000000
_symmetry_Int_Tables_number   1
_chemical_formula_structural   Cu3H24(C19O10)2
_chemical_formula_sum   'Cu12 H96 C152 O80'
_cell_volume   13869.88759232
_cell_formula_units_Z   4
loop_
 _symmetry_equiv_pos_site_id
 _symmetry_equiv_pos_as_xyz
  1  'x, y, z'
loop_
 _atom_site_type_symbol
 _atom_site_label
 _atom_site_symmetry_multiplicity
 _atom_site_fract_x
 _atom_site_fract_y
 _atom_site_fract_z
 _atom_site_occupancy
  Cu  Cu1  1  0.00000000  0.43882600  0.50000000  1
  Cu  Cu2  1  0.43882600  0.00000000  0.50000000  1
  Cu  Cu3  1  0.00000000  0.56117400  0.50000000  1
  Cu  Cu4  1  0.56117400  0.00000000  0.50000000  1
  Cu  Cu5  1  0.50000000  0.93882600  0.00000000  1
  Cu  Cu6  1  0.93882600  0.50000000  0.00000000  1
  Cu  Cu7  1  0.50000000  0.06117400  0.00000000  1
  Cu  Cu8  1  0.06117400  0.50000000  0.00000000  1
  Cu  Cu9  1  0.50000000  0.50000000  0.54317900  1
  Cu  Cu10  1  0.50000000  0.50000000  0.45682100  1
  Cu  Cu11  1  0.00000000  0.00000000  0.04317900  1
  Cu  Cu12  1  0.00000000  0.00000000  0.95682100  1
  H  H1  1  0.09209200  0.53592800  0.27930600  1
  H  H2  1  0.53592800  0.90790800  0.27930600  1
  H  H3  1  0.90790900  0.46407100  0.27930600  1
  H  H4  1  0.46407200  0.09209100  0.27930600  1
  H  H5  1  0.09209200  0.46407100  0.72069400  1
  H  H6  1  0.53592900  0.09209100  0.72069400  1
  H  H7  1  0.90790900  0.53592800  0.72069400  1
  H  H8  1  0.46407100  0.90790900  0.72069400  1
  H  H9  1  0.59209200  0.03592800  0.77930600  1
  H  H10  1  0.03592800  0.40790800  0.77930600  1
  H  H11  1  0.40790800  0.96407200  0.77930600  1
  H  H12  1  0.96407200  0.59209100  0.77930600  1
  H  H13  1  0.59209200  0.96407100  0.22069400  1
  H  H14  1  0.03592900  0.59209100  0.22069400  1
  H  H15  1  0.40790900  0.03592800  0.22069400  1
  H  H16  1  0.96407200  0.40790800  0.22069400  1
  H  H17  1  0.19344400  0.59128300  0.52798600  1
  H  H18  1  0.59128400  0.80655600  0.52798600  1
  H  H19  1  0.80655700  0.40871600  0.52798600  1
  H  H20  1  0.40871700  0.19344300  0.52798600  1
  H  H21  1  0.19344400  0.40871600  0.47201400  1
  H  H22  1  0.59128400  0.19344300  0.47201400  1
  H  H23  1  0.80655700  0.59128300  0.47201400  1
  H  H24  1  0.40871700  0.80655600  0.47201400  1
  H  H25  1  0.69344400  0.09128300  0.02798600  1
  H  H26  1  0.09128400  0.30655600  0.02798600  1
  H  H27  1  0.30655700  0.90871600  0.02798600  1
  H  H28  1  0.90871700  0.69344300  0.02798600  1
  H  H29  1  0.69344400  0.90871600  0.97201400  1
  H  H30  1  0.09128400  0.69344300  0.97201400  1
  H  H31  1  0.30655700  0.09128300  0.97201400  1
  H  H32  1  0.90871700  0.30655600  0.97201400  1
  H  H33  1  0.30747900  0.59033500  0.52944000  1
  H  H34  1  0.59033500  0.69252100  0.52944000  1
  H  H35  1  0.69252100  0.40966500  0.52944000  1
  H  H36  1  0.40966500  0.30747900  0.52944000  1
  H  H37  1  0.30747900  0.40966500  0.47056000  1
  H  H38  1  0.59033500  0.30747900  0.47056000  1
  H  H39  1  0.69252100  0.59033500  0.47056000  1
  H  H40  1  0.40966500  0.69252100  0.47056000  1
  H  H41  1  0.80747900  0.09033500  0.02944000  1
  H  H42  1  0.09033500  0.19252100  0.02944000  1
  H  H43  1  0.19252100  0.90966500  0.02944000  1
  H  H44  1  0.90966500  0.80747900  0.02944000  1
  H  H45  1  0.80747900  0.90966500  0.97056000  1
  H  H46  1  0.09033500  0.80747900  0.97056000  1
  H  H47  1  0.19252100  0.09033500  0.97056000  1
  H  H48  1  0.90966500  0.19252100  0.97056000  1
  H  H49  1  0.22848100  0.63020600  0.34472300  1
  H  H50  1  0.23427600  0.55347200  0.36898500  1
  H  H51  1  0.19558600  0.61574600  0.39905700  1
  H  H52  1  0.63020600  0.77151900  0.34472300  1
  H  H53  1  0.55347200  0.76572400  0.36898500  1
  H  H54  1  0.61574700  0.80441400  0.39905700  1
  H  H55  1  0.77151900  0.36979300  0.34472300  1
  H  H56  1  0.76572400  0.44652700  0.36898500  1
  H  H57  1  0.80441500  0.38425300  0.39905700  1
  H  H58  1  0.36979400  0.22848100  0.34472300  1
  H  H59  1  0.44652800  0.23427600  0.36898500  1
  H  H60  1  0.38425400  0.19558500  0.39905700  1
  H  H61  1  0.22848100  0.36979300  0.65527700  1
  H  H62  1  0.23427600  0.44652700  0.63101500  1
  H  H63  1  0.19558600  0.38425300  0.60094300  1
  H  H64  1  0.63020800  0.22848000  0.65527700  1
  H  H65  1  0.55347400  0.23427600  0.63101500  1
  H  H66  1  0.61574700  0.19558500  0.60094300  1
  H  H67  1  0.77151900  0.63020600  0.65527700  1
  H  H68  1  0.76572400  0.55347200  0.63101500  1
  H  H69  1  0.80441500  0.61574600  0.60094300  1
  H  H70  1  0.36979300  0.77152000  0.65527700  1
  H  H71  1  0.44652700  0.76572400  0.63101500  1
  H  H72  1  0.38425300  0.80441500  0.60094300  1
  H  H73  1  0.72848100  0.13020500  0.84472300  1
  H  H74  1  0.73427700  0.05347100  0.86898500  1
  H  H75  1  0.69558600  0.11574600  0.89905700  1
  H  H76  1  0.13020700  0.27151900  0.84472300  1
  H  H77  1  0.05347300  0.26572400  0.86898500  1
  H  H78  1  0.11574700  0.30441500  0.89905700  1
  H  H79  1  0.27151900  0.86979400  0.84472300  1
  H  H80  1  0.26572400  0.94652800  0.86898500  1
  H  H81  1  0.30441400  0.88425400  0.89905700  1
  H  H82  1  0.86979400  0.72848100  0.84472300  1
  H  H83  1  0.94652800  0.73427600  0.86898500  1
  H  H84  1  0.88425400  0.69558500  0.89905700  1
  H  H85  1  0.72848100  0.86979300  0.15527700  1
  H  H86  1  0.73427600  0.94652700  0.13101500  1
  H  H87  1  0.69558500  0.88425300  0.10094300  1
  H  H88  1  0.13020700  0.72848100  0.15527700  1
  H  H89  1  0.05347300  0.73427600  0.13101500  1
  H  H90  1  0.11574700  0.69558500  0.10094300  1
  H  H91  1  0.27152000  0.13020700  0.15527700  1
  H  H92  1  0.26572400  0.05347300  0.13101500  1
  H  H93  1  0.30441500  0.11574700  0.10094300  1
  H  H94  1  0.86979400  0.27151900  0.15527700  1
  H  H95  1  0.94652800  0.26572400  0.13101500  1
  H  H96  1  0.88425400  0.30441500  0.10094300  1
  C  C1  1  0.11825100  0.50000000  0.50000000  1
  C  C2  1  0.50000000  0.88174900  0.50000000  1
  C  C3  1  0.88174900  0.50000000  0.50000000  1
  C  C4  1  0.50000000  0.11825100  0.50000000  1
  C  C5  1  0.61825100  0.00000000  0.00000000  1
  C  C6  1  0.00000000  0.38174900  0.00000000  1
  C  C7  1  0.38174900  0.00000000  0.00000000  1
  C  C8  1  0.00000000  0.61825100  0.00000000  1
  C  C9  1  0.28249500  0.55047900  0.51664400  1
  C  C10  1  0.55047900  0.71750500  0.51664400  1
  C  C11  1  0.71750600  0.44952100  0.51664400  1
  C  C12  1  0.44952100  0.28249400  0.51664400  1
  C  C13  1  0.28249500  0.44952100  0.48335600  1
  C  C14  1  0.55047900  0.28249400  0.48335600  1
  C  C15  1  0.71750600  0.55047900  0.48335600  1
  C  C16  1  0.44952100  0.71750500  0.48335600  1
  C  C17  1  0.78249500  0.05047900  0.01664400  1
  C  C18  1  0.05047900  0.21750500  0.01664400  1
  C  C19  1  0.21750600  0.94952100  0.01664400  1
  C  C20  1  0.94952100  0.78249500  0.01664400  1
  C  C21  1  0.78249500  0.94952100  0.98335600  1
  C  C22  1  0.05047900  0.78249500  0.98335600  1
  C  C23  1  0.21750600  0.05047900  0.98335600  1
  C  C24  1  0.94952100  0.21750500  0.98335600  1
  C  C25  1  0.00000000  0.50000000  0.41547200  1
  C  C26  1  0.50000000  0.00000000  0.41547200  1
  C  C27  1  0.00000000  0.50000000  0.58452800  1
  C  C28  1  0.50000000  0.00000000  0.58452800  1
  C  C29  1  0.50000000  0.00000000  0.91547200  1
  C  C30  1  0.00000000  0.50000000  0.91547200  1
  C  C31  1  0.50000000  0.00000000  0.08452800  1
  C  C32  1  0.00000000  0.50000000  0.08452800  1
  C  C33  1  0.18618300  0.50000000  0.50000000  1
  C  C34  1  0.50000000  0.81381700  0.50000000  1
  C  C35  1  0.81381700  0.50000000  0.50000000  1
  C  C36  1  0.50000000  0.18618300  0.50000000  1
  C  C37  1  0.68618300  0.00000000  0.00000000  1
  C  C38  1  0.00000000  0.31381700  0.00000000  1
  C  C39  1  0.31381700  0.00000000  0.00000000  1
  C  C40  1  0.00000000  0.68618300  0.00000000  1
  C  C41  1  0.21834400  0.55120200  0.51548700  1
  C  C42  1  0.55120200  0.78165600  0.51548700  1
  C  C43  1  0.78165600  0.44879800  0.51548700  1
  C  C44  1  0.44879800  0.21834400  0.51548700  1
  C  C45  1  0.21834400  0.44879800  0.48451300  1
  C  C46  1  0.55120200  0.21834400  0.48451300  1
  C  C47  1  0.78165600  0.55120200  0.48451300  1
  C  C48  1  0.44879800  0.78165600  0.48451300  1
  C  C49  1  0.71834400  0.05120200  0.01548700  1
  C  C50  1  0.05120200  0.28165600  0.01548700  1
  C  C51  1  0.28165600  0.94879800  0.01548700  1
  C  C52  1  0.94879800  0.71834400  0.01548700  1
  C  C53  1  0.71834400  0.94879800  0.98451300  1
  C  C54  1  0.05120200  0.71834400  0.98451300  1
  C  C55  1  0.28165600  0.05120200  0.98451300  1
  C  C56  1  0.94879800  0.28165600  0.98451300  1
  C  C57  1  0.05118900  0.52125100  0.29740200  1
  C  C58  1  0.52125100  0.94881100  0.29740200  1
  C  C59  1  0.94881100  0.47874900  0.29740200  1
  C  C60  1  0.47874900  0.05118900  0.29740200  1
  C  C61  1  0.05118900  0.47874900  0.70259800  1
  C  C62  1  0.52125100  0.05118900  0.70259800  1
  C  C63  1  0.94881100  0.52125100  0.70259800  1
  C  C64  1  0.47874900  0.94881100  0.70259800  1
  C  C65  1  0.55118900  0.02125100  0.79740200  1
  C  C66  1  0.02125100  0.44881100  0.79740200  1
  C  C67  1  0.44881100  0.97874900  0.79740200  1
  C  C68  1  0.97874900  0.55118900  0.79740200  1
  C  C69  1  0.55118900  0.97874900  0.20259800  1
  C  C70  1  0.02125100  0.55118900  0.20259800  1
  C  C71  1  0.44881100  0.02125100  0.20259800  1
  C  C72  1  0.97874900  0.44881100  0.20259800  1
  C  C73  1  0.05239900  0.51967500  0.34327300  1
  C  C74  1  0.51967600  0.94760100  0.34327300  1
  C  C75  1  0.94760100  0.48032400  0.34327300  1
  C  C76  1  0.48032500  0.05239900  0.34327300  1
  C  C77  1  0.05239900  0.48032400  0.65672700  1
  C  C78  1  0.51967600  0.05239900  0.65672700  1
  C  C79  1  0.94760100  0.51967500  0.65672700  1
  C  C80  1  0.48032400  0.94760100  0.65672700  1
  C  C81  1  0.55239900  0.01967500  0.84327300  1
  C  C82  1  0.01967600  0.44760100  0.84327300  1
  C  C83  1  0.44760100  0.98032500  0.84327300  1
  C  C84  1  0.98032400  0.55239900  0.84327300  1
  C  C85  1  0.55239900  0.98032400  0.15672700  1
  C  C86  1  0.01967600  0.55239900  0.15672700  1
  C  C87  1  0.44760100  0.01967600  0.15672700  1
  C  C88  1  0.98032500  0.44760100  0.15672700  1
  C  C89  1  0.00000000  0.50000000  0.36667200  1
  C  C90  1  0.50000000  0.00000000  0.36667200  1
  C  C91  1  0.00000000  0.50000000  0.63332800  1
  C  C92  1  0.50000000  0.00000000  0.63332800  1
  C  C93  1  0.50000000  0.00000000  0.86667200  1
  C  C94  1  0.00000000  0.50000000  0.86667200  1
  C  C95  1  0.50000000  0.00000000  0.13332800  1
  C  C96  1  0.00000000  0.50000000  0.13332800  1
  C  C97  1  0.00000000  0.50000000  0.27436000  1
  C  C98  1  0.50000000  0.00000000  0.27436000  1
  C  C99  1  0.00000000  0.50000000  0.72564000  1
  C  C100  1  0.50000000  0.00000000  0.72564000  1
  C  C101  1  0.50000000  0.00000000  0.77436000  1
  C  C102  1  0.00000000  0.50000000  0.77436000  1
  C  C103  1  0.50000000  0.00000000  0.22564000  1
  C  C104  1  0.00000000  0.50000000  0.22564000  1
  C  C105  1  0.50000000  0.38250900  0.50000000  1
  C  C106  1  0.38250900  0.50000000  0.50000000  1
  C  C107  1  0.50000000  0.61749100  0.50000000  1
  C  C108  1  0.61749100  0.50000000  0.50000000  1
  C  C109  1  0.00000000  0.88250900  0.00000000  1
  C  C110  1  0.88250900  0.00000000  0.00000000  1
  C  C111  1  0.00000000  0.11749100  0.00000000  1
  C  C112  1  0.11749100  0.00000000  0.00000000  1
  C  C113  1  0.31462600  0.50000000  0.50000000  1
  C  C114  1  0.50000000  0.68537400  0.50000000  1
  C  C115  1  0.68537400  0.50000000  0.50000000  1
  C  C116  1  0.50000000  0.31462600  0.50000000  1
  C  C117  1  0.81462600  0.00000000  0.00000000  1
  C  C118  1  0.00000000  0.18537400  0.00000000  1
  C  C119  1  0.18537400  0.00000000  0.00000000  1
  C  C120  1  0.00000000  0.81462600  0.00000000  1
  C  C121  1  0.11049900  0.53791600  0.36567300  1
  C  C122  1  0.20433400  0.59533400  0.36574500  1
  C  C123  1  0.53791600  0.88950100  0.36567300  1
  C  C124  1  0.59533400  0.79566600  0.36574500  1
  C  C125  1  0.88950100  0.46208400  0.36567300  1
  C  C126  1  0.79566700  0.40466600  0.36574500  1
  C  C127  1  0.46208400  0.11049900  0.36567300  1
  C  C128  1  0.40466700  0.20433400  0.36574500  1
  C  C129  1  0.11049900  0.46208400  0.63432700  1
  C  C130  1  0.20433400  0.40466600  0.63425500  1
  C  C131  1  0.53791600  0.11049900  0.63432700  1
  C  C132  1  0.59533500  0.20433300  0.63425500  1
  C  C133  1  0.88950100  0.53791600  0.63432700  1
  C  C134  1  0.79566700  0.59533400  0.63425500  1
  C  C135  1  0.46208400  0.88950100  0.63432700  1
  C  C136  1  0.40466500  0.79566700  0.63425500  1
  C  C137  1  0.61049900  0.03791500  0.86567300  1
  C  C138  1  0.70433400  0.09533300  0.86574500  1
  C  C139  1  0.03791600  0.38950100  0.86567300  1
  C  C140  1  0.09533400  0.29566600  0.86574500  1
  C  C141  1  0.38950100  0.96208500  0.86567300  1
  C  C142  1  0.29566600  0.90466700  0.86574500  1
  C  C143  1  0.96208400  0.61049900  0.86567300  1
  C  C144  1  0.90466600  0.70433400  0.86574500  1
  C  C145  1  0.61049900  0.96208400  0.13432700  1
  C  C146  1  0.70433400  0.90466600  0.13425500  1
  C  C147  1  0.03791600  0.61049900  0.13432700  1
  C  C148  1  0.09533400  0.70433400  0.13425500  1
  C  C149  1  0.38950100  0.03791600  0.13432700  1
  C  C150  1  0.29566700  0.09533400  0.13425500  1
  C  C151  1  0.96208400  0.38950100  0.13432700  1
  C  C152  1  0.90466600  0.29566600  0.13425500  1
  O  O1  1  0.08918700  0.44809900  0.51083800  1
  O  O2  1  0.44810000  0.91081300  0.51083800  1
  O  O3  1  0.91081300  0.55190000  0.51083800  1
  O  O4  1  0.55190100  0.08918700  0.51083800  1
  O  O5  1  0.08918700  0.55190000  0.48916200  1
  O  O6  1  0.44810000  0.08918700  0.48916200  1
  O  O7  1  0.91081300  0.44809900  0.48916200  1
  O  O8  1  0.55190100  0.91081300  0.48916200  1
  O  O9  1  0.58918700  0.94809900  0.01083800  1
  O  O10  1  0.94810000  0.41081300  0.01083800  1
  O  O11  1  0.41081300  0.05190000  0.01083800  1
  O  O12  1  0.05190100  0.58918700  0.01083800  1
  O  O13  1  0.58918700  0.05190000  0.98916200  1
  O  O14  1  0.94810000  0.58918700  0.98916200  1
  O  O15  1  0.41081300  0.94809900  0.98916200  1
  O  O16  1  0.05190100  0.41081300  0.98916200  1
  O  O17  1  0.01520000  0.44812100  0.43632600  1
  O  O18  1  0.44812100  0.98480000  0.43632600  1
  O  O19  1  0.98480000  0.55187900  0.43632600  1
  O  O20  1  0.55187900  0.01519900  0.43632600  1
  O  O21  1  0.01520000  0.55187900  0.56367400  1
  O  O22  1  0.44812100  0.01519900  0.56367400  1
  O  O23  1  0.98480000  0.44812100  0.56367400  1
  O  O24  1  0.55187900  0.98480000  0.56367400  1
  O  O25  1  0.51520000  0.94812100  0.93632600  1
  O  O26  1  0.94812100  0.48480000  0.93632600  1
  O  O27  1  0.48480100  0.05187900  0.93632600  1
  O  O28  1  0.05187900  0.51520000  0.93632600  1
  O  O29  1  0.51520000  0.05187900  0.06367400  1
  O  O30  1  0.94812100  0.51520000  0.06367400  1
  O  O31  1  0.48480100  0.94812100  0.06367400  1
  O  O32  1  0.05187900  0.48480000  0.06367400  1
  O  O33  1  0.48060000  0.41155900  0.53625300  1
  O  O34  1  0.41155900  0.51940000  0.53625300  1
  O  O35  1  0.51940000  0.58844100  0.53625300  1
  O  O36  1  0.58844100  0.48060000  0.53625300  1
  O  O37  1  0.48060000  0.58844100  0.46374700  1
  O  O38  1  0.41155900  0.48060000  0.46374700  1
  O  O39  1  0.51940000  0.41155900  0.46374700  1
  O  O40  1  0.58844100  0.51940000  0.46374700  1
  O  O41  1  0.98060000  0.91155900  0.03625300  1
  O  O42  1  0.91155900  0.01940000  0.03625300  1
  O  O43  1  0.01940000  0.08844100  0.03625300  1
  O  O44  1  0.08844100  0.98060000  0.03625300  1
  O  O45  1  0.98060000  0.08844100  0.96374700  1
  O  O46  1  0.91155900  0.98060000  0.96374700  1
  O  O47  1  0.01940000  0.91155900  0.96374700  1
  O  O48  1  0.08844100  0.01940000  0.96374700  1
  O  O49  1  0.12659100  0.51247700  0.39998100  1
  O  O50  1  0.14886200  0.57942100  0.34620900  1
  O  O51  1  0.51247700  0.87340900  0.39998100  1
  O  O52  1  0.57942200  0.85113800  0.34620900  1
  O  O53  1  0.87340900  0.48752200  0.39998100  1
  O  O54  1  0.85113800  0.42057800  0.34620900  1
  O  O55  1  0.48752300  0.12659100  0.39998100  1
  O  O56  1  0.42057900  0.14886200  0.34620900  1
  O  O57  1  0.12659100  0.48752200  0.60001900  1
  O  O58  1  0.14886200  0.42057800  0.65379100  1
  O  O59  1  0.51247800  0.12659100  0.60001900  1
  O  O60  1  0.57942200  0.14886100  0.65379100  1
  O  O61  1  0.87340900  0.51247700  0.60001900  1
  O  O62  1  0.85113800  0.57942100  0.65379100  1
  O  O63  1  0.48752200  0.87340900  0.60001900  1
  O  O64  1  0.42057800  0.85113800  0.65379100  1
  O  O65  1  0.62659100  0.01247700  0.89998100  1
  O  O66  1  0.64886200  0.07942100  0.84620900  1
  O  O67  1  0.01247700  0.37340900  0.89998100  1
  O  O68  1  0.07942200  0.35113800  0.84620900  1
  O  O69  1  0.37340900  0.98752300  0.89998100  1
  O  O70  1  0.35113800  0.92057900  0.84620900  1
  O  O71  1  0.98752300  0.62659100  0.89998100  1
  O  O72  1  0.92057900  0.64886200  0.84620900  1
  O  O73  1  0.62659100  0.98752200  0.10001900  1
  O  O74  1  0.64886200  0.92057800  0.15379100  1
  O  O75  1  0.01247800  0.62659100  0.10001900  1
  O  O76  1  0.07942200  0.64886200  0.15379100  1
  O  O77  1  0.37340900  0.01247700  0.10001900  1
  O  O78  1  0.35113800  0.07942200  0.15379100  1
  O  O79  1  0.98752300  0.37340900  0.10001900  1
  O  O80  1  0.92057900  0.35113800  0.15379100  1
