# generated using pymatgen
data_V2H9C18N3O10
_symmetry_space_group_name_H-M   'P 1'
_cell_length_a   6.69968000
_cell_length_b   14.51237800
_cell_length_c   20.11312300
_cell_angle_alpha   108.48302400
_cell_angle_beta   90.83568700
_cell_angle_gamma   91.13526900
_symmetry_Int_Tables_number   1
_chemical_formula_structural   V2H9C18N3O10
_chemical_formula_sum   'V4 H18 C36 N6 O20'
_cell_volume   1853.87878519
_cell_formula_units_Z   2
loop_
 _symmetry_equiv_pos_site_id
 _symmetry_equiv_pos_as_xyz
  1  'x, y, z'
loop_
 _atom_site_type_symbol
 _atom_site_label
 _atom_site_symmetry_multiplicity
 _atom_site_fract_x
 _atom_site_fract_y
 _atom_site_fract_z
 _atom_site_occupancy
  V  V1  1  0.08109500  0.48807200  0.49854500  1
  V  V2  1  0.58231400  0.51296100  0.50238500  1
  V  V3  1  0.66447900  0.01229700  0.00285400  1
  V  V4  1  0.16330900  0.99056200  0.99858600  1
  H  H1  1  0.81171600  0.84943900  0.67237300  1
  H  H2  1  0.54517900  0.82383600  0.77707800  1
  H  H3  1  0.21389300  0.68796200  0.72731800  1
  H  H4  1  0.60226500  0.18664100  0.32972400  1
  H  H5  1  0.71936200  0.24514700  0.21095700  1
  H  H6  1  0.15198600  0.29016900  0.17372700  1
  H  H7  1  0.52026100  0.42074700  0.20522000  1
  H  H8  1  0.60414800  0.44442900  0.28862500  1
  H  H9  1  0.91597600  0.17792700  0.25718100  1
  H  H10  1  0.92973500  0.29774300  0.30270000  1
  H  H11  1  0.52911800  0.62039800  0.77973600  1
  H  H12  1  0.49960900  0.61403600  0.69490900  1
  H  H13  1  0.98232000  0.58000800  0.81048300  1
  H  H14  1  0.08705000  0.67940500  0.87002300  1
  H  H15  1  0.23181900  0.89122200  0.72507400  1
  H  H16  1  0.25871400  0.89633600  0.80973200  1
  H  H17  1  0.23251400  0.05688500  0.29815700  1
  H  H18  1  0.14894900  0.03333300  0.21472600  1
  C  C1  1  0.35389900  0.37033800  0.38574300  1
  C  C2  1  0.36243800  0.40196500  0.58130200  1
  C  C3  1  0.87316700  0.62976000  0.61547500  1
  C  C4  1  0.86425200  0.59963000  0.41988600  1
  C  C5  1  0.87511700  0.65183600  0.36981200  1
  C  C6  1  0.88445000  0.69266500  0.32603600  1
  C  C7  1  0.89425300  0.73848300  0.27345600  1
  C  C8  1  0.90018300  0.77698200  0.22828500  1
  C  C9  1  0.90269100  0.82267300  0.17555100  1
  C  C10  1  0.89918600  0.86324500  0.13154400  1
  C  C11  1  0.69743100  0.79516800  0.76550800  1
  C  C12  1  0.83687500  0.80662400  0.70851700  1
  C  C13  1  0.88404500  0.69930400  0.68733300  1
  C  C14  1  0.74820300  0.68854000  0.74329000  1
  C  C15  1  0.92085800  0.70725600  0.79393100  1
  C  C16  1  0.06186100  0.71714900  0.73821600  1
  C  C17  1  0.00967300  0.82339300  0.76039500  1
  C  C18  1  0.87421500  0.81321800  0.81678900  1
  C  C19  1  0.50403500  0.21130300  0.29418700  1
  C  C20  1  0.33181000  0.15236400  0.25050300  1
  C  C21  1  0.39238300  0.17997000  0.18763400  1
  C  C22  1  0.56633400  0.24021300  0.23002100  1
  C  C23  1  0.42516500  0.32402000  0.25243800  1
  C  C24  1  0.25239300  0.26556900  0.20870200  1
  C  C25  1  0.19642500  0.23660900  0.27212600  1
  C  C26  1  0.36436900  0.29694900  0.31554700  1
  C  C27  1  0.36909800  0.35311600  0.63340100  1
  C  C28  1  0.36998100  0.31581400  0.67923800  1
  C  C29  1  0.36872300  0.27441800  0.73427200  1
  C  C30  1  0.36866400  0.23927600  0.78127500  1
  C  C31  1  0.37280300  0.19638800  0.83549700  1
  C  C32  1  0.38307300  0.15658400  0.87981400  1
  C  C33  1  0.40712300  0.10338600  0.92874500  1
  C  C34  1  0.39048200  0.10778900  0.11670600  1
  C  C35  1  0.88582600  0.91481500  0.08114100  1
  C  C36  1  0.89705800  0.88355800  0.88808000  1
  N  N1  1  0.47872600  0.42266900  0.25546700  1
  N  N2  1  0.99535300  0.23099400  0.29664300  1
  N  N3  1  0.60367200  0.60915400  0.73271200  1
  N  N4  1  0.95631800  0.65142100  0.84118600  1
  N  N5  1  0.15601200  0.90223000  0.77183800  1
  N  N6  1  0.27464900  0.05427000  0.24783100  1
  O  O1  1  0.53001600  0.43302600  0.56348100  1
  O  O2  1  0.18078700  0.38872700  0.41465000  1
  O  O3  1  0.03012500  0.56865400  0.43795700  1
  O  O4  1  0.18812300  0.41105900  0.55552800  1
  O  O5  1  0.03780900  0.59201700  0.58739200  1
  O  O6  1  0.52252200  0.40851800  0.41395500  1
  O  O7  1  0.35858700  0.56134900  0.50963000  1
  O  O8  1  0.69784800  0.61260700  0.58592800  1
  O  O9  1  0.69062200  0.58956200  0.44500800  1
  O  O10  1  0.85274500  0.43968000  0.49126800  1
  O  O11  1  0.21305200  0.06406300  0.09811300  1
  O  O12  1  0.57375400  0.05501000  0.92376900  1
  O  O13  1  0.74858400  0.89098600  0.93258300  1
  O  O14  1  0.52721200  0.11952800  0.07195300  1
  O  O15  1  0.70853900  0.95325700  0.07735300  1
  O  O16  1  0.26022800  0.10429100  0.97281200  1
  O  O17  1  0.38570700  0.93651600  0.98945000  1
  O  O18  1  0.01481400  0.89173500  0.02859000  1
  O  O19  1  0.06746200  0.93315500  0.90061500  1
  O  O20  1  0.89238200  0.06669900  0.01402200  1
