# generated using pymatgen
data_Cu3H24C44(N3O10)2
_symmetry_space_group_name_H-M   'P 1'
_cell_length_a   18.32858900
_cell_length_b   18.32858900
_cell_length_c   46.47893500
_cell_angle_alpha   90.00000000
_cell_angle_beta   90.00000000
_cell_angle_gamma   90.00000000
_symmetry_Int_Tables_number   1
_chemical_formula_structural   Cu3H24C44(N3O10)2
_chemical_formula_sum   'Cu12 H96 C176 N24 O80'
_cell_volume   15614.00210840
_cell_formula_units_Z   4
loop_
 _symmetry_equiv_pos_site_id
 _symmetry_equiv_pos_as_xyz
  1  'x, y, z'
loop_
 _atom_site_type_symbol
 _atom_site_label
 _atom_site_symmetry_multiplicity
 _atom_site_fract_x
 _atom_site_fract_y
 _atom_site_fract_z
 _atom_site_occupancy
  Cu  Cu1  1  0.00031000  0.00027300  0.02868900  1
  Cu  Cu2  1  0.00027300  0.00031000  0.97131100  1
  Cu  Cu3  1  0.50031200  0.50027500  0.52868900  1
  Cu  Cu4  1  0.50027500  0.50031200  0.47131100  1
  Cu  Cu5  1  0.50030100  0.07096100  0.00000400  1
  Cu  Cu6  1  0.92859700  0.50031900  0.00000300  1
  Cu  Cu7  1  0.50031900  0.92859700  0.99999700  1
  Cu  Cu8  1  0.07096100  0.50030100  0.99999600  1
  Cu  Cu9  1  0.00030300  0.57096300  0.50000400  1
  Cu  Cu10  1  0.42859900  0.00032100  0.50000400  1
  Cu  Cu11  1  0.00032100  0.42859900  0.49999600  1
  Cu  Cu12  1  0.57096300  0.00030300  0.49999600  1
  H  H1  1  0.12841700  0.62875400  0.22402400  1
  H  H2  1  0.37148800  0.12845600  0.22395000  1
  H  H3  1  0.87159600  0.37144900  0.22402500  1
  H  H4  1  0.62880400  0.87164700  0.22410000  1
  H  H5  1  0.12845600  0.37148800  0.77605000  1
  H  H6  1  0.37144900  0.87159500  0.77597500  1
  H  H7  1  0.87164700  0.62880500  0.77590000  1
  H  H8  1  0.62875400  0.12841700  0.77597600  1
  H  H9  1  0.62841800  0.12875500  0.72402600  1
  H  H10  1  0.87149900  0.62846200  0.72395000  1
  H  H11  1  0.37160400  0.87144200  0.72402500  1
  H  H12  1  0.12879900  0.37163500  0.72410000  1
  H  H13  1  0.62846200  0.87149900  0.27605000  1
  H  H14  1  0.87144200  0.37160400  0.27597500  1
  H  H15  1  0.37163500  0.12879900  0.27590000  1
  H  H16  1  0.12875500  0.62841800  0.27597400  1
  H  H17  1  0.38966700  0.03560000  0.85785000  1
  H  H18  1  0.96413300  0.38973100  0.85783600  1
  H  H19  1  0.61075000  0.96414700  0.85780900  1
  H  H20  1  0.03558600  0.61081400  0.85782200  1
  H  H21  1  0.38973100  0.96413300  0.14216400  1
  H  H22  1  0.96414700  0.61075000  0.14219100  1
  H  H23  1  0.61081400  0.03558600  0.14217800  1
  H  H24  1  0.03560000  0.38966700  0.14215000  1
  H  H25  1  0.88966800  0.53560900  0.35785000  1
  H  H26  1  0.46413800  0.88973200  0.35783600  1
  H  H27  1  0.11074800  0.46414900  0.35780800  1
  H  H28  1  0.53557700  0.11082000  0.35782200  1
  H  H29  1  0.88973200  0.46413800  0.64216400  1
  H  H30  1  0.46414900  0.11074800  0.64219200  1
  H  H31  1  0.11082000  0.53557700  0.64217800  1
  H  H32  1  0.53560900  0.88966800  0.64215000  1
  H  H33  1  0.34423400  0.07961600  0.90625600  1
  H  H34  1  0.23486600  0.04115500  0.92491000  1
  H  H35  1  0.23352300  0.95141200  0.94100900  1
  H  H36  1  0.22151600  0.96106400  0.90270200  1
  H  H37  1  0.91984100  0.34440500  0.90623700  1
  H  H38  1  0.95810700  0.23493100  0.92483500  1
  H  H39  1  0.04782100  0.23338500  0.94095300  1
  H  H40  1  0.03820400  0.22151000  0.90263900  1
  H  H41  1  0.65616900  0.91988500  0.90619300  1
  H  H42  1  0.76564600  0.95813400  0.92479700  1
  H  H43  1  0.76717900  0.04781700  0.94094200  1
  H  H44  1  0.77905400  0.03827600  0.90262500  1
  H  H45  1  0.07957000  0.65634200  0.90621000  1
  H  H46  1  0.04112500  0.76570700  0.92487700  1
  H  H47  1  0.95141900  0.76702800  0.94100800  1
  H  H48  1  0.96098200  0.77904800  0.90269800  1
  H  H49  1  0.34440500  0.91984100  0.09376300  1
  H  H50  1  0.23493100  0.95810700  0.07516500  1
  H  H51  1  0.23338500  0.04782100  0.05904700  1
  H  H52  1  0.22151000  0.03820400  0.09736100  1
  H  H53  1  0.91988500  0.65616900  0.09380700  1
  H  H54  1  0.95813400  0.76564600  0.07520300  1
  H  H55  1  0.04781700  0.76717900  0.05905800  1
  H  H56  1  0.03827500  0.77905400  0.09737500  1
  H  H57  1  0.65634200  0.07957000  0.09379000  1
  H  H58  1  0.76570700  0.04112500  0.07512300  1
  H  H59  1  0.76702800  0.95141900  0.05899200  1
  H  H60  1  0.77904800  0.96098200  0.09730200  1
  H  H61  1  0.07961700  0.34423400  0.09374400  1
  H  H62  1  0.04115500  0.23486600  0.07509000  1
  H  H63  1  0.95141200  0.23352300  0.05899200  1
  H  H64  1  0.96106400  0.22151600  0.09729800  1
  H  H65  1  0.84423800  0.57962600  0.40625600  1
  H  H66  1  0.73486800  0.54116700  0.42491000  1
  H  H67  1  0.73352200  0.45142300  0.44100800  1
  H  H68  1  0.72151600  0.46107800  0.40270100  1
  H  H69  1  0.41985000  0.84440200  0.40623800  1
  H  H70  1  0.45812200  0.73493200  0.42483600  1
  H  H71  1  0.54783700  0.73339200  0.44095400  1
  H  H72  1  0.53822100  0.72151500  0.40264000  1
  H  H73  1  0.15616700  0.41988500  0.40619100  1
  H  H74  1  0.26564600  0.45813000  0.42479500  1
  H  H75  1  0.26718200  0.54781200  0.44094100  1
  H  H76  1  0.27905600  0.53827200  0.40262400  1
  H  H77  1  0.57955900  0.15635000  0.40621000  1
  H  H78  1  0.54110700  0.26571200  0.42487800  1
  H  H79  1  0.45140200  0.26702600  0.44101000  1
  H  H80  1  0.46096200  0.27904900  0.40270100  1
  H  H81  1  0.84440200  0.41985000  0.59376200  1
  H  H82  1  0.73493200  0.45812300  0.57516400  1
  H  H83  1  0.73339200  0.54783700  0.55904600  1
  H  H84  1  0.72151500  0.53822100  0.59736000  1
  H  H85  1  0.41988500  0.15616700  0.59380900  1
  H  H86  1  0.45813000  0.26564600  0.57520500  1
  H  H87  1  0.54781200  0.26718200  0.55905900  1
  H  H88  1  0.53827200  0.27905600  0.59737600  1
  H  H89  1  0.15635000  0.57955900  0.59379000  1
  H  H90  1  0.26571200  0.54110700  0.57512200  1
  H  H91  1  0.26702600  0.45140200  0.55899000  1
  H  H92  1  0.27904900  0.46096100  0.59729900  1
  H  H93  1  0.57962700  0.84423800  0.59374400  1
  H  H94  1  0.54116700  0.73486800  0.57509000  1
  H  H95  1  0.45142300  0.73352200  0.55899200  1
  H  H96  1  0.46107900  0.72151600  0.59729900  1
  C  C1  1  0.00089200  0.86042100  0.99998900  1
  C  C2  1  0.14019800  0.00085800  0.99998900  1
  C  C3  1  0.00085900  0.14019800  0.00001100  1
  C  C4  1  0.86042100  0.00089200  0.00001100  1
  C  C5  1  0.50089400  0.36042300  0.49998900  1
  C  C6  1  0.64020000  0.50086100  0.49998900  1
  C  C7  1  0.50086100  0.64020000  0.50001100  1
  C  C8  1  0.36042300  0.50089400  0.50001100  1
  C  C9  1  0.78217400  0.00024300  0.00001600  1
  C  C10  1  0.00024300  0.78217400  0.99998400  1
  C  C11  1  0.21844600  0.00018800  0.99998400  1
  C  C12  1  0.00018800  0.21844600  0.00001600  1
  C  C13  1  0.28217600  0.50024500  0.50001600  1
  C  C14  1  0.50024500  0.28217600  0.49998400  1
  C  C15  1  0.71844800  0.50019000  0.49998400  1
  C  C16  1  0.50019000  0.71844800  0.50001600  1
  C  C17  1  0.71644500  0.99992000  0.00000900  1
  C  C18  1  0.99992000  0.71644500  0.99999200  1
  C  C19  1  0.28417500  0.99986500  0.99999200  1
  C  C20  1  0.99986500  0.28417500  0.00000800  1
  C  C21  1  0.21644700  0.49992200  0.50000800  1
  C  C22  1  0.49992200  0.21644700  0.49999200  1
  C  C23  1  0.78417700  0.49986700  0.49999200  1
  C  C24  1  0.49986700  0.78417700  0.50000800  1
  C  C25  1  0.50027400  0.99979800  0.94556200  1
  C  C26  1  0.99976500  0.50033900  0.94556200  1
  C  C27  1  0.50033900  0.99976500  0.05443800  1
  C  C28  1  0.99979800  0.50027400  0.05443800  1
  C  C29  1  0.00027600  0.49980200  0.44556200  1
  C  C30  1  0.49976500  0.00034100  0.44556200  1
  C  C31  1  0.00034100  0.49976500  0.55443800  1
  C  C32  1  0.49980200  0.00027600  0.55443800  1
  C  C33  1  0.63821600  0.99980500  0.99998500  1
  C  C34  1  0.99980500  0.63821500  0.00001500  1
  C  C35  1  0.36240500  0.99976800  0.00001600  1
  C  C36  1  0.99976800  0.36240500  0.99998400  1
  C  C37  1  0.13821800  0.49980700  0.49998500  1
  C  C38  1  0.49980700  0.13821800  0.50001500  1
  C  C39  1  0.86240700  0.49977000  0.50001600  1
  C  C40  1  0.49977000  0.86240700  0.49998400  1
  C  C41  1  0.95482600  0.45482800  0.19050400  1
  C  C42  1  0.54553500  0.95486100  0.19053000  1
  C  C43  1  0.04507100  0.54548800  0.19050300  1
  C  C44  1  0.45487100  0.04510200  0.19047800  1
  C  C45  1  0.95486100  0.54553500  0.80947000  1
  C  C46  1  0.54548800  0.04507100  0.80949700  1
  C  C47  1  0.04510200  0.45487100  0.80952200  1
  C  C48  1  0.45482800  0.95482600  0.80949600  1
  C  C49  1  0.45483300  0.95482500  0.69050400  1
  C  C50  1  0.04553500  0.45485600  0.69053000  1
  C  C51  1  0.54507500  0.04548700  0.69050400  1
  C  C52  1  0.95487700  0.54510200  0.69047700  1
  C  C53  1  0.45485600  0.04553500  0.30947000  1
  C  C54  1  0.04548700  0.54507400  0.30949600  1
  C  C55  1  0.54510200  0.95487700  0.30952300  1
  C  C56  1  0.95482500  0.45483300  0.30949600  1
  C  C57  1  0.04573500  0.54608700  0.22024900  1
  C  C58  1  0.45417200  0.04577700  0.22022300  1
  C  C59  1  0.95426400  0.45413100  0.22024900  1
  C  C60  1  0.54613200  0.95431000  0.22027600  1
  C  C61  1  0.04577700  0.45417200  0.77977700  1
  C  C62  1  0.45413100  0.95426300  0.77975100  1
  C  C63  1  0.95431000  0.54613200  0.77972400  1
  C  C64  1  0.54608700  0.04573500  0.77975100  1
  C  C65  1  0.54573800  0.04608500  0.72025000  1
  C  C66  1  0.95417800  0.54577700  0.72022200  1
  C  C67  1  0.45426900  0.95412600  0.72024900  1
  C  C68  1  0.04613200  0.45430400  0.72027600  1
  C  C69  1  0.54577700  0.95417800  0.27977800  1
  C  C70  1  0.95412700  0.45426900  0.27975100  1
  C  C71  1  0.45430400  0.04613300  0.27972400  1
  C  C72  1  0.04608500  0.54573800  0.27975000  1
  C  C73  1  0.00002600  0.50008300  0.23516100  1
  C  C74  1  0.50012600  0.00007300  0.23516100  1
  C  C75  1  0.00007300  0.50012600  0.76483900  1
  C  C76  1  0.50008300  0.00002600  0.76483900  1
  C  C77  1  0.50003000  0.00007900  0.73516100  1
  C  C78  1  0.00012900  0.50007000  0.73516100  1
  C  C79  1  0.50007000  0.00012900  0.26483900  1
  C  C80  1  0.00008000  0.50003000  0.26483900  1
  C  C81  1  0.09193500  0.59210800  0.23517800  1
  C  C82  1  0.40809600  0.09197800  0.23512500  1
  C  C83  1  0.90811700  0.40805700  0.23517900  1
  C  C84  1  0.59215500  0.90816800  0.23523200  1
  C  C85  1  0.09197700  0.40809600  0.76487500  1
  C  C86  1  0.40805700  0.90811700  0.76482100  1
  C  C87  1  0.90816800  0.59215500  0.76476800  1
  C  C88  1  0.59210800  0.09193500  0.76482200  1
  C  C89  1  0.59193600  0.09210700  0.73517900  1
  C  C90  1  0.90810500  0.59198100  0.73512500  1
  C  C91  1  0.40812400  0.90805100  0.73517800  1
  C  C92  1  0.09215200  0.40815900  0.73523200  1
  C  C93  1  0.59198000  0.90810500  0.26487500  1
  C  C94  1  0.90805100  0.40812400  0.26482200  1
  C  C95  1  0.40815900  0.09215200  0.26476800  1
  C  C96  1  0.09210700  0.59193600  0.26482100  1
  C  C97  1  0.43840200  0.02009700  0.86943800  1
  C  C98  1  0.97961200  0.43846400  0.86943000  1
  C  C99  1  0.56203800  0.97963700  0.86941500  1
  C  C100  1  0.02007300  0.56210000  0.86942200  1
  C  C101  1  0.43846400  0.97961200  0.13057000  1
  C  C102  1  0.97963700  0.56203800  0.13058500  1
  C  C103  1  0.56210000  0.02007300  0.13057800  1
  C  C104  1  0.02009700  0.43840200  0.13056200  1
  C  C105  1  0.93840300  0.52010500  0.36943800  1
  C  C106  1  0.47961400  0.93846600  0.36943000  1
  C  C107  1  0.06203700  0.47964000  0.36941400  1
  C  C108  1  0.52006700  0.06210500  0.36942300  1
  C  C109  1  0.93846600  0.47961400  0.63057000  1
  C  C110  1  0.47964000  0.06203700  0.63058600  1
  C  C111  1  0.06210500  0.52006700  0.63057700  1
  C  C112  1  0.52010500  0.93840300  0.63056200  1
  C  C113  1  0.43795200  0.01924700  0.89910200  1
  C  C114  1  0.98036500  0.43802100  0.89909500  1
  C  C115  1  0.56253200  0.98040400  0.89908000  1
  C  C116  1  0.01920900  0.56260100  0.89908700  1
  C  C117  1  0.43802100  0.98036500  0.10090500  1
  C  C118  1  0.98040400  0.56253200  0.10092000  1
  C  C119  1  0.56260100  0.01920900  0.10091300  1
  C  C120  1  0.01924800  0.43795200  0.10089800  1
  C  C121  1  0.93795400  0.51925400  0.39910200  1
  C  C122  1  0.48036800  0.93802300  0.39909500  1
  C  C123  1  0.06253200  0.48040700  0.39908000  1
  C  C124  1  0.51920300  0.06260500  0.39908700  1
  C  C125  1  0.93802300  0.48036800  0.60090500  1
  C  C126  1  0.48040700  0.06253200  0.60092100  1
  C  C127  1  0.06260500  0.51920300  0.60091300  1
  C  C128  1  0.51925500  0.93795300  0.60089800  1
  C  C129  1  0.50025500  0.99981500  0.91407700  1
  C  C130  1  0.99977300  0.50032100  0.91407600  1
  C  C131  1  0.50032100  0.99977300  0.08592400  1
  C  C132  1  0.99981500  0.50025500  0.08592300  1
  C  C133  1  0.00025600  0.49982000  0.41407600  1
  C  C134  1  0.49977200  0.00032400  0.41407700  1
  C  C135  1  0.00032400  0.49977200  0.58592300  1
  C  C136  1  0.49982000  0.00025600  0.58592400  1
  C  C137  1  0.50021000  0.99989100  0.85452100  1
  C  C138  1  0.99987800  0.50026400  0.85452000  1
  C  C139  1  0.50026400  0.99987800  0.14548000  1
  C  C140  1  0.99989100  0.50021000  0.14547900  1
  C  C141  1  0.00020900  0.49989700  0.35452000  1
  C  C142  1  0.49987600  0.00026800  0.35452100  1
  C  C143  1  0.00026800  0.49987600  0.64547900  1
  C  C144  1  0.49989700  0.00020900  0.64548000  1
  C  C145  1  0.33047600  0.97563600  0.91766600  1
  C  C146  1  0.25016500  0.98314900  0.92182300  1
  C  C147  1  0.02379400  0.33045400  0.91764600  1
  C  C148  1  0.01614100  0.25014300  0.92176800  1
  C  C149  1  0.67011200  0.02382100  0.91762900  1
  C  C150  1  0.75042500  0.01617200  0.92174800  1
  C  C151  1  0.97560900  0.67008600  0.91765200  1
  C  C152  1  0.98311600  0.75039700  0.92181000  1
  C  C153  1  0.33045400  0.02379400  0.08235400  1
  C  C154  1  0.25014300  0.01614200  0.07823200  1
  C  C155  1  0.02382100  0.67011200  0.08237100  1
  C  C156  1  0.01617200  0.75042500  0.07825200  1
  C  C157  1  0.67008600  0.97560900  0.08234800  1
  C  C158  1  0.75039700  0.98311600  0.07819000  1
  C  C159  1  0.97563700  0.33047600  0.08233400  1
  C  C160  1  0.98315000  0.25016500  0.07817700  1
  C  C161  1  0.83047600  0.47564600  0.41766600  1
  C  C162  1  0.75016500  0.48316200  0.42182300  1
  C  C163  1  0.52380400  0.83045900  0.41764700  1
  C  C164  1  0.51615600  0.75014700  0.42176900  1
  C  C165  1  0.17011400  0.52382100  0.41762800  1
  C  C166  1  0.25042700  0.51616900  0.42174700  1
  C  C167  1  0.47559700  0.17008700  0.41765400  1
  C  C168  1  0.48309900  0.25039800  0.42181200  1
  C  C169  1  0.83045900  0.52380400  0.58235300  1
  C  C170  1  0.75014700  0.51615600  0.57823100  1
  C  C171  1  0.52382100  0.17011400  0.58237200  1
  C  C172  1  0.51616900  0.25042700  0.57825400  1
  C  C173  1  0.17008700  0.47559700  0.58234600  1
  C  C174  1  0.25039800  0.48309900  0.57818800  1
  C  C175  1  0.47564600  0.83047600  0.58233400  1
  C  C176  1  0.48316200  0.75016500  0.57817700  1
  N  N1  1  0.99992600  0.50018000  0.17615400  1
  N  N2  1  0.50022500  0.99995100  0.17615500  1
  N  N3  1  0.99995100  0.50022600  0.82384500  1
  N  N4  1  0.50018000  0.99992600  0.82384600  1
  N  N5  1  0.49993100  0.00017800  0.67615500  1
  N  N6  1  0.00022900  0.49994800  0.67615400  1
  N  N7  1  0.49994800  0.00022900  0.32384600  1
  N  N8  1  0.00017800  0.49993100  0.32384500  1
  N  N9  1  0.37266400  0.03519800  0.91383200  1
  N  N10  1  0.96430700  0.37275100  0.91381900  1
  N  N11  1  0.62782200  0.96433400  0.91378900  1
  N  N12  1  0.03517100  0.62790800  0.91380200  1
  N  N13  1  0.37275100  0.96430700  0.08618100  1
  N  N14  1  0.96433400  0.62782200  0.08621100  1
  N  N15  1  0.62790800  0.03517100  0.08619800  1
  N  N16  1  0.03519800  0.37266400  0.08616800  1
  N  N17  1  0.87266700  0.53520600  0.41383200  1
  N  N18  1  0.46431400  0.87275200  0.41382000  1
  N  N19  1  0.12782200  0.46433500  0.41378800  1
  N  N20  1  0.53516200  0.12791300  0.41380300  1
  N  N21  1  0.87275200  0.46431400  0.58618000  1
  N  N22  1  0.46433500  0.12782200  0.58621200  1
  N  N23  1  0.12791300  0.53516200  0.58619700  1
  N  N24  1  0.53520700  0.87266700  0.58616800  1
  O  O1  1  0.99748300  0.89426400  0.02482900  1
  O  O2  1  0.10630200  0.99745000  0.02477100  1
  O  O3  1  0.99768500  0.10627500  0.02479200  1
  O  O4  1  0.89429100  0.99765300  0.02484900  1
  O  O5  1  0.99745000  0.10630200  0.97522900  1
  O  O6  1  0.10627500  0.99768500  0.97520800  1
  O  O7  1  0.99765300  0.89429100  0.97515100  1
  O  O8  1  0.89426400  0.99748300  0.97517100  1
  O  O9  1  0.49748500  0.39426600  0.52482900  1
  O  O10  1  0.60630400  0.49745200  0.52477100  1
  O  O11  1  0.49768700  0.60627700  0.52479200  1
  O  O12  1  0.39429300  0.49765600  0.52484900  1
  O  O13  1  0.49745200  0.60630400  0.47522900  1
  O  O14  1  0.60627700  0.49768700  0.47520800  1
  O  O15  1  0.49765600  0.39429300  0.47515100  1
  O  O16  1  0.39426600  0.49748500  0.47517100  1
  O  O17  1  0.47920300  0.05975900  0.95903900  1
  O  O18  1  0.93979300  0.47927900  0.95903300  1
  O  O19  1  0.52135600  0.93982500  0.95902800  1
  O  O20  1  0.05973900  0.52140000  0.95903200  1
  O  O21  1  0.47927900  0.93979300  0.04096700  1
  O  O22  1  0.93982500  0.52135600  0.04097300  1
  O  O23  1  0.52140000  0.05973900  0.04096800  1
  O  O24  1  0.05975900  0.47920300  0.04096100  1
  O  O25  1  0.97920500  0.55976200  0.45903900  1
  O  O26  1  0.43979400  0.97928100  0.45903400  1
  O  O27  1  0.02135800  0.43982800  0.45902700  1
  O  O28  1  0.55974000  0.02140300  0.45903200  1
  O  O29  1  0.97928100  0.43979400  0.54096600  1
  O  O30  1  0.43982800  0.02135800  0.54097300  1
  O  O31  1  0.02140300  0.55974000  0.54096800  1
  O  O32  1  0.55976300  0.97920500  0.54096100  1
  O  O33  1  0.60418600  0.05981500  0.99171400  1
  O  O34  1  0.93977200  0.60422000  0.99173700  1
  O  O35  1  0.39641500  0.93974900  0.99173200  1
  O  O36  1  0.05978100  0.39641800  0.99170700  1
  O  O37  1  0.60422000  0.93977200  0.00826300  1
  O  O38  1  0.93974900  0.39641500  0.00826800  1
  O  O39  1  0.39641800  0.05978100  0.00829300  1
  O  O40  1  0.05981500  0.60418600  0.00828600  1
  O  O41  1  0.10418900  0.55981700  0.49171300  1
  O  O42  1  0.43977400  0.10422200  0.49173800  1
  O  O43  1  0.89641800  0.43975200  0.49173100  1
  O  O44  1  0.55978300  0.89642000  0.49170700  1
  O  O45  1  0.10422200  0.43977400  0.50826200  1
  O  O46  1  0.43975200  0.89641800  0.50826900  1
  O  O47  1  0.89642000  0.55978300  0.50829300  1
  O  O48  1  0.55981700  0.10418900  0.50828700  1
  O  O49  1  0.90921400  0.41127900  0.17575800  1
  O  O50  1  0.58913300  0.90924300  0.17580900  1
  O  O51  1  0.09063500  0.58908400  0.17575500  1
  O  O52  1  0.41132100  0.09065800  0.17570500  1
  O  O53  1  0.90924300  0.58913300  0.82419100  1
  O  O54  1  0.58908400  0.09063500  0.82424500  1
  O  O55  1  0.09065800  0.41132100  0.82429500  1
  O  O56  1  0.41127900  0.90921300  0.82424200  1
  O  O57  1  0.40922100  0.91127400  0.67575800  1
  O  O58  1  0.08913000  0.40923500  0.67580900  1
  O  O59  1  0.59063800  0.08908500  0.67575600  1
  O  O60  1  0.91133000  0.59066100  0.67570400  1
  O  O61  1  0.40923400  0.08913000  0.32419100  1
  O  O62  1  0.08908500  0.59063800  0.32424400  1
  O  O63  1  0.59066100  0.91133000  0.32429600  1
  O  O64  1  0.91127400  0.40922100  0.32424200  1
  O  O65  1  0.35762300  0.91493700  0.91690800  1
  O  O66  1  0.08453900  0.35750300  0.91690700  1
  O  O67  1  0.64305500  0.08456400  0.91690500  1
  O  O68  1  0.91491200  0.64293000  0.91691000  1
  O  O69  1  0.35750300  0.08453900  0.08309300  1
  O  O70  1  0.08456400  0.64305500  0.08309500  1
  O  O71  1  0.64292900  0.91491200  0.08309000  1
  O  O72  1  0.91493700  0.35762300  0.08309200  1
  O  O73  1  0.85762100  0.41494600  0.41690700  1
  O  O74  1  0.58454700  0.85751200  0.41690700  1
  O  O75  1  0.14305900  0.58456400  0.41690400  1
  O  O76  1  0.41490200  0.14292600  0.41691200  1
  O  O77  1  0.85751200  0.58454700  0.58309300  1
  O  O78  1  0.58456400  0.14305900  0.58309600  1
  O  O79  1  0.14292600  0.41490200  0.58308800  1
  O  O80  1  0.41494600  0.85762100  0.58309300  1
