# generated using pymatgen
data_Zn2H21C27N7O13
_symmetry_space_group_name_H-M   'P 1'
_cell_length_a   10.82951800
_cell_length_b   12.97228400
_cell_length_c   14.09553800
_cell_angle_alpha   88.90886400
_cell_angle_beta   90.01453600
_cell_angle_gamma   93.63299900
_symmetry_Int_Tables_number   1
_chemical_formula_structural   Zn2H21C27N7O13
_chemical_formula_sum   'Zn2 H21 C27 N7 O13'
_cell_volume   1975.85304155
_cell_formula_units_Z   1
loop_
 _symmetry_equiv_pos_site_id
 _symmetry_equiv_pos_as_xyz
  1  'x, y, z'
loop_
 _atom_site_type_symbol
 _atom_site_label
 _atom_site_symmetry_multiplicity
 _atom_site_fract_x
 _atom_site_fract_y
 _atom_site_fract_z
 _atom_site_occupancy
  Zn  Zn1  1  0.49047200  0.42833800  0.47162200  1
  Zn  Zn2  1  0.50698800  0.66256500  0.48480900  1
  H  H1  1  0.90893300  0.49190200  0.34315200  1
  H  H2  1  0.87235600  0.38948400  0.42385100  1
  H  H3  1  0.07606800  0.37708100  0.46453800  1
  H  H4  1  0.10518700  0.45268700  0.35956400  1
  H  H5  1  0.89809600  0.66515600  0.37442100  1
  H  H6  1  0.09624200  0.63170100  0.35680100  1
  H  H7  1  0.92103900  0.71515900  0.48997700  1
  H  H8  1  0.12614400  0.71227000  0.45482100  1
  H  H9  1  0.51085300  0.42878000  0.98626200  1
  H  H10  1  0.48701000  0.66205400  0.97012800  1
  H  H11  1  0.58985700  0.05522500  0.54841000  1
  H  H12  1  0.18849400  0.66093800  0.76954200  1
  H  H13  1  0.28840100  0.68688400  0.67973000  1
  H  H14  1  0.35900600  0.91568500  0.28610800  1
  H  H15  1  0.24814500  0.90865200  0.37067600  1
  H  H16  1  0.93732700  0.65481200  0.78481000  1
  H  H17  1  0.80873400  0.57591500  0.79406800  1
  H  H18  1  0.93605500  0.28079900  0.64503900  1
  H  H19  1  0.83152200  0.28592100  0.55809500  1
  H  H20  1  0.17681800  0.44659400  0.78725800  1
  H  H21  1  0.04607800  0.37417300  0.76707400  1
  C  C1  1  0.50053800  0.52902100  0.66328400  1
  C  C2  1  0.74096600  0.54628600  0.47778900  1
  C  C3  1  0.49717800  0.56185800  0.29311000  1
  C  C4  1  0.25638700  0.54439300  0.48191100  1
  C  C5  1  0.92408800  0.46535500  0.41726900  1
  C  C6  1  0.06127600  0.45269000  0.43066900  1
  C  C7  1  0.93797900  0.64860600  0.44518700  1
  C  C8  1  0.92332300  0.52682100  0.58943300  1
  C  C9  1  0.87984700  0.54668800  0.48476400  1
  C  C10  1  0.11718100  0.54319800  0.48688500  1
  C  C11  1  0.07614000  0.63940300  0.43341600  1
  C  C12  1  0.06848100  0.53910900  0.59181300  1
  C  C13  1  0.49630600  0.57070000  0.19147900  1
  C  C14  1  0.49466500  0.58716400  0.00430300  1
  C  C15  1  0.50320300  0.50367200  0.95209000  1
  C  C16  1  0.50227800  0.51266400  0.85025300  1
  C  C17  1  0.49556400  0.57817800  0.10614000  1
  C  C18  1  0.50150000  0.52015800  0.76491600  1
  C  C19  1  0.45565800  0.07532900  0.44479000  1
  C  C20  1  0.52599100  0.01688600  0.49925500  1
  C  C21  1  0.52175000  0.90583000  0.49622900  1
  C  C22  1  0.46928000  0.18555700  0.45499600  1
  C  C23  1  0.11777600  0.63779800  0.63972900  1
  C  C24  1  0.36430200  0.03517400  0.37450900  1
  C  C25  1  0.87166500  0.60001400  0.66084400  1
  C  C26  1  0.86978800  0.42054800  0.62270000  1
  C  C27  1  0.11704000  0.45190200  0.65235000  1
  N  N1  1  0.47919400  0.27436300  0.46248500  1
  N  N2  1  0.51797200  0.81658300  0.49346000  1
  N  N3  1  0.21854900  0.63416100  0.70462800  1
  N  N4  1  0.34189800  0.92747000  0.35785700  1
  N  N5  1  0.89446200  0.58611200  0.76013900  1
  N  N6  1  0.90915100  0.32543900  0.58715100  1
  N  N7  1  0.09191600  0.44579500  0.75205600  1
  O  O1  1  0.49252500  0.44383600  0.61437000  1
  O  O2  1  0.50761500  0.62186600  0.62428300  1
  O  O3  1  0.67656200  0.45720200  0.47280700  1
  O  O4  1  0.68893600  0.63498000  0.48038400  1
  O  O5  1  0.49246300  0.46925800  0.33218200  1
  O  O6  1  0.50268300  0.64680300  0.34211700  1
  O  O7  1  0.30852000  0.45624000  0.47388500  1
  O  O8  1  0.32092000  0.63344000  0.48569200  1
  O  O9  1  0.07866800  0.72188300  0.62070800  1
  O  O10  1  0.30600700  0.09665300  0.32924000  1
  O  O11  1  0.81094100  0.67154300  0.63588800  1
  O  O12  1  0.78383100  0.41609500  0.67875900  1
  O  O13  1  0.17760700  0.38590600  0.61818400  1
