# generated using pymatgen
data_Cu3H15(C7O2)7
_symmetry_space_group_name_H-M   'P 1'
_cell_length_a   29.21335200
_cell_length_b   17.90863000
_cell_length_c   16.05951300
_cell_angle_alpha   90.00000000
_cell_angle_beta   59.91774800
_cell_angle_gamma   90.00000000
_symmetry_Int_Tables_number   1
_chemical_formula_structural   Cu3H15(C7O2)7
_chemical_formula_sum   'Cu12 H60 C196 O56'
_cell_volume   7270.19746870
_cell_formula_units_Z   4
loop_
 _symmetry_equiv_pos_site_id
 _symmetry_equiv_pos_as_xyz
  1  'x, y, z'
loop_
 _atom_site_type_symbol
 _atom_site_label
 _atom_site_symmetry_multiplicity
 _atom_site_fract_x
 _atom_site_fract_y
 _atom_site_fract_z
 _atom_site_occupancy
  Cu  Cu1  1  0.21139600  0.79196200  0.51278600  1
  Cu  Cu2  1  0.78860400  0.20803800  0.48721400  1
  Cu  Cu3  1  0.78329600  0.79783500  0.51403300  1
  Cu  Cu4  1  0.21670400  0.20216500  0.48596600  1
  Cu  Cu5  1  0.71670500  0.29783500  0.48596600  1
  Cu  Cu6  1  0.28329600  0.70216500  0.51403400  1
  Cu  Cu7  1  0.28860300  0.29196300  0.48721500  1
  Cu  Cu8  1  0.71139700  0.70803700  0.51278500  1
  Cu  Cu9  1  0.50698700  0.50411800  0.91154800  1
  Cu  Cu10  1  0.49301300  0.49588200  0.08845100  1
  Cu  Cu11  1  0.00698800  0.99588200  0.91154800  1
  Cu  Cu12  1  0.99301300  0.00411800  0.08845200  1
  H  H1  1  0.51391800  0.76393600  0.60919300  1
  H  H2  1  0.48608200  0.23606400  0.39080600  1
  H  H3  1  0.42990800  0.76226200  0.61149600  1
  H  H4  1  0.57009200  0.23773800  0.38850300  1
  H  H5  1  0.07009700  0.26226700  0.38848800  1
  H  H6  1  0.92990400  0.73773400  0.61151100  1
  H  H7  1  0.98608700  0.26394000  0.39079100  1
  H  H8  1  0.01391400  0.73606100  0.60920800  1
  H  H9  1  0.27028300  0.99718000  0.51162100  1
  H  H10  1  0.72971700  0.00282000  0.48837900  1
  H  H11  1  0.77028300  0.50282000  0.51162200  1
  H  H12  1  0.22971700  0.49718000  0.48837800  1
  H  H13  1  0.58989100  0.82674400  0.58058100  1
  H  H14  1  0.41011000  0.17325500  0.41941800  1
  H  H15  1  0.36727000  0.82222100  0.58573100  1
  H  H16  1  0.63273000  0.17777900  0.41426900  1
  H  H17  1  0.13273300  0.32222400  0.41426100  1
  H  H18  1  0.86726800  0.67777600  0.58573800  1
  H  H19  1  0.91011100  0.32674600  0.41941200  1
  H  H20  1  0.08988900  0.67325400  0.58058700  1
  H  H21  1  0.12257300  0.92972300  0.05111600  1
  H  H22  1  0.87742700  0.07027700  0.94888400  1
  H  H23  1  0.87169300  0.93489700  0.97401100  1
  H  H24  1  0.12830700  0.06510300  0.02598900  1
  H  H25  1  0.62830800  0.43489900  0.02598500  1
  H  H26  1  0.37169200  0.56510200  0.97401400  1
  H  H27  1  0.37742700  0.42972300  0.94888500  1
  H  H28  1  0.62257300  0.57027700  0.05111400  1
  H  H29  1  0.17510800  0.91182500  0.11721400  1
  H  H30  1  0.82489300  0.08817600  0.88278500  1
  H  H31  1  0.81936500  0.91684900  0.90789600  1
  H  H32  1  0.18063500  0.08315200  0.09210500  1
  H  H33  1  0.68063500  0.41684900  0.09210300  1
  H  H34  1  0.31936600  0.58315200  0.90789600  1
  H  H35  1  0.32489200  0.41182500  0.88278700  1
  H  H36  1  0.67510800  0.58817500  0.11721300  1
  H  H37  1  0.22160100  0.62628200  0.78123400  1
  H  H38  1  0.77839900  0.37371800  0.21876600  1
  H  H39  1  0.77194600  0.63274300  0.24614000  1
  H  H40  1  0.22805500  0.36725700  0.75386000  1
  H  H41  1  0.72805400  0.13274200  0.75386100  1
  H  H42  1  0.27194600  0.86725800  0.24613900  1
  H  H43  1  0.27840100  0.12628100  0.21876500  1
  H  H44  1  0.72160000  0.87371900  0.78123500  1
  H  H45  1  0.27151800  0.59969900  0.85214200  1
  H  H46  1  0.72848200  0.40030100  0.14785800  1
  H  H47  1  0.72149200  0.60646400  0.17616100  1
  H  H48  1  0.27850800  0.39353600  0.82383900  1
  H  H49  1  0.77850500  0.10646100  0.82384300  1
  H  H50  1  0.22149500  0.89353900  0.17615700  1
  H  H51  1  0.22848400  0.09969700  0.14785400  1
  H  H52  1  0.77151600  0.90030300  0.85214500  1
  H  H53  1  0.08521700  0.74369800  0.76526200  1
  H  H54  1  0.91478300  0.25630100  0.23473800  1
  H  H55  1  0.90834900  0.75687600  0.26434600  1
  H  H56  1  0.09165100  0.24312400  0.73565400  1
  H  H57  1  0.59165100  0.25687600  0.73565300  1
  H  H58  1  0.40834900  0.74312400  0.26434700  1
  H  H59  1  0.41478300  0.24369800  0.23473900  1
  H  H60  1  0.58521700  0.75630300  0.76526100  1
  C  C1  1  0.30206600  0.75018900  0.32783700  1
  C  C2  1  0.69793500  0.24981100  0.67216300  1
  C  C3  1  0.69256400  0.75667900  0.69881800  1
  C  C4  1  0.30743700  0.24332100  0.30118200  1
  C  C5  1  0.80743700  0.25667900  0.30118200  1
  C  C6  1  0.19256300  0.74332100  0.69881800  1
  C  C7  1  0.19793400  0.25018900  0.67216300  1
  C  C8  1  0.80206600  0.74981000  0.32783600  1
  C  C9  1  0.19496900  0.63188700  0.50983500  1
  C  C10  1  0.80503100  0.36811300  0.49016500  1
  C  C11  1  0.79781500  0.63775100  0.52302900  1
  C  C12  1  0.20218600  0.36224900  0.47697100  1
  C  C13  1  0.70218600  0.13775200  0.47697100  1
  C  C14  1  0.29781400  0.86224800  0.52302900  1
  C  C15  1  0.30503100  0.13188700  0.49016600  1
  C  C16  1  0.69497000  0.86811300  0.50983400  1
  C  C17  1  0.03327800  0.62440900  0.55478400  1
  C  C18  1  0.96672200  0.37559100  0.44521400  1
  C  C19  1  0.93808600  0.62626400  0.55760900  1
  C  C20  1  0.06191400  0.37373600  0.44239000  1
  C  C21  1  0.56191200  0.12626600  0.44239700  1
  C  C22  1  0.43808800  0.87373400  0.55760300  1
  C  C23  1  0.46672000  0.12441100  0.44522200  1
  C  C24  1  0.53328000  0.87558900  0.55477800  1
  C  C25  1  0.00154100  0.68702500  0.58641800  1
  C  C26  1  0.99846000  0.31297500  0.41358000  1
  C  C27  1  0.95411400  0.68800500  0.58766300  1
  C  C28  1  0.04588600  0.31199500  0.41233600  1
  C  C29  1  0.54588200  0.18800800  0.41234800  1
  C  C30  1  0.45411800  0.81199200  0.58765200  1
  C  C31  1  0.49845600  0.18702800  0.41359200  1
  C  C32  1  0.50154400  0.81297200  0.58640700  1
  C  C33  1  0.96910800  0.56317700  0.52798400  1
  C  C34  1  0.03089300  0.43682300  0.47201500  1
  C  C35  1  0.01707500  0.56231500  0.52630200  1
  C  C36  1  0.98292600  0.43768500  0.47369700  1
  C  C37  1  0.48292400  0.06231500  0.47370100  1
  C  C38  1  0.51707600  0.93768500  0.52629900  1
  C  C39  1  0.53089100  0.06317800  0.47201900  1
  C  C40  1  0.46910900  0.93682200  0.52798000  1
  C  C41  1  0.45165200  0.99919100  0.50178400  1
  C  C42  1  0.54834900  0.00080900  0.49821500  1
  C  C43  1  0.95165200  0.50080800  0.50178400  1
  C  C44  1  0.04834900  0.49919200  0.49821500  1
  C  C45  1  0.37379600  0.93270200  0.52704700  1
  C  C46  1  0.62620400  0.06729800  0.47295300  1
  C  C47  1  0.61498800  0.93653700  0.51782100  1
  C  C48  1  0.38501200  0.06346200  0.48217800  1
  C  C49  1  0.88501300  0.43653800  0.48217500  1
  C  C50  1  0.11498700  0.56346200  0.51782400  1
  C  C51  1  0.12620500  0.43270300  0.47295100  1
  C  C52  1  0.87379600  0.56729700  0.52704800  1
  C  C53  1  0.32747500  0.93067800  0.52119100  1
  C  C54  1  0.67252600  0.06932200  0.47880900  1
  C  C55  1  0.66588400  0.93563400  0.50667400  1
  C  C56  1  0.33411600  0.06436600  0.49332500  1
  C  C57  1  0.83411700  0.43563300  0.49332400  1
  C  C58  1  0.16588400  0.56436700  0.50667600  1
  C  C59  1  0.17252600  0.43067800  0.47880800  1
  C  C60  1  0.82747500  0.56932200  0.52119100  1
  C  C61  1  0.30767700  0.99736800  0.50930900  1
  C  C62  1  0.69232400  0.00263200  0.49069100  1
  C  C63  1  0.80767700  0.50263100  0.50930900  1
  C  C64  1  0.19232400  0.49736900  0.49069100  1
  C  C65  1  0.40328200  0.99848000  0.50384800  1
  C  C66  1  0.59671800  0.00151900  0.49615100  1
  C  C67  1  0.90328200  0.50151900  0.50384700  1
  C  C68  1  0.09671800  0.49848100  0.49615200  1
  C  C69  1  0.58124100  0.87524200  0.55171200  1
  C  C70  1  0.41875900  0.12475700  0.44828800  1
  C  C71  1  0.39098200  0.87164800  0.55738600  1
  C  C72  1  0.60901800  0.12835200  0.44261400  1
  C  C73  1  0.10902000  0.37165000  0.44260800  1
  C  C74  1  0.89098100  0.62835000  0.55739100  1
  C  C75  1  0.91876000  0.37524400  0.44828200  1
  C  C76  1  0.08124000  0.62475700  0.55171700  1
  C  C77  1  0.21488200  0.75982000  0.97288400  1
  C  C78  1  0.78511800  0.24018000  0.02711600  1
  C  C79  1  0.77914000  0.76528300  0.05333300  1
  C  C80  1  0.22086000  0.23471700  0.94666700  1
  C  C81  1  0.72086000  0.26528300  0.94666700  1
  C  C82  1  0.27914000  0.73471800  0.05333300  1
  C  C83  1  0.28511900  0.25981900  0.02711500  1
  C  C84  1  0.71488100  0.74018100  0.97288500  1
  C  C85  1  0.24895000  0.69863900  0.94410000  1
  C  C86  1  0.75105000  0.30136100  0.05590000  1
  C  C87  1  0.74488900  0.70431500  0.08251500  1
  C  C88  1  0.25511100  0.29568500  0.91748500  1
  C  C89  1  0.75511100  0.20431400  0.91748600  1
  C  C90  1  0.24489000  0.79568600  0.08251400  1
  C  C91  1  0.25105100  0.19863800  0.05589900  1
  C  C92  1  0.74894900  0.80136200  0.94410100  1
  C  C93  1  0.28123600  0.68609100  0.98444300  1
  C  C94  1  0.71876500  0.31390900  0.01555600  1
  C  C95  1  0.71281000  0.69146600  0.04164900  1
  C  C96  1  0.28719000  0.30853400  0.95835000  1
  C  C97  1  0.78719000  0.19146500  0.95835100  1
  C  C98  1  0.21281100  0.80853500  0.04164900  1
  C  C99  1  0.21876500  0.18609000  0.01555600  1
  C  C100  1  0.78123500  0.81391000  0.98444400  1
  C  C101  1  0.14667100  0.83086800  0.96256300  1
  C  C102  1  0.85332900  0.16913200  0.03743700  1
  C  C103  1  0.84797000  0.83567800  0.06180600  1
  C  C104  1  0.15203000  0.16432200  0.93819300  1
  C  C105  1  0.65203000  0.33567800  0.93819200  1
  C  C106  1  0.34797000  0.66432200  0.06180800  1
  C  C107  1  0.35332900  0.33086700  0.03743700  1
  C  C108  1  0.64667100  0.66913300  0.96256300  1
  C  C109  1  0.11148600  0.83745500  0.92675000  1
  C  C110  1  0.88851400  0.16254500  0.07325000  1
  C  C111  1  0.88373600  0.84230900  0.09594400  1
  C  C112  1  0.11626400  0.15769100  0.90405600  1
  C  C113  1  0.61626500  0.34230900  0.90405500  1
  C  C114  1  0.38373600  0.65769100  0.09594500  1
  C  C115  1  0.38851400  0.33745500  0.07325000  1
  C  C116  1  0.61148600  0.66254500  0.92674900  1
  C  C117  1  0.11903800  0.79027400  0.85181400  1
  C  C118  1  0.88096200  0.20972600  0.14818600  1
  C  C119  1  0.87542800  0.79768100  0.17365600  1
  C  C120  1  0.12457200  0.20231800  0.82634300  1
  C  C121  1  0.62457300  0.29768200  0.82634200  1
  C  C122  1  0.37542700  0.70231800  0.17365700  1
  C  C123  1  0.38096200  0.29027400  0.14818700  1
  C  C124  1  0.61903800  0.70972600  0.85181300  1
  C  C125  1  0.16481600  0.74874700  0.80513300  1
  C  C126  1  0.83518500  0.25125300  0.19486700  1
  C  C127  1  0.82948900  0.75579800  0.22119800  1
  C  C128  1  0.17051100  0.24420200  0.77880100  1
  C  C129  1  0.67051200  0.25579800  0.77880100  1
  C  C130  1  0.32948800  0.74420200  0.22119900  1
  C  C131  1  0.33518500  0.24874700  0.19486700  1
  C  C132  1  0.66481600  0.75125300  0.80513200  1
  C  C133  1  0.19017400  0.72965500  0.85521800  1
  C  C134  1  0.80982700  0.27034500  0.14478200  1
  C  C135  1  0.80404900  0.73577000  0.17117800  1
  C  C136  1  0.19595200  0.26423000  0.82882100  1
  C  C137  1  0.69595200  0.23576900  0.82882100  1
  C  C138  1  0.30404900  0.76423100  0.17117800  1
  C  C139  1  0.30982700  0.22965400  0.14478200  1
  C  C140  1  0.69017300  0.77034600  0.85521800  1
  C  C141  1  0.18311100  0.77264900  0.93178700  1
  C  C142  1  0.81689000  0.22735100  0.06821300  1
  C  C143  1  0.81110100  0.77811600  0.09406400  1
  C  C144  1  0.18889900  0.22188400  0.90593600  1
  C  C145  1  0.68889900  0.27811600  0.90593600  1
  C  C146  1  0.31110100  0.72188400  0.09406400  1
  C  C147  1  0.31689000  0.27264900  0.06821200  1
  C  C148  1  0.68311000  0.72735100  0.93178700  1
  C  C149  1  0.14654100  0.88028200  0.02853500  1
  C  C150  1  0.85346000  0.11971800  0.97146500  1
  C  C151  1  0.84795400  0.88516800  0.99615300  1
  C  C152  1  0.15204600  0.11483200  0.00384700  1
  C  C153  1  0.65204700  0.38516800  0.00384500  1
  C  C154  1  0.34795400  0.61483200  0.99615400  1
  C  C155  1  0.35346000  0.38028200  0.97146500  1
  C  C156  1  0.64654100  0.61971800  0.02853400  1
  C  C157  1  0.17877500  0.86958700  0.06691800  1
  C  C158  1  0.82122500  0.13041300  0.93308200  1
  C  C159  1  0.81548700  0.87471500  0.95844100  1
  C  C160  1  0.18451300  0.12528600  0.04155900  1
  C  C161  1  0.68451300  0.37471500  0.04155800  1
  C  C162  1  0.31548800  0.62528600  0.95844100  1
  C  C163  1  0.32122500  0.36958700  0.93308200  1
  C  C164  1  0.67877500  0.63041300  0.06691700  1
  C  C165  1  0.22107000  0.66666667  0.83151200  1
  C  C166  1  0.77893000  0.33328100  0.16848800  1
  C  C167  1  0.77265600  0.67315100  0.19572400  1
  C  C168  1  0.22734400  0.32684900  0.80427500  1
  C  C169  1  0.72734300  0.17315000  0.80427600  1
  C  C170  1  0.27265700  0.82685000  0.19572400  1
  C  C171  1  0.27893100  0.16671800  0.16848700  1
  C  C172  1  0.72106900  0.83328200  0.83151300  1
  C  C173  1  0.24941200  0.65069400  0.87566100  1
  C  C174  1  0.75058800  0.34930600  0.12433900  1
  C  C175  1  0.74413100  0.65698700  0.15176900  1
  C  C176  1  0.25586900  0.34301300  0.84823100  1
  C  C177  1  0.75586700  0.15698600  0.84823300  1
  C  C178  1  0.24413300  0.84301400  0.15176700  1
  C  C179  1  0.25058900  0.15069300  0.12433700  1
  C  C180  1  0.74941100  0.84930700  0.87566200  1
  C  C181  1  0.92620600  0.90023400  0.05985100  1
  C  C182  1  0.07379500  0.09976600  0.94014900  1
  C  C183  1  0.07110600  0.89776900  0.95506200  1
  C  C184  1  0.92889400  0.10223100  0.04493800  1
  C  C185  1  0.42889500  0.39776900  0.04493800  1
  C  C186  1  0.57110600  0.60223200  0.95506100  1
  C  C187  1  0.57379500  0.40023400  0.94014800  1
  C  C188  1  0.42620500  0.59976600  0.05985100  1
  C  C189  1  0.07640400  0.77363300  0.83019800  1
  C  C190  1  0.92359600  0.22636700  0.16980100  1
  C  C191  1  0.91752200  0.78418500  0.19765200  1
  C  C192  1  0.08247800  0.21581500  0.80234800  1
  C  C193  1  0.58247900  0.28418500  0.80234700  1
  C  C194  1  0.41752100  0.71581500  0.19765300  1
  C  C195  1  0.42359600  0.27363300  0.16980300  1
  C  C196  1  0.57640400  0.72636700  0.83019700  1
  O  O1  1  0.25259000  0.87206200  0.52553100  1
  O  O2  1  0.74741000  0.12793800  0.47446900  1
  O  O3  1  0.74015800  0.87820900  0.50769600  1
  O  O4  1  0.25984300  0.12179100  0.49230400  1
  O  O5  1  0.75984300  0.37820900  0.49230300  1
  O  O6  1  0.24015700  0.62179100  0.50769700  1
  O  O7  1  0.24741000  0.37206200  0.47446900  1
  O  O8  1  0.75259100  0.62793800  0.52553000  1
  O  O9  1  0.17583600  0.78554000  0.65264700  1
  O  O10  1  0.82416400  0.21445900  0.34735300  1
  O  O11  1  0.81712200  0.79467900  0.37418100  1
  O  O12  1  0.18287800  0.20532100  0.62581900  1
  O  O13  1  0.68287900  0.29467900  0.62581900  1
  O  O14  1  0.31712100  0.70532100  0.37418100  1
  O  O15  1  0.32416400  0.28554000  0.34735300  1
  O  O16  1  0.67583700  0.71446000  0.65264700  1
  O  O17  1  0.25901000  0.79073800  0.37367400  1
  O  O18  1  0.74099000  0.20926200  0.62632600  1
  O  O19  1  0.73739800  0.79338200  0.65345400  1
  O  O20  1  0.26260300  0.20661800  0.34654600  1
  O  O21  1  0.76260300  0.29338100  0.34654600  1
  O  O22  1  0.23739800  0.70661900  0.65345400  1
  O  O23  1  0.24098900  0.29073800  0.62632600  1
  O  O24  1  0.75901100  0.70926200  0.37367400  1
  O  O25  1  0.17749900  0.69909400  0.50865800  1
  O  O26  1  0.82250100  0.30090600  0.49134100  1
  O  O27  1  0.81848300  0.70464500  0.51288700  1
  O  O28  1  0.18151700  0.29535500  0.48711300  1
  O  O29  1  0.68151700  0.20464500  0.48711400  1
  O  O30  1  0.31848300  0.79535500  0.51288600  1
  O  O31  1  0.32250100  0.19909400  0.49134200  1
  O  O32  1  0.67749900  0.80090600  0.50865700  1
  O  O33  1  0.06098800  0.92179300  0.88866800  1
  O  O34  1  0.93901200  0.07820700  0.11133200  1
  O  O35  1  0.93710100  0.93061700  0.12234600  1
  O  O36  1  0.06289900  0.06938300  0.87765400  1
  O  O37  1  0.56289900  0.43061800  0.87765300  1
  O  O38  1  0.43710100  0.56938200  0.12234600  1
  O  O39  1  0.43901200  0.42179300  0.11133200  1
  O  O40  1  0.56098800  0.57820700  0.88866800  1
  O  O41  1  0.95224100  0.91876800  0.96805600  1
  O  O42  1  0.04775900  0.08123200  0.03194300  1
  O  O43  1  0.04576500  0.92411500  0.04352000  1
  O  O44  1  0.95423500  0.07588500  0.95648000  1
  O  O45  1  0.45423500  0.42411500  0.95648000  1
  O  O46  1  0.54576500  0.57588500  0.04352000  1
  O  O47  1  0.54775900  0.41876800  0.03194200  1
  O  O48  1  0.45224100  0.58123200  0.96805700  1
  O  O49  1  0.03002200  0.78157900  0.89145400  1
  O  O50  1  0.96997800  0.21842100  0.10854600  1
  O  O51  1  0.96406100  0.79136500  0.13687600  1
  O  O52  1  0.03593900  0.20863500  0.86312400  1
  O  O53  1  0.53593900  0.29136500  0.86312300  1
  O  O54  1  0.46406100  0.70863500  0.13687700  1
  O  O55  1  0.46997800  0.28158000  0.10854800  1
  O  O56  1  0.53002200  0.71842000  0.89145200  1
