# generated using pymatgen
data_CuH16C26N5O4
_symmetry_space_group_name_H-M   'P 1'
_cell_length_a   12.60353000
_cell_length_b   14.01050800
_cell_length_c   19.29268200
_cell_angle_alpha   90.02171300
_cell_angle_beta   93.61879900
_cell_angle_gamma   98.22306200
_symmetry_Int_Tables_number   1
_chemical_formula_structural   CuH16C26N5O4
_chemical_formula_sum   'Cu2 H32 C52 N10 O8'
_cell_volume   3364.83653961
_cell_formula_units_Z   2
loop_
 _symmetry_equiv_pos_site_id
 _symmetry_equiv_pos_as_xyz
  1  'x, y, z'
loop_
 _atom_site_type_symbol
 _atom_site_label
 _atom_site_symmetry_multiplicity
 _atom_site_fract_x
 _atom_site_fract_y
 _atom_site_fract_z
 _atom_site_occupancy
  Cu  Cu1  1  0.39789300  0.51438500  0.50843200  1
  Cu  Cu2  1  0.61199600  0.52767800  0.51304000  1
  H  H1  1  0.33032000  0.52089900  0.15600300  1
  H  H2  1  0.68068000  0.53350400  0.86558200  1
  H  H3  1  0.67049100  0.52287300  0.17471000  1
  H  H4  1  0.33778500  0.50579700  0.84664800  1
  H  H5  1  0.66707500  0.52328300  0.29907200  1
  H  H6  1  0.34138200  0.50564800  0.72228300  1
  H  H7  1  0.02731800  0.62149800  0.54394500  1
  H  H8  1  0.98257600  0.42044800  0.47761100  1
  H  H9  1  0.26668000  0.57984400  0.27061700  1
  H  H10  1  0.09318700  0.50580800  0.25244100  1
  H  H11  1  0.96837900  0.35609100  0.23531200  1
  H  H12  1  0.03256100  0.19938800  0.25093200  1
  H  H13  1  0.22278100  0.19302700  0.28456300  1
  H  H14  1  0.34852100  0.34101500  0.30276600  1
  H  H15  1  0.75788400  0.59693000  0.75135900  1
  H  H16  1  0.91621400  0.53654900  0.77085200  1
  H  H17  1  0.00890400  0.39582600  0.78809000  1
  H  H18  1  0.90992500  0.23236300  0.77080000  1
  H  H19  1  0.71721300  0.21004700  0.73525100  1
  H  H20  1  0.62313900  0.34908700  0.71700100  1
  H  H21  1  0.31426900  0.01001900  0.53093500  1
  H  H22  1  0.15565000  0.99937400  0.46543200  1
  H  H23  1  0.06195600  0.99023400  0.35031100  1
  H  H24  1  0.15949100  0.96787000  0.24650100  1
  H  H25  1  0.35196300  0.95406100  0.25837300  1
  H  H26  1  0.44698600  0.96197200  0.37235600  1
  H  H27  1  0.70985500  0.00845500  0.53388300  1
  H  H28  1  0.74246500  0.23445000  0.50793700  1
  H  H29  1  0.80890200  0.31788100  0.40377400  1
  H  H30  1  0.79770200  0.23012200  0.29251800  1
  H  H31  1  0.72109800  0.05859400  0.28572300  1
  H  H32  1  0.65562000  0.97470800  0.38911100  1
  C  C1  1  0.48952100  0.33639200  0.50865800  1
  C  C2  1  0.52039900  0.70568500  0.51253000  1
  C  C3  1  0.49834800  0.52177600  0.37694800  1
  C  C4  1  0.51145600  0.51938000  0.64451700  1
  C  C5  1  0.40154700  0.51972000  0.25864400  1
  C  C6  1  0.60858700  0.52534500  0.76289200  1
  C  C7  1  0.40456400  0.52059600  0.18717400  1
  C  C8  1  0.60569100  0.52654400  0.83436000  1
  C  C9  1  0.50044900  0.52133300  0.15606200  1
  C  C10  1  0.50907700  0.51935200  0.86540800  1
  C  C11  1  0.59414200  0.52223100  0.19733300  1
  C  C12  1  0.41470800  0.51155400  0.82407200  1
  C  C13  1  0.59198700  0.52237000  0.26864500  1
  C  C14  1  0.41694800  0.51130100  0.75275900  1
  C  C15  1  0.49622100  0.52120100  0.30031600  1
  C  C16  1  0.51339000  0.51846500  0.72114800  1
  C  C17  1  0.50682800  0.52016700  0.94143900  1
  C  C18  1  0.50271400  0.52120100  0.08003000  1
  C  C19  1  0.52981900  0.80891000  0.51158800  1
  C  C20  1  0.48072400  0.23320400  0.50570700  1
  C  C21  1  0.55184900  0.99919000  0.50620700  1
  C  C22  1  0.46461600  0.04311700  0.49813400  1
  C  C23  1  0.47346100  0.14658100  0.50248800  1
  C  C24  1  0.53929300  0.89564800  0.50975500  1
  C  C25  1  0.02951100  0.48581600  0.49913700  1
  C  C26  1  0.98037500  0.55613800  0.52240500  1
  C  C27  1  0.86496400  0.54566300  0.51900500  1
  C  C28  1  0.14492100  0.49631700  0.50250600  1
  C  C29  1  0.23030000  0.43445300  0.27726800  1
  C  C30  1  0.12288000  0.43753300  0.25925600  1
  C  C31  1  0.05218000  0.35324200  0.24961400  1
  C  C32  1  0.08810600  0.26542700  0.25835000  1
  C  C33  1  0.19475200  0.26189000  0.27709000  1
  C  C34  1  0.26579300  0.34597500  0.28676500  1
  C  C35  1  0.76256800  0.45313900  0.74424500  1
  C  C36  1  0.87134800  0.46518500  0.76324000  1
  C  C37  1  0.92396700  0.38599400  0.77295600  1
  C  C38  1  0.86853700  0.29438500  0.76327900  1
  C  C39  1  0.76047100  0.28192300  0.74348600  1
  C  C40  1  0.70744700  0.36089900  0.73377300  1
  C  C41  1  0.30868200  0.98368500  0.42739500  1
  C  C42  1  0.20004000  0.99015100  0.42033300  1
  C  C43  1  0.14677600  0.98479000  0.35548600  1
  C  C44  1  0.20137300  0.97222400  0.29730500  1
  C  C45  1  0.30930800  0.96475200  0.30398500  1
  C  C46  1  0.36297700  0.97017400  0.36872700  1
  C  C47  1  0.69179500  0.10015800  0.45513100  1
  C  C48  1  0.73691900  0.19589200  0.45900600  1
  C  C49  1  0.77435600  0.24269100  0.40061300  1
  C  C50  1  0.76805900  0.19353600  0.33826700  1
  C  C51  1  0.72489600  0.09742900  0.33444800  1
  C  C52  1  0.68720700  0.05053900  0.39277600  1
  N  N1  1  0.59668200  0.52507800  0.04998000  1
  N  N2  1  0.41285300  0.51628200  0.97148800  1
  N  N3  1  0.59871600  0.52462500  0.98155800  1
  N  N4  1  0.41082900  0.51683400  0.03991300  1
  N  N5  1  0.23774000  0.50423900  0.50506000  1
  N  N6  1  0.77214500  0.53777200  0.51642600  1
  N  N7  1  0.30183100  0.52152100  0.28771500  1
  N  N8  1  0.70962600  0.53502600  0.73394200  1
  N  N9  1  0.36161500  0.98733900  0.49450400  1
  N  N10  1  0.65593900  0.05272800  0.51581300  1
  O  O1  1  0.40105600  0.37552600  0.50488500  1
  O  O2  1  0.60862500  0.66647800  0.51660600  1
  O  O3  1  0.58557300  0.38689000  0.51366700  1
  O  O4  1  0.42447500  0.65517800  0.50765000  1
  O  O5  1  0.40786600  0.51317900  0.40784500  1
  O  O6  1  0.60149500  0.52273500  0.61356600  1
  O  O7  1  0.59152400  0.52471400  0.41182100  1
  O  O8  1  0.41788300  0.51146300  0.60959100  1
