# generated using pymatgen
data_ZnH9C18N3O5
_symmetry_space_group_name_H-M   'P 1'
_cell_length_a   14.98416500
_cell_length_b   16.14191700
_cell_length_c   17.10520100
_cell_angle_alpha   89.64942100
_cell_angle_beta   93.56962200
_cell_angle_gamma   90.00822600
_symmetry_Int_Tables_number   1
_chemical_formula_structural   ZnH9C18N3O5
_chemical_formula_sum   'Zn2 H18 C36 N6 O10'
_cell_volume   4129.18455490
_cell_formula_units_Z   2
loop_
 _symmetry_equiv_pos_site_id
 _symmetry_equiv_pos_as_xyz
  1  'x, y, z'
loop_
 _atom_site_type_symbol
 _atom_site_label
 _atom_site_symmetry_multiplicity
 _atom_site_fract_x
 _atom_site_fract_y
 _atom_site_fract_z
 _atom_site_occupancy
  Zn  Zn1  1  0.60156700  0.49926000  0.50019800  1
  Zn  Zn2  1  0.39841600  0.50073900  0.49983400  1
  H  H1  1  0.62564900  0.49976500  0.25060000  1
  H  H2  1  0.37433700  0.50023700  0.74943300  1
  H  H3  1  0.61743700  0.49943900  0.11041300  1
  H  H4  1  0.38255300  0.50056800  0.88961900  1
  H  H5  1  0.66882200  0.49731200  0.89270900  1
  H  H6  1  0.33116800  0.50269400  0.10731800  1
  H  H7  1  0.66004500  0.49698300  0.75016400  1
  H  H8  1  0.33994100  0.50301800  0.24986300  1
  H  H9  1  0.63596700  0.08297800  0.49069100  1
  H  H10  1  0.36409900  0.91703800  0.50965700  1
  H  H11  1  0.08913700  0.40547400  0.58696200  1
  H  H12  1  0.91084400  0.59451200  0.41304700  1
  H  H13  1  0.92497400  0.40431000  0.58715100  1
  H  H14  1  0.07500800  0.59567700  0.41285800  1
  H  H15  1  0.74043600  0.84425400  0.56685400  1
  H  H16  1  0.71424500  0.80598700  0.47661800  1
  H  H17  1  0.25941800  0.15530200  0.43327900  1
  H  H18  1  0.28588400  0.19413300  0.52324700  1
  C  C1  1  0.49875600  0.33810900  0.49975700  1
  C  C2  1  0.50122900  0.66189000  0.50028600  1
  C  C3  1  0.51055700  0.49880700  0.65339800  1
  C  C4  1  0.48942600  0.50119200  0.34663200  1
  C  C5  1  0.51644200  0.49858900  0.73932600  1
  C  C6  1  0.48354300  0.50141200  0.26070400  1
  C  C7  1  0.43960200  0.49954100  0.78006900  1
  C  C8  1  0.56038400  0.50046200  0.21996200  1
  C  C9  1  0.44477200  0.49975800  0.86087400  1
  C  C10  1  0.55521700  0.50024800  0.13915700  1
  C  C11  1  0.52764700  0.49900000  0.90192000  1
  C  C12  1  0.47234300  0.50100700  0.09810900  1
  C  C13  1  0.60408900  0.49792200  0.86107500  1
  C  C14  1  0.39590000  0.50208400  0.13895300  1
  C  C15  1  0.59883500  0.49773300  0.78036400  1
  C  C16  1  0.40115200  0.50227000  0.21966400  1
  C  C17  1  0.58243900  0.96016800  0.49696500  1
  C  C18  1  0.41764700  0.03982800  0.50338600  1
  C  C19  1  0.50451000  0.91438900  0.50272300  1
  C  C20  1  0.49556000  0.08560600  0.49758500  1
  C  C21  1  0.42359400  0.95439100  0.50626700  1
  C  C22  1  0.57648400  0.04561000  0.49408300  1
  C  C23  1  0.50363100  0.82540200  0.50175100  1
  C  C24  1  0.49639800  0.17459400  0.49846700  1
  C  C25  1  0.49775100  0.24924900  0.49916400  1
  C  C26  1  0.50224800  0.75074800  0.50096700  1
  C  C27  1  0.95794200  0.44634400  0.54885200  1
  C  C28  1  0.04203900  0.55364100  0.45115600  1
  C  C29  1  0.90798700  0.49931900  0.50008900  1
  C  C30  1  0.09199400  0.50066800  0.49992200  1
  C  C31  1  0.95002900  0.55297100  0.45124900  1
  C  C32  1  0.04995200  0.44701400  0.54875900  1
  C  C33  1  0.81224900  0.49876100  0.50024600  1
  C  C34  1  0.18773300  0.50123300  0.49977500  1
  C  C35  1  0.67171500  0.92190200  0.49362600  1
  C  C36  1  0.32839500  0.07810900  0.50677400  1
  N  N1  1  0.53658300  0.49935000  0.98475900  1
  N  N2  1  0.46340900  0.50065800  0.01527000  1
  N  N3  1  0.26493700  0.50151500  0.49969600  1
  N  N4  1  0.73504600  0.49848300  0.50033400  1
  N  N5  1  0.68974400  0.84005200  0.52234700  1
  N  N6  1  0.31024400  0.15978300  0.47764000  1
  O  O1  1  0.57621600  0.37596900  0.49998900  1
  O  O2  1  0.42376700  0.62403000  0.50004700  1
  O  O3  1  0.42203300  0.37717200  0.49967700  1
  O  O4  1  0.57795000  0.62282600  0.50036000  1
  O  O5  1  0.58504600  0.49845700  0.61686100  1
  O  O6  1  0.41493800  0.50154200  0.38317100  1
  O  O7  1  0.43103800  0.49967600  0.61657200  1
  O  O8  1  0.56894300  0.50032300  0.38346000  1
  O  O9  1  0.73286200  0.96252000  0.46930300  1
  O  O10  1  0.26736200  0.03763200  0.53147800  1
