# generated using pymatgen
data_FeH17C37N4O8F3
_symmetry_space_group_name_H-M   'P 1'
_cell_length_a   14.00362300
_cell_length_b   16.07717400
_cell_length_c   23.90911300
_cell_angle_alpha   88.57754400
_cell_angle_beta   90.04908200
_cell_angle_gamma   114.17829000
_symmetry_Int_Tables_number   1
_chemical_formula_structural   FeH17C37N4O8F3
_chemical_formula_sum   'Fe2 H34 C74 N8 O16 F6'
_cell_volume   4908.88718503
_cell_formula_units_Z   2
loop_
 _symmetry_equiv_pos_site_id
 _symmetry_equiv_pos_as_xyz
  1  'x, y, z'
loop_
 _atom_site_type_symbol
 _atom_site_label
 _atom_site_symmetry_multiplicity
 _atom_site_fract_x
 _atom_site_fract_y
 _atom_site_fract_z
 _atom_site_occupancy
  Fe  Fe1  1  0.42625200  0.96027500  0.83734900  1
  Fe  Fe2  1  0.54482900  0.04350600  0.15757700  1
  H  H1  1  0.02335000  0.87799000  0.82718600  1
  H  H2  1  0.29413100  0.13700000  0.13562500  1
  H  H3  1  0.15285000  0.19178100  0.12742100  1
  H  H4  1  0.95779600  0.14772800  0.16377100  1
  H  H5  1  0.71459800  0.08818000  0.99907000  1
  H  H6  1  0.66224200  0.85043300  0.86432100  1
  H  H7  1  0.81813000  0.80781300  0.86336700  1
  H  H8  1  0.99462900  0.10109800  0.99289700  1
  H  H9  1  0.96467300  0.88075000  0.00104800  1
  H  H10  1  0.73851500  0.34931300  0.56501200  1
  H  H11  1  0.54417300  0.44709300  0.29049700  1
  H  H12  1  0.47581900  0.57525800  0.29084700  1
  H  H13  1  0.56105800  0.82329900  0.45874700  1
  H  H14  1  0.52934100  0.79483400  0.56857100  1
  H  H15  1  0.33782900  0.47092700  0.68849100  1
  H  H16  1  0.39977600  0.33781200  0.68782500  1
  H  H17  1  0.77938600  0.38269600  0.45584300  1
  H  H18  1  0.43044300  0.53750100  0.49206600  1
  H  H19  1  0.49875100  0.41205600  0.49185100  1
  H  H20  1  0.51810500  0.19644500  0.57652400  1
  H  H21  1  0.58683000  0.26245600  0.77564100  1
  H  H22  1  0.59737400  0.38283200  0.70899200  1
  H  H23  1  0.74840300  0.47756800  0.30600600  1
  H  H24  1  0.74906000  0.38061000  0.22918700  1
  H  H25  1  0.54467000  0.14644300  0.32474200  1
  H  H26  1  0.54169600  0.24388100  0.39960500  1
  H  H27  1  0.52038100  0.62329400  0.70362100  1
  H  H28  1  0.48621000  0.69985600  0.78161100  1
  H  H29  1  0.28769900  0.78107100  0.67954400  1
  H  H30  1  0.31282000  0.69477200  0.60183400  1
  H  H31  1  0.34632200  0.71603300  0.39195400  1
  H  H32  1  0.60470300  0.83753700  0.23876500  1
  H  H33  1  0.62892000  0.74081900  0.31130700  1
  H  H34  1  0.32507000  0.81888600  0.32053400  1
  C  C1  1  0.26829600  0.02252900  0.08061100  1
  C  C2  1  0.25153100  0.09398600  0.10200700  1
  C  C3  1  0.16489700  0.09528300  0.07608700  1
  C  C4  1  0.19258100  0.98547300  0.03917800  1
  C  C5  1  0.11783300  0.14757000  0.09277800  1
  C  C6  1  0.00917600  0.13072900  0.07981500  1
  C  C7  1  0.94079900  0.13401800  0.11999400  1
  C  C8  1  0.84553600  0.10993600  0.09455500  1
  C  C9  1  0.85956900  0.09415600  0.03906700  1
  C  C10  1  0.77669900  0.06482100  0.99655300  1
  C  C11  1  0.76879900  0.00136900  0.95994000  1
  C  C12  1  0.68736200  0.96079500  0.92292400  1
  C  C13  1  0.70679500  0.89338800  0.89750600  1
  C  C14  1  0.80019300  0.89785300  0.91847000  1
  C  C15  1  0.85160000  0.85145400  0.89845300  1
  C  C16  1  0.96141300  0.87419300  0.91181200  1
  C  C17  1  0.03585000  0.88419200  0.87179400  1
  C  C18  1  0.12886700  0.90595800  0.89944000  1
  C  C19  1  0.10678100  0.90608000  0.95613600  1
  C  C20  1  0.18019600  0.91939100  0.00272600  1
  C  C21  1  0.37538800  0.79879500  0.78165100  1
  C  C22  1  0.22759400  0.92558200  0.86960500  1
  C  C23  1  0.60010500  0.98409200  0.90631700  1
  C  C24  1  0.53300700  0.08851500  0.75759700  1
  C  C25  1  0.45438900  0.89909800  0.23236500  1
  C  C26  1  0.35673000  0.00394500  0.10111400  1
  C  C27  1  0.74868300  0.09107100  0.12574600  1
  C  C28  1  0.63032700  0.19962800  0.22275900  1
  C  C29  1  0.54542600  0.48712500  0.32632500  1
  C  C30  1  0.50933500  0.55446300  0.32639700  1
  C  C31  1  0.52136900  0.58622100  0.38024500  1
  C  C32  1  0.57860000  0.48068500  0.38013100  1
  C  C33  1  0.50042600  0.65549800  0.39742500  1
  C  C34  1  0.50031300  0.67322500  0.45759700  1
  C  C35  1  0.53073800  0.75793100  0.48073300  1
  C  C36  1  0.51436500  0.74298500  0.53776600  1
  C  C37  1  0.47396100  0.64957600  0.54710800  1
  C  C38  1  0.43658300  0.60149200  0.60151500  1
  C  C39  1  0.43806100  0.52004100  0.61246900  1
  C  C40  1  0.39065100  0.46349600  0.65803800  1
  C  C41  1  0.42353400  0.39407200  0.65776100  1
  C  C42  1  0.49037800  0.41135100  0.61226100  1
  C  C43  1  0.54690800  0.36452700  0.59923800  1
  C  C44  1  0.60426200  0.38333000  0.54555800  1
  C  C45  1  0.69454000  0.37093600  0.53525100  1
  C  C46  1  0.71597100  0.38852000  0.47874600  1
  C  C47  1  0.63835100  0.41154000  0.45708900  1
  C  C48  1  0.62228300  0.42468000  0.39740800  1
  C  C49  1  0.53522400  0.20948900  0.62026800  1
  C  C50  1  0.53336400  0.14101600  0.65740800  1
  C  C51  1  0.54984600  0.15988900  0.71433900  1
  C  C52  1  0.57316000  0.24709300  0.73183300  1
  C  C53  1  0.57825500  0.31493200  0.69418700  1
  C  C54  1  0.55401900  0.29529900  0.63869400  1
  C  C55  1  0.70534000  0.40449000  0.31041300  1
  C  C56  1  0.70539100  0.34976100  0.26700600  1
  C  C57  1  0.64500600  0.25714100  0.27105700  1
  C  C58  1  0.59153300  0.21890000  0.32026900  1
  C  C59  1  0.59030000  0.27377600  0.36309800  1
  C  C60  1  0.64277100  0.36690600  0.35706400  1
  C  C61  1  0.46484500  0.65372000  0.69839900  1
  C  C62  1  0.44575200  0.69725600  0.74274100  1
  C  C63  1  0.38209200  0.74290500  0.73621700  1
  C  C64  1  0.33601400  0.74360800  0.68519600  1
  C  C65  1  0.35069200  0.69552800  0.64135100  1
  C  C66  1  0.41495500  0.64983300  0.64793700  1
  C  C67  1  0.40321000  0.74283800  0.35835300  1
  C  C68  1  0.39079300  0.80026700  0.31767000  1
  C  C69  1  0.46131600  0.83276700  0.27348900  1
  C  C70  1  0.54617400  0.81013200  0.27151900  1
  C  C71  1  0.56016600  0.75538700  0.31289000  1
  C  C72  1  0.48718600  0.71883800  0.35559800  1
  C  C73  1  0.50683500  0.04720000  0.63564800  1
  C  C74  1  0.23188600  0.85422900  0.00833400  1
  N  N1  1  0.12946700  0.03062100  0.03732900  1
  N  N2  1  0.96015700  0.10667200  0.03044100  1
  N  N3  1  0.83780000  0.96275400  0.95692900  1
  N  N4  1  0.00423400  0.88750700  0.96311200  1
  N  N5  1  0.56240300  0.54031700  0.41329700  1
  N  N6  1  0.46513300  0.60760400  0.49808200  1
  N  N7  1  0.49720900  0.48716000  0.58387400  1
  N  N8  1  0.57007200  0.40722500  0.49771400  1
  O  O1  1  0.38445400  0.88174100  0.76991300  1
  O  O2  1  0.38374300  0.77414400  0.83346200  1
  O  O3  1  0.31789700  0.95042900  0.89511900  1
  O  O4  1  0.22495700  0.91804600  0.81509800  1
  O  O5  1  0.56847400  0.02555700  0.75059200  1
  O  O6  1  0.52071600  0.92076400  0.88153200  1
  O  O7  1  0.47432100  0.08330300  0.80168800  1
  O  O8  1  0.60975800  0.06880300  0.90594900  1
  O  O9  1  0.51328200  0.91874500  0.18688100  1
  O  O10  1  0.34379200  0.92185100  0.11798900  1
  O  O11  1  0.40418700  0.94931500  0.24542800  1
  O  O12  1  0.44164500  0.07429700  0.11517200  1
  O  O13  1  0.65971000  0.07369400  0.10037000  1
  O  O14  1  0.75040900  0.08714500  0.18057100  1
  O  O15  1  0.57176700  0.11226100  0.22889400  1
  O  O16  1  0.66590500  0.23548800  0.17310700  1
  F  F1  1  0.59138600  0.02446000  0.64213400  1
  F  F2  1  0.48321800  0.04381300  0.57939800  1
  F  F3  1  0.42064900  0.98414200  0.66402800  1
  F  F4  1  0.20215600  0.80604500  0.05859000  1
  F  F5  1  0.33953900  0.89999600  0.00476800  1
  F  F6  1  0.19862200  0.79181300  0.96612300  1
