# generated using pymatgen
data_VH11(C7O2)3
_symmetry_space_group_name_H-M   'P 1'
_cell_length_a   26.58600000
_cell_length_b   6.81800000
_cell_length_c   23.13240500
_cell_angle_alpha   90.00000000
_cell_angle_beta   102.11980600
_cell_angle_gamma   90.00000000
_symmetry_Int_Tables_number   1
_chemical_formula_structural   VH11(C7O2)3
_chemical_formula_sum   'V4 H44 C84 O24'
_cell_volume   4099.59694126
_cell_formula_units_Z   4
loop_
 _symmetry_equiv_pos_site_id
 _symmetry_equiv_pos_as_xyz
  1  'x, y, z'
loop_
 _atom_site_type_symbol
 _atom_site_label
 _atom_site_symmetry_multiplicity
 _atom_site_fract_x
 _atom_site_fract_y
 _atom_site_fract_z
 _atom_site_occupancy
  V  V1  1  0.74059200  0.25176400  0.24498900  1
  V  V2  1  0.25940800  0.74823400  0.75501100  1
  V  V3  1  0.75940900  0.75176600  0.25501100  1
  V  V4  1  0.24059100  0.24823400  0.74498900  1
  H  H1  1  0.05349300  0.62322400  0.42609800  1
  H  H2  1  0.94650700  0.37677600  0.57390200  1
  H  H3  1  0.44650600  0.12322400  0.07390200  1
  H  H4  1  0.55349400  0.87677600  0.92609800  1
  H  H5  1  0.90107900  0.87410600  0.38498600  1
  H  H6  1  0.09892100  0.12589400  0.61501400  1
  H  H7  1  0.59892100  0.37410600  0.11501400  1
  H  H8  1  0.40107900  0.62589400  0.88498600  1
  H  H9  1  0.13612800  0.60364400  0.48413200  1
  H  H10  1  0.86387200  0.39635600  0.51586800  1
  H  H11  1  0.36387200  0.10364300  0.01586800  1
  H  H12  1  0.63612800  0.89635600  0.98413200  1
  H  H13  1  0.96825300  0.75690600  0.40409300  1
  H  H14  1  0.03174700  0.24309400  0.59590700  1
  H  H15  1  0.53174700  0.25690700  0.09590700  1
  H  H16  1  0.46825300  0.74309300  0.90409300  1
  H  H17  1  0.84736800  0.34101000  0.12728400  1
  H  H18  1  0.15263300  0.65899000  0.87271600  1
  H  H19  1  0.65263300  0.84100900  0.37271600  1
  H  H20  1  0.34736800  0.15899100  0.62728400  1
  H  H21  1  0.91065200  0.32915200  0.06399700  1
  H  H22  1  0.08934800  0.67084800  0.93600300  1
  H  H23  1  0.58934800  0.82915200  0.43600200  1
  H  H24  1  0.41065200  0.17084800  0.56399700  1
  H  H25  1  0.92876900  0.71339800  0.09571600  1
  H  H26  1  0.07123100  0.28660200  0.90428400  1
  H  H27  1  0.57123100  0.21339900  0.40428400  1
  H  H28  1  0.42876900  0.78660100  0.59571600  1
  H  H29  1  0.86558100  0.72713100  0.15777700  1
  H  H30  1  0.13441900  0.27286900  0.84222300  1
  H  H31  1  0.63441900  0.22713100  0.34222300  1
  H  H32  1  0.36558200  0.77286800  0.65777700  1
  H  H33  1  0.96042800  0.69682500  0.02614900  1
  H  H34  1  0.03957200  0.30317500  0.97385100  1
  H  H35  1  0.53957200  0.19682500  0.47385100  1
  H  H36  1  0.46042800  0.80317500  0.52614900  1
  H  H37  1  0.02382400  0.68034200  0.96474200  1
  H  H38  1  0.97617600  0.31965800  0.03525700  1
  H  H39  1  0.47617600  0.18034200  0.53525700  1
  H  H40  1  0.52382400  0.81965800  0.46474200  1
  H  H41  1  0.75606900  0.27474500  0.38974600  1
  H  H42  1  0.24393200  0.72525500  0.61025300  1
  H  H43  1  0.74393200  0.77474500  0.11025400  1
  H  H44  1  0.25606800  0.22525500  0.88974600  1
  C  C1  1  0.68653100  0.53112500  0.31472500  1
  C  C2  1  0.31346900  0.46887400  0.68527400  1
  C  C3  1  0.81346800  0.03112600  0.18527600  1
  C  C4  1  0.18653200  0.96887400  0.81472400  1
  C  C5  1  0.69000400  0.54008600  0.15291700  1
  C  C6  1  0.30999600  0.45991400  0.84708300  1
  C  C7  1  0.80999500  0.04008800  0.34708200  1
  C  C8  1  0.19000500  0.95991200  0.65291800  1
  C  C9  1  0.15334800  0.92337600  0.59717200  1
  C  C10  1  0.84665200  0.07662400  0.40282800  1
  C  C11  1  0.34665200  0.42337600  0.90282800  1
  C  C12  1  0.65334800  0.57662500  0.09717200  1
  C  C13  1  0.12764400  0.71989600  0.51239700  1
  C  C14  1  0.87235600  0.28010400  0.48760200  1
  C  C15  1  0.37235700  0.21989800  0.98760300  1
  C  C16  1  0.62764300  0.78010200  0.01239700  1
  C  C17  1  0.16402000  0.77558700  0.56094300  1
  C  C18  1  0.83598000  0.22441200  0.43905700  1
  C  C19  1  0.33597900  0.27558700  0.93905600  1
  C  C20  1  0.66402100  0.72441300  0.06094400  1
  C  C21  1  0.10591200  0.01564000  0.58445000  1
  C  C22  1  0.89408800  0.98436000  0.41555000  1
  C  C23  1  0.39408800  0.51564000  0.91555000  1
  C  C24  1  0.60591200  0.48436000  0.08445000  1
  C  C25  1  0.06807000  0.95497700  0.53630200  1
  C  C26  1  0.93193000  0.04502300  0.46369800  1
  C  C27  1  0.43193000  0.45497800  0.96369700  1
  C  C28  1  0.56807100  0.54502200  0.03630200  1
  C  C29  1  0.07984900  0.80660000  0.50066100  1
  C  C30  1  0.92015100  0.19339900  0.49933900  1
  C  C31  1  0.42014900  0.30659700  0.99933900  1
  C  C32  1  0.57985100  0.69340300  0.00066100  1
  C  C33  1  0.01844600  0.03487600  0.52388800  1
  C  C34  1  0.98155400  0.96512400  0.47611200  1
  C  C35  1  0.48155500  0.53487900  0.97611100  1
  C  C36  1  0.51844500  0.46512100  0.02388800  1
  C  C37  1  0.99496200  0.81720800  0.44118200  1
  C  C38  1  0.00503900  0.18279100  0.55881800  1
  C  C39  1  0.50503900  0.31721000  0.05881800  1
  C  C40  1  0.49496100  0.68279000  0.94118200  1
  C  C41  1  0.04370400  0.73983900  0.45342500  1
  C  C42  1  0.95629600  0.26016200  0.54657500  1
  C  C43  1  0.45629700  0.23984000  0.04657500  1
  C  C44  1  0.54370300  0.76016000  0.95342500  1
  C  C45  1  0.86518000  0.20288000  0.12037500  1
  C  C46  1  0.13482000  0.79712000  0.87962500  1
  C  C47  1  0.63482100  0.70288000  0.37962400  1
  C  C48  1  0.36517900  0.29712000  0.62037600  1
  C  C49  1  0.90133900  0.19569300  0.08457900  1
  C  C50  1  0.09866100  0.80430700  0.91542100  1
  C  C51  1  0.59866100  0.69569300  0.41542100  1
  C  C52  1  0.40133900  0.30430700  0.58457800  1
  C  C53  1  0.92460800  0.01988900  0.07437600  1
  C  C54  1  0.07539200  0.98011100  0.92562300  1
  C  C55  1  0.57539200  0.51989000  0.42562300  1
  C  C56  1  0.42460800  0.48011000  0.57437700  1
  C  C57  1  0.91105400  0.85240700  0.10137000  1
  C  C58  1  0.08894600  0.14759300  0.89862900  1
  C  C59  1  0.58894600  0.35240700  0.39863000  1
  C  C60  1  0.41105400  0.64759300  0.60137000  1
  C  C61  1  0.87531500  0.86011300  0.13714700  1
  C  C62  1  0.12468500  0.13988800  0.86285300  1
  C  C63  1  0.62468600  0.36011100  0.36285200  1
  C  C64  1  0.37531400  0.63988900  0.63714800  1
  C  C65  1  0.85185000  0.03433000  0.14699000  1
  C  C66  1  0.14815000  0.96566900  0.85301000  1
  C  C67  1  0.64815000  0.53433300  0.35301000  1
  C  C68  1  0.35185000  0.46566700  0.64699000  1
  C  C69  1  0.97780800  0.83148900  0.01562700  1
  C  C70  1  0.02219200  0.16851100  0.98437300  1
  C  C71  1  0.52219100  0.33148900  0.48437300  1
  C  C72  1  0.47780900  0.66851100  0.51562600  1
  C  C73  1  0.01409100  0.82174700  0.98030200  1
  C  C74  1  0.98590900  0.17825300  0.01969800  1
  C  C75  1  0.48591000  0.32174600  0.51969800  1
  C  C76  1  0.51409000  0.67825400  0.48030200  1
  C  C77  1  0.03679400  0.99009000  0.96404700  1
  C  C78  1  0.96320600  0.00991100  0.03595300  1
  C  C79  1  0.46320500  0.49009000  0.53595300  1
  C  C80  1  0.53679400  0.50991100  0.46404700  1
  C  C81  1  0.78597700  0.32262900  0.42635100  1
  C  C82  1  0.21402300  0.67737100  0.57364900  1
  C  C83  1  0.71402300  0.82262900  0.07364800  1
  C  C84  1  0.28597700  0.17737000  0.92635100  1
  O  O1  1  0.71117200  0.70265900  0.17929000  1
  O  O2  1  0.28882800  0.29734100  0.82071000  1
  O  O3  1  0.78882800  0.20265800  0.32071000  1
  O  O4  1  0.21117300  0.79734200  0.67928900  1
  O  O5  1  0.69174600  0.35563500  0.29095100  1
  O  O6  1  0.30825300  0.64436600  0.70904900  1
  O  O7  1  0.80825400  0.85563700  0.20904800  1
  O  O8  1  0.19174600  0.14436300  0.79095200  1
  O  O9  1  0.69371800  0.35667900  0.17377000  1
  O  O10  1  0.30628200  0.64332200  0.82623000  1
  O  O11  1  0.80628200  0.85667900  0.32623200  1
  O  O12  1  0.19371800  0.14332100  0.67376800  1
  O  O13  1  0.79156700  0.20169700  0.19582500  1
  O  O14  1  0.20843300  0.79830400  0.80417500  1
  O  O15  1  0.70843400  0.70169800  0.30417400  1
  O  O16  1  0.29156700  0.29830100  0.69582600  1
  O  O17  1  0.78244500  0.52311600  0.26094800  1
  O  O18  1  0.21755500  0.47688500  0.73905100  1
  O  O19  1  0.71755500  0.02311600  0.23905200  1
  O  O20  1  0.28244500  0.97688300  0.76094800  1
  O  O21  1  0.77753100  0.45691200  0.45778500  1
  O  O22  1  0.22246900  0.54308800  0.54221500  1
  O  O23  1  0.72246900  0.95691100  0.04221500  1
  O  O24  1  0.27753100  0.04308900  0.95778500  1
