# generated using pymatgen
data_Fe2H25C53N5O17
_symmetry_space_group_name_H-M   'P 1'
_cell_length_a   14.00631100
_cell_length_b   9.21832100
_cell_length_c   25.65804500
_cell_angle_alpha   94.62319900
_cell_angle_beta   89.68572200
_cell_angle_gamma   68.84023100
_symmetry_Int_Tables_number   1
_chemical_formula_structural   Fe2H25C53N5O17
_chemical_formula_sum   'Fe2 H25 C53 N5 O17'
_cell_volume   3077.28698485
_cell_formula_units_Z   1
loop_
 _symmetry_equiv_pos_site_id
 _symmetry_equiv_pos_as_xyz
  1  'x, y, z'
loop_
 _atom_site_type_symbol
 _atom_site_label
 _atom_site_symmetry_multiplicity
 _atom_site_fract_x
 _atom_site_fract_y
 _atom_site_fract_z
 _atom_site_occupancy
  Fe  Fe1  1  0.45966100  0.10460300  0.86667800  1
  Fe  Fe2  1  0.53747300  0.90081600  0.13119900  1
  H  H1  1  0.05337800  0.35166200  0.87821900  1
  H  H2  1  0.30650000  0.60905300  0.08946000  1
  H  H3  1  0.13695700  0.57584200  0.08317300  1
  H  H4  1  0.94457100  0.65513000  0.12107500  1
  H  H5  1  0.69418800  0.93098600  0.98844200  1
  H  H6  1  0.69245400  0.39010200  0.90788400  1
  H  H7  1  0.86138200  0.42506100  0.91487100  1
  H  H8  1  0.30486100  0.06866900  0.00913500  1
  H  H9  1  0.98369300  0.85052900  0.98208100  1
  H  H10  1  0.01510400  0.14742000  0.01532700  1
  H  H11  1  0.56332700  0.43190200  0.15771200  1
  H  H12  1  0.49062800  0.68763500  0.30571700  1
  H  H13  1  0.34175300  0.69766600  0.54056500  1
  H  H14  1  0.34730000  0.73368800  0.63461000  1
  H  H15  1  0.64556200  0.38419400  0.63031100  1
  H  H16  1  0.64857100  0.35971500  0.53565800  1
  H  H17  1  0.51167500  0.32272100  0.69106800  1
  H  H18  1  0.44244100  0.56334200  0.84269800  1
  H  H19  1  0.47112700  0.80537000  0.71186500  1
  H  H20  1  0.60149600  0.26438800  0.46463600  1
  H  H21  1  0.60921600  0.23695100  0.37077900  1
  H  H22  1  0.37664200  0.68976900  0.36897300  1
  H  H23  1  0.38186000  0.73018400  0.46204900  1
  H  H24  1  0.42055300  0.07375400  0.32927400  1
  H  H25  1  0.39721000  0.25938700  0.35317700  1
  C  C1  1  0.30307700  0.82237500  0.05570700  1
  C  C2  1  0.26780000  0.70749500  0.06740200  1
  C  C3  1  0.16967300  0.75045900  0.05000600  1
  C  C4  1  0.22584200  0.92814600  0.02980100  1
  C  C5  1  0.10751900  0.67544600  0.06026700  1
  C  C6  1  0.99711500  0.73640700  0.05223900  1
  C  C7  1  0.92751100  0.71462700  0.08572500  1
  C  C8  1  0.83219400  0.79127500  0.06717100  1
  C  C9  1  0.84730600  0.85573600  0.02236400  1
  C  C10  1  0.76582200  0.95048600  0.99006200  1
  C  C11  1  0.77336200  0.07105000  0.96751500  1
  C  C12  1  0.69629500  0.17623900  0.94139900  1
  C  C13  1  0.73135400  0.29143400  0.92980700  1
  C  C14  1  0.82927200  0.24913100  0.94746900  1
  C  C15  1  0.89101500  0.32521600  0.93766000  1
  C  C16  1  0.00130500  0.26576400  0.94609700  1
  C  C17  1  0.07062300  0.29051300  0.91322400  1
  C  C18  1  0.16602500  0.21386400  0.93166100  1
  C  C19  1  0.15128000  0.14613000  0.97579900  1
  C  C20  1  0.23315100  0.04944400  0.00756500  1
  C  C21  1  0.44741500  0.83494600  0.81839600  1
  C  C22  1  0.26071200  0.19237800  0.90228500  1
  C  C23  1  0.59749700  0.17354900  0.92412100  1
  C  C24  1  0.47916400  0.28857100  0.79138200  1
  C  C25  1  0.51889300  0.71474300  0.20622900  1
  C  C26  1  0.40142200  0.82574700  0.07351500  1
  C  C27  1  0.73721800  0.81462200  0.09657600  1
  C  C28  1  0.55427800  0.16517100  0.18303400  1
  C  C29  1  0.53995600  0.30432600  0.21967900  1
  C  C30  1  0.51610000  0.31154200  0.27300700  1
  C  C31  1  0.50096700  0.44916100  0.30479800  1
  C  C32  1  0.50196400  0.57985200  0.28217200  1
  C  C33  1  0.52508100  0.57263900  0.22979900  1
  C  C34  1  0.54749200  0.43421600  0.19908800  1
  C  C35  1  0.41170700  0.63269600  0.55872700  1
  C  C36  1  0.41406100  0.65353800  0.61255600  1
  C  C37  1  0.49738900  0.56343100  0.63853900  1
  C  C38  1  0.58015700  0.45630600  0.61018500  1
  C  C39  1  0.58028800  0.44026600  0.55620600  1
  C  C40  1  0.49479700  0.52520600  0.52966100  1
  C  C41  1  0.49702600  0.42850000  0.71644400  1
  C  C42  1  0.47545100  0.43051800  0.76891000  1
  C  C43  1  0.45491200  0.56562000  0.80123400  1
  C  C44  1  0.45848400  0.69870700  0.78164100  1
  C  C45  1  0.47326100  0.69977200  0.72817600  1
  C  C46  1  0.49117100  0.56445400  0.69551700  1
  C  C47  1  0.55305800  0.36119700  0.44457100  1
  C  C48  1  0.55457600  0.34225100  0.39051900  1
  C  C49  1  0.49146200  0.45947900  0.36244600  1
  C  C50  1  0.42742000  0.59601900  0.38961000  1
  C  C51  1  0.42880700  0.61763800  0.44338500  1
  C  C52  1  0.49195200  0.50074200  0.47180500  1
  C  C53  1  0.50639500  0.17513100  0.29499100  1
  N  N1  1  0.14363800  0.88436900  0.02652600  1
  N  N2  1  0.94863100  0.82214400  0.01358600  1
  N  N3  1  0.85535900  0.11530000  0.97099500  1
  N  N4  1  0.05003300  0.17816600  0.98430800  1
  N  N5  1  0.41161100  0.18500300  0.31888900  1
  O  O1  1  0.48359700  0.94142700  0.80624100  1
  O  O2  1  0.40849000  0.84399100  0.86569500  1
  O  O3  1  0.35138100  0.13099700  0.92205500  1
  O  O4  1  0.25417900  0.22789200  0.85364100  1
  O  O5  1  0.55443300  0.15651900  0.77747500  1
  O  O6  1  0.58478100  0.04267600  0.90806100  1
  O  O7  1  0.41495000  0.29793100  0.83013100  1
  O  O8  1  0.52787100  0.30616800  0.91335900  1
  O  O9  1  0.58370700  0.70826700  0.16815300  1
  O  O10  1  0.47039400  0.69412100  0.08555700  1
  O  O11  1  0.44172300  0.84508900  0.21948400  1
  O  O12  1  0.41388400  0.95738400  0.08865900  1
  O  O13  1  0.64670700  0.87730700  0.07673600  1
  O  O14  1  0.74343500  0.77866500  0.14516100  1
  O  O15  1  0.50901500  0.06591100  0.19134000  1
  O  O16  1  0.60534100  0.14846300  0.13856600  1
  O  O17  1  0.57697600  0.04936900  0.28907900  1
