# generated using pymatgen
data_Cu3H28C44(ClO3)4
_symmetry_space_group_name_H-M   'P 1'
_cell_length_a   18.79989900
_cell_length_b   18.67973800
_cell_length_c   18.89069200
_cell_angle_alpha   108.94401400
_cell_angle_beta   110.15362200
_cell_angle_gamma   108.97330000
_symmetry_Int_Tables_number   1
_chemical_formula_structural   Cu3H28C44(ClO3)4
_chemical_formula_sum   'Cu6 H56 C88 Cl8 O24'
_cell_volume   5127.76636068
_cell_formula_units_Z   2
loop_
 _symmetry_equiv_pos_site_id
 _symmetry_equiv_pos_as_xyz
  1  'x, y, z'
loop_
 _atom_site_type_symbol
 _atom_site_label
 _atom_site_symmetry_multiplicity
 _atom_site_fract_x
 _atom_site_fract_y
 _atom_site_fract_z
 _atom_site_occupancy
  Cu  Cu1  1  0.47401700  0.39955700  0.41787400  1
  Cu  Cu2  1  0.46505800  0.51887200  0.52782400  1
  Cu  Cu3  1  0.91916900  0.44414100  0.99257200  1
  Cu  Cu4  1  0.03761200  0.55319300  0.98116600  1
  Cu  Cu5  1  0.04625100  0.97462500  0.56920500  1
  Cu  Cu6  1  0.92856900  0.99308100  0.46484700  1
  H  H1  1  0.66998400  0.36989400  0.59131300  1
  H  H2  1  0.59501100  0.33679300  0.62678600  1
  H  H3  1  0.70069200  0.35685800  0.74764600  1
  H  H4  1  0.76952800  0.37095400  0.70270800  1
  H  H5  1  0.74861300  0.51515100  0.62493800  1
  H  H6  1  0.67735800  0.58205200  0.77495600  1
  H  H7  1  0.70276100  0.47163500  0.84916400  1
  H  H8  1  0.77070200  0.58255700  0.88326300  1
  H  H9  1  0.74746200  0.60313100  0.69813000  1
  H  H10  1  0.84767000  0.61983100  0.81428300  1
  H  H11  1  0.24960400  0.11108700  0.51687600  1
  H  H12  1  0.16508200  0.22633700  0.52737100  1
  H  H13  1  0.37075200  0.24624200  0.54308700  1
  H  H14  1  0.22023600  0.47595800  0.34754100  1
  H  H15  1  0.27715500  0.42267300  0.21442600  1
  H  H16  1  0.69945700  0.81516000  0.44112000  1
  H  H17  1  0.82105000  0.77382100  0.55630100  1
  H  H18  1  0.59402200  0.72167700  0.47166400  1
  H  H19  1  0.70260400  0.63078200  0.46536200  1
  H  H20  1  0.97902700  0.22728200  0.63735600  1
  H  H21  1  0.04324800  0.37384000  0.77677800  1
  H  H22  1  0.92066800  0.23301900  0.79215900  1
  H  H23  1  0.92058700  0.78667700  0.24957300  1
  H  H24  1  0.98398700  0.63120800  0.23984700  1
  H  H25  1  0.22165100  0.38514800  0.47691000  1
  H  H26  1  0.96327400  0.20014600  0.26915600  1
  H  H27  1  0.00378300  0.08542200  0.24342700  1
  H  H28  1  0.15234300  0.11972100  0.33578400  1
  H  H29  1  0.03452400  0.29543100  0.14567900  1
  H  H30  1  0.83822100  0.33550700  0.18638300  1
  H  H31  1  0.93485000  0.49369400  0.26337000  1
  H  H32  1  0.08037200  0.55294600  0.27934800  1
  H  H33  1  0.23078200  0.48408800  0.06712500  1
  H  H34  1  0.48841000  0.69565400  0.24761000  1
  H  H35  1  0.44860500  0.73017600  0.36050200  1
  H  H36  1  0.30022400  0.64221400  0.32717900  1
  H  H37  1  0.97245700  0.05940100  0.76813100  1
  H  H38  1  0.17404100  0.21542400  0.03243200  1
  H  H39  1  0.23337000  0.33583000  0.00586500  1
  H  H40  1  0.16332100  0.31864000  0.86116200  1
  H  H41  1  0.03667200  0.66114400  0.38602300  1
  H  H42  1  0.28318500  0.84924500  0.61201000  1
  H  H43  1  0.28308800  0.95994100  0.56862100  1
  H  H44  1  0.16055800  0.92153500  0.43371500  1
  H  H45  1  0.15876700  0.84417700  0.28750700  1
  H  H46  1  0.11386100  0.00264700  0.17839100  1
  H  H47  1  0.96751700  0.88082600  0.06453400  1
  H  H48  1  0.91613200  0.74091900  0.06266700  1
  H  H49  1  0.81742400  0.42578900  0.62996800  1
  H  H50  1  0.07991600  0.56485500  0.69686500  1
  H  H51  1  0.10244800  0.69136300  0.81538700  1
  H  H52  1  0.98458600  0.68559600  0.84402800  1
  H  H53  1  0.55407000  0.58136000  0.76114900  1
  H  H54  1  0.34800900  0.36994900  0.73128200  1
  H  H55  1  0.42695700  0.28812300  0.72515800  1
  H  H56  1  0.56789400  0.35062100  0.73628600  1
  C  C1  1  0.35587200  0.34273700  0.47474000  1
  C  C2  1  0.58733100  0.46788100  0.59773000  1
  C  C3  1  0.58359600  0.57566500  0.47094400  1
  C  C4  1  0.34970000  0.44872300  0.34828400  1
  C  C5  1  0.65893200  0.38902100  0.64687100  1
  C  C6  1  0.73064300  0.39697600  0.72303600  1
  C  C7  1  0.74498000  0.53974000  0.68465000  1
  C  C8  1  0.65917000  0.51316100  0.75517400  1
  C  C9  1  0.66043500  0.47585400  0.67058900  1
  C  C10  1  0.78790500  0.49120900  0.79487300  1
  C  C11  1  0.82101100  0.55357100  0.76163300  1
  C  C12  1  0.73076600  0.51572900  0.82705700  1
  C  C13  1  0.23993700  0.16513100  0.51657900  1
  C  C14  1  0.17330700  0.17071900  0.52321200  1
  C  C15  1  0.30389200  0.23254400  0.51231100  1
  C  C16  1  0.28516900  0.27631900  0.47131000  1
  C  C17  1  0.15172300  0.46270400  0.21999000  1
  C  C18  1  0.16713300  0.50243200  0.17432300  1
  C  C19  1  0.22135900  0.46340300  0.28789000  1
  C  C20  1  0.28016600  0.44318900  0.27652500  1
  C  C21  1  0.71765000  0.78011400  0.47324700  1
  C  C22  1  0.80126200  0.80203400  0.51647500  1
  C  C23  1  0.64965700  0.71428900  0.47463800  1
  C  C24  1  0.65184100  0.64271500  0.47166400  1
  C  C25  1  0.96909000  0.37220500  0.87306200  1
  C  C26  1  0.85992700  0.49764500  0.86851300  1
  C  C27  1  0.98890700  0.62544600  0.10204500  1
  C  C28  1  0.09669900  0.50009400  0.10553000  1
  C  C29  1  0.00386800  0.10174700  0.64543100  1
  C  C30  1  0.10591600  0.10077000  0.51993100  1
  C  C31  1  0.97623100  0.87048300  0.38851700  1
  C  C32  1  0.86899500  0.86878100  0.51632500  1
  C  C33  1  0.99945300  0.23445600  0.70151400  1
  C  C34  1  0.01814200  0.17609600  0.71746100  1
  C  C35  1  0.00777700  0.30980000  0.76771700  1
  C  C36  1  0.96384500  0.29828900  0.80886200  1
  C  C37  1  0.01740500  0.76509500  0.31900600  1
  C  C38  1  0.96971500  0.80541400  0.31328800  1
  C  C39  1  0.99719600  0.69223400  0.24027200  1
  C  C40  1  0.00264200  0.70021100  0.17400900  1
  C  C41  1  0.19627000  0.25440900  0.41367500  1
  C  C42  1  0.17422600  0.31927900  0.42531700  1
  C  C43  1  0.09052200  0.29972300  0.37382400  1
  C  C44  1  0.02912600  0.21562800  0.30889900  1
  C  C45  1  0.05172600  0.15125000  0.29485300  1
  C  C46  1  0.13521600  0.17056400  0.34700100  1
  C  C47  1  0.06627400  0.42776000  0.21321800  1
  C  C48  1  0.01288000  0.33901200  0.17205600  1
  C  C49  1  0.93058800  0.30591100  0.16153700  1
  C  C50  1  0.90266100  0.36149000  0.19448900  1
  C  C51  1  0.95678800  0.45019200  0.23752300  1
  C  C52  1  0.03842800  0.48337600  0.24659100  1
  C  C53  1  0.25630300  0.55603900  0.19538400  1
  C  C54  1  0.27842900  0.53812400  0.13168200  1
  C  C55  1  0.36175700  0.58798100  0.15051600  1
  C  C56  1  0.42303900  0.65663400  0.23282800  1
  C  C57  1  0.40075500  0.67588600  0.29614300  1
  C  C58  1  0.31743800  0.62608300  0.27741200  1
  C  C59  1  0.06120800  0.18862100  0.80536000  1
  C  C60  1  0.02964300  0.12041700  0.82015200  1
  C  C61  1  0.06980300  0.13020600  0.90166800  1
  C  C62  1  0.14251500  0.20781100  0.96855500  1
  C  C63  1  0.17557200  0.27538800  0.95371200  1
  C  C64  1  0.13544100  0.26577300  0.87227300  1
  C  C65  1  0.08942200  0.78920200  0.40169300  1
  C  C66  1  0.09054700  0.72690800  0.42559100  1
  C  C67  1  0.15987900  0.74857700  0.50116300  1
  C  C68  1  0.22882200  0.83235200  0.55280900  1
  C  C69  1  0.22869200  0.89440100  0.52857100  1
  C  C70  1  0.15951300  0.87280100  0.45293100  1
  C  C71  1  0.03315400  0.78440500  0.17645300  1
  C  C72  1  0.11588200  0.85246300  0.23941300  1
  C  C73  1  0.14472500  0.93082400  0.24027800  1
  C  C74  1  0.09124300  0.94121500  0.17778000  1
  C  C75  1  0.00921800  0.87290600  0.11393600  1
  C  C76  1  0.98043700  0.79440700  0.11289800  1
  C  C77  1  0.89221300  0.55408300  0.74130500  1
  C  C78  1  0.87979700  0.48388000  0.67325400  1
  C  C79  1  0.94715300  0.48774500  0.65787500  1
  C  C80  1  0.02725000  0.56194200  0.70913800  1
  C  C81  1  0.03977800  0.63275800  0.77543800  1
  C  C82  1  0.97269400  0.62912400  0.79120400  1
  C  C83  1  0.57136500  0.47031800  0.74716200  1
  C  C84  1  0.52708300  0.51658200  0.75277600  1
  C  C85  1  0.44704000  0.48046200  0.74657300  1
  C  C86  1  0.41077000  0.39825000  0.73613800  1
  C  C87  1  0.45495300  0.35238800  0.73248200  1
  C  C88  1  0.53460800  0.38789100  0.73776300  1
  Cl  Cl1  1  0.06185000  0.38147800  0.39273900  1
  Cl  Cl2  1  0.86072600  0.19334100  0.10454500  1
  Cl  Cl3  1  0.38977500  0.56379000  0.06983700  1
  Cl  Cl4  1  0.02837700  0.04391100  0.92020300  1
  Cl  Cl5  1  0.16039600  0.66938300  0.53131900  1
  Cl  Cl6  1  0.24976100  0.01673000  0.32024000  1
  Cl  Cl7  1  0.93048300  0.39811100  0.57234400  1
  Cl  Cl8  1  0.39137400  0.53935700  0.75190300  1
  O  O1  1  0.36946600  0.31988600  0.40890300  1
  O  O2  1  0.39826700  0.42319000  0.53974500  1
  O  O3  1  0.54504000  0.39798800  0.52049000  1
  O  O4  1  0.57242900  0.53418300  0.61237400  1
  O  O5  1  0.57718500  0.49796500  0.44410600  1
  O  O6  1  0.53329800  0.59580100  0.49859900  1
  O  O7  1  0.40123800  0.41972300  0.33255600  1
  O  O8  1  0.35896700  0.48460100  0.42603700  1
  O  O9  1  0.90433200  0.35712500  0.88901300  1
  O  O10  1  0.03844300  0.44960000  0.91309200  1
  O  O11  1  0.84075900  0.47023700  0.91943200  1
  O  O12  1  0.93812300  0.52590600  0.87727200  1
  O  O13  1  0.95244300  0.54790300  0.09448100  1
  O  O14  1  0.01849600  0.63995000  0.05116700  1
  O  O15  1  0.01610100  0.43508600  0.06376100  1
  O  O16  1  0.11866800  0.56347900  0.08698200  1
  O  O17  1  0.06558100  0.08011100  0.65850000  1
  O  O18  1  0.93202500  0.06255200  0.56995200  1
  O  O19  1  0.12409600  0.04675500  0.54359100  1
  O  O20  1  0.02890700  0.09568200  0.49297500  1
  O  O21  1  0.00910700  0.87241600  0.46360000  1
  O  O22  1  0.94398400  0.92139900  0.37603900  1
  O  O23  1  0.95024800  0.90556000  0.57876900  1
  O  O24  1  0.84639200  0.88781200  0.45334600  1
