# generated using pymatgen
data_Zn3H32C56(NO9)2
_symmetry_space_group_name_H-M   'P 1'
_cell_length_a   21.80157200
_cell_length_b   21.80279900
_cell_length_c   46.88095600
_cell_angle_alpha   90.00000000
_cell_angle_beta   90.00000000
_cell_angle_gamma   90.00000000
_symmetry_Int_Tables_number   1
_chemical_formula_structural   Zn3H32C56(NO9)2
_chemical_formula_sum   'Zn12 H128 C224 N8 O72'
_cell_volume   22284.17291888
_cell_formula_units_Z   4
loop_
 _symmetry_equiv_pos_site_id
 _symmetry_equiv_pos_as_xyz
  1  'x, y, z'
loop_
 _atom_site_type_symbol
 _atom_site_label
 _atom_site_symmetry_multiplicity
 _atom_site_fract_x
 _atom_site_fract_y
 _atom_site_fract_z
 _atom_site_occupancy
  Zn  Zn1  1  0.49976000  0.50013400  0.95988900  1
  Zn  Zn2  1  0.00022900  0.99986400  0.45988900  1
  Zn  Zn3  1  0.50016700  0.50016700  0.02449500  1
  Zn  Zn4  1  0.99982600  0.99983400  0.52449500  1
  Zn  Zn5  1  0.43083000  0.99460500  0.99346700  1
  Zn  Zn6  1  0.00551900  0.43073100  0.99344900  1
  Zn  Zn7  1  0.56940600  0.00558900  0.99359000  1
  Zn  Zn8  1  0.99445300  0.56929200  0.99361200  1
  Zn  Zn9  1  0.93058900  0.49441000  0.49359300  1
  Zn  Zn10  1  0.50553800  0.93070400  0.49361300  1
  Zn  Zn11  1  0.06916500  0.50539400  0.49346500  1
  Zn  Zn12  1  0.49447200  0.06926500  0.49344700  1
  H  H1  1  0.59629900  0.98310000  0.13626600  1
  H  H2  1  0.01535100  0.59580900  0.13635300  1
  H  H3  1  0.40323600  0.01509100  0.13619900  1
  H  H4  1  0.98337800  0.40275300  0.13611400  1
  H  H5  1  0.09678400  0.48488800  0.63619500  1
  H  H6  1  0.51659200  0.09725500  0.63611300  1
  H  H7  1  0.90372200  0.51688000  0.63627000  1
  H  H8  1  0.48462000  0.90419900  0.63635300  1
  H  H9  1  0.59687600  0.98405600  0.08438700  1
  H  H10  1  0.01475000  0.59654200  0.08447500  1
  H  H11  1  0.40289700  0.01454400  0.08431400  1
  H  H12  1  0.98428300  0.40257100  0.08422800  1
  H  H13  1  0.09711500  0.48544300  0.58431000  1
  H  H14  1  0.51569400  0.09743400  0.58422700  1
  H  H15  1  0.90313600  0.51593300  0.58439100  1
  H  H16  1  0.48522800  0.90346300  0.58447500  1
  H  H17  1  0.44995800  0.69455600  0.95960800  1
  H  H18  1  0.30611400  0.45034500  0.96058700  1
  H  H19  1  0.55227400  0.30616700  0.96156900  1
  H  H20  1  0.69448100  0.55229900  0.96052900  1
  H  H21  1  0.94771600  0.19383200  0.46156800  1
  H  H22  1  0.80551100  0.94769500  0.46053300  1
  H  H23  1  0.05003000  0.80544400  0.45960900  1
  H  H24  1  0.19387700  0.04965000  0.46058300  1
  H  H25  1  0.60817500  0.63811200  0.02469800  1
  H  H26  1  0.36137700  0.60803700  0.02617800  1
  H  H27  1  0.38925600  0.36149900  0.02429800  1
  H  H28  1  0.63798600  0.38906900  0.02289200  1
  H  H29  1  0.11073900  0.13850000  0.52429400  1
  H  H30  1  0.86200400  0.11093000  0.52289300  1
  H  H31  1  0.89182000  0.86188700  0.52470200  1
  H  H32  1  0.13861300  0.89196300  0.52617700  1
  H  H33  1  0.66886300  0.69302300  0.05916600  1
  H  H34  1  0.30583500  0.66838900  0.06055500  1
  H  H35  1  0.32667200  0.30615000  0.05785800  1
  H  H36  1  0.69273300  0.32624700  0.05657200  1
  H  H37  1  0.17332600  0.19384900  0.55785200  1
  H  H38  1  0.80725600  0.17375500  0.55657200  1
  H  H39  1  0.83113500  0.80697500  0.55917200  1
  H  H40  1  0.19415400  0.83161400  0.56055500  1
  H  H41  1  0.65600400  0.80394200  0.06546900  1
  H  H42  1  0.19481100  0.65542500  0.06641600  1
  H  H43  1  0.33984900  0.19531100  0.06432000  1
  H  H44  1  0.80348500  0.33927500  0.06343600  1
  H  H45  1  0.16015100  0.30468800  0.56431400  1
  H  H46  1  0.69650400  0.16072700  0.56343600  1
  H  H47  1  0.84399700  0.69605700  0.56547500  1
  H  H48  1  0.30517900  0.84457800  0.56641700  1
  H  H49  1  0.58434400  0.86015500  0.03662300  1
  H  H50  1  0.13913500  0.58398400  0.03722700  1
  H  H51  1  0.41369000  0.13961500  0.03647600  1
  H  H52  1  0.85970800  0.41320100  0.03587400  1
  H  H53  1  0.08630900  0.36038400  0.53647100  1
  H  H54  1  0.64028200  0.08679800  0.53587500  1
  H  H55  1  0.91565500  0.63984500  0.53662800  1
  H  H56  1  0.36085500  0.91601500  0.53722600  1
  H  H57  1  0.44765000  0.80603300  0.96099100  1
  H  H58  1  0.19462300  0.44791000  0.96158600  1
  H  H59  1  0.55460500  0.19474900  0.96265400  1
  H  H60  1  0.80588500  0.55452400  0.96200200  1
  H  H61  1  0.94538700  0.30525100  0.46265200  1
  H  H62  1  0.69410600  0.94546800  0.46200600  1
  H  H63  1  0.05234100  0.69396700  0.46099300  1
  H  H64  1  0.30536800  0.05208300  0.46158200  1
  H  H65  1  0.02624600  0.40625200  0.85071500  1
  H  H66  1  0.59496900  0.02671400  0.85088500  1
  H  H67  1  0.97488500  0.59508800  0.85086700  1
  H  H68  1  0.40611400  0.97538500  0.85069600  1
  H  H69  1  0.52513100  0.90489000  0.35087000  1
  H  H70  1  0.09385800  0.52462400  0.35069400  1
  H  H71  1  0.47376900  0.09372500  0.35071100  1
  H  H72  1  0.90500200  0.47329700  0.35088700  1
  H  H73  1  0.02526100  0.40546300  0.90256800  1
  H  H74  1  0.59536400  0.02556200  0.90274600  1
  H  H75  1  0.97575800  0.59545500  0.90272800  1
  H  H76  1  0.40535200  0.97609500  0.90255000  1
  H  H77  1  0.52424700  0.90452900  0.40273200  1
  H  H78  1  0.09462600  0.52391300  0.40254800  1
  H  H79  1  0.47474200  0.09452200  0.40256400  1
  H  H80  1  0.90461400  0.47444800  0.40274800  1
  H  H81  1  0.89716200  0.38880800  0.76968200  1
  H  H82  1  0.61274000  0.89785800  0.76971700  1
  H  H83  1  0.10367000  0.61283700  0.76966800  1
  H  H84  1  0.38870700  0.10436300  0.76963300  1
  H  H85  1  0.39635900  0.88713200  0.26966700  1
  H  H86  1  0.11126000  0.39564400  0.26963300  1
  H  H87  1  0.60286400  0.11116400  0.26968300  1
  H  H88  1  0.88722900  0.60215100  0.26971700  1
  H  H89  1  0.33241800  0.95747200  0.21663800  1
  H  H90  1  0.30462700  0.89266500  0.23715500  1
  H  H91  1  0.28582800  0.83584000  0.19182400  1
  H  H92  1  0.24243900  0.90650600  0.19399300  1
  H  H93  1  0.31030800  0.90265100  0.17189000  1
  H  H94  1  0.04086700  0.33174900  0.21660600  1
  H  H95  1  0.10569600  0.30392400  0.23710000  1
  H  H96  1  0.16247200  0.28517600  0.19175000  1
  H  H97  1  0.09179600  0.24180100  0.19392200  1
  H  H98  1  0.09564200  0.30969700  0.17183900  1
  H  H99  1  0.66691600  0.04074100  0.21671000  1
  H  H100  1  0.69467900  0.10557800  0.23721500  1
  H  H101  1  0.71357100  0.16232300  0.19187000  1
  H  H102  1  0.75694400  0.09165400  0.19408200  1
  H  H103  1  0.68911600  0.09548300  0.17195100  1
  H  H104  1  0.95761100  0.66623100  0.21674200  1
  H  H105  1  0.89279000  0.69396700  0.23726800  1
  H  H106  1  0.83599700  0.71290900  0.19194000  1
  H  H107  1  0.90666900  0.75628200  0.19415000  1
  H  H108  1  0.90282500  0.68848600  0.17200100  1
  H  H109  1  0.83311000  0.45922900  0.71670800  1
  H  H110  1  0.80534900  0.39439300  0.73721500  1
  H  H111  1  0.78645700  0.33764400  0.69187100  1
  H  H112  1  0.74308200  0.40831300  0.69408200  1
  H  H113  1  0.81091000  0.40448400  0.67195100  1
  H  H114  1  0.54235700  0.83377800  0.71674400  1
  H  H115  1  0.60718000  0.80604100  0.73726800  1
  H  H116  1  0.66396900  0.78709700  0.69193900  1
  H  H117  1  0.59329500  0.74372700  0.69415000  1
  H  H118  1  0.59714100  0.81152200  0.67200200  1
  H  H119  1  0.16761000  0.54249400  0.71663900  1
  H  H120  1  0.19540400  0.60730100  0.73715600  1
  H  H121  1  0.21420400  0.66412200  0.69182300  1
  H  H122  1  0.25759000  0.59345400  0.69399300  1
  H  H123  1  0.18972000  0.59731100  0.67189100  1
  H  H124  1  0.45909800  0.16825900  0.71660400  1
  H  H125  1  0.39427000  0.19608200  0.73709900  1
  H  H126  1  0.33749000  0.21482700  0.69175000  1
  H  H127  1  0.40816400  0.25820600  0.69392100  1
  H  H128  1  0.40432000  0.19031000  0.67183800  1
  C  C1  1  0.61918300  0.48612200  0.99148400  1
  C  C2  1  0.51386300  0.61938000  0.99163600  1
  C  C3  1  0.38073700  0.51412700  0.99292500  1
  C  C4  1  0.48605200  0.38091800  0.99277400  1
  C  C5  1  0.11925400  0.98587200  0.49292300  1
  C  C6  1  0.01393900  0.11908100  0.49277200  1
  C  C7  1  0.88080800  0.01387700  0.49148500  1
  C  C8  1  0.98612700  0.88061900  0.49163700  1
  C  C9  1  0.55400700  0.99103200  0.09548500  1
  C  C10  1  0.00767800  0.55364400  0.09553400  1
  C  C11  1  0.44570800  0.00745000  0.09544500  1
  C  C12  1  0.99127300  0.44535000  0.09539900  1
  C  C13  1  0.05430600  0.49253600  0.59544300  1
  C  C14  1  0.50870300  0.05465600  0.59539800  1
  C  C15  1  0.94600700  0.50895400  0.59548800  1
  C  C16  1  0.49229800  0.94636100  0.59553400  1
  C  C17  1  0.49976200  0.99908900  0.13969700  1
  C  C18  1  0.99934600  0.49926500  0.13969700  1
  C  C19  1  0.00026000  0.50089100  0.63969700  1
  C  C20  1  0.50062400  0.00074300  0.63969700  1
  C  C21  1  0.01448500  0.44773300  0.86209900  1
  C  C22  1  0.55340000  0.01492300  0.86219400  1
  C  C23  1  0.98665000  0.55352500  0.86218400  1
  C  C24  1  0.44759800  0.98710700  0.86208800  1
  C  C25  1  0.51336300  0.94645500  0.36218600  1
  C  C26  1  0.05237500  0.51290300  0.36208700  1
  C  C27  1  0.48552800  0.05224600  0.36209700  1
  C  C28  1  0.94657300  0.48508800  0.36219500  1
  C  C29  1  0.55383000  0.99057300  0.12488000  1
  C  C30  1  0.00793500  0.55337900  0.12492900  1
  C  C31  1  0.44575000  0.00767300  0.12484200  1
  C  C32  1  0.99084600  0.44530400  0.12479500  1
  C  C33  1  0.05426900  0.49230800  0.62484000  1
  C  C34  1  0.50912500  0.05470400  0.62479500  1
  C  C35  1  0.94618900  0.50940900  0.62488300  1
  C  C36  1  0.49203700  0.94662800  0.62492900  1
  C  C37  1  0.60038800  0.68673400  0.02685600  1
  C  C38  1  0.31272300  0.60020700  0.02813900  1
  C  C39  1  0.39722700  0.31293000  0.02655400  1
  C  C40  1  0.68653100  0.39697100  0.02532700  1
  C  C41  1  0.10276800  0.18706800  0.52655000  1
  C  C42  1  0.81345900  0.10302800  0.52532800  1
  C  C43  1  0.89960700  0.81326500  0.52686100  1
  C  C44  1  0.18726700  0.89979300  0.52813800  1
  C  C45  1  0.63598700  0.71773500  0.04629400  1
  C  C46  1  0.28136400  0.63561400  0.04752900  1
  C  C47  1  0.36053400  0.28166800  0.04545100  1
  C  C48  1  0.71745100  0.36014600  0.04429000  1
  C  C49  1  0.13946400  0.21833000  0.54544500  1
  C  C50  1  0.78253900  0.13985500  0.54429000  1
  C  C51  1  0.86401000  0.78226300  0.54629900  1
  C  C52  1  0.21862600  0.86438700  0.54752800  1
  C  C53  1  0.62910600  0.77984300  0.04967500  1
  C  C54  1  0.21920000  0.62867400  0.05066400  1
  C  C55  1  0.36759100  0.21960600  0.04891100  1
  C  C56  1  0.77946700  0.36712100  0.04797400  1
  C  C57  1  0.13240800  0.28039300  0.54890500  1
  C  C58  1  0.72052300  0.13287900  0.54797400  1
  C  C59  1  0.87089300  0.72015600  0.54968000  1
  C  C60  1  0.28079000  0.87132700  0.55066400  1
  C  C61  1  0.58863400  0.81164200  0.03272700  1
  C  C62  1  0.18771700  0.58832900  0.03352500  1
  C  C63  1  0.40930700  0.18809000  0.03251100  1
  C  C64  1  0.81129300  0.40889100  0.03173300  1
  C  C65  1  0.09069100  0.31190900  0.53250600  1
  C  C66  1  0.68869700  0.09110800  0.53173400  1
  C  C67  1  0.91136400  0.68835800  0.53273200  1
  C  C68  1  0.31227400  0.91167000  0.53352400  1
  C  C69  1  0.55420700  0.78140700  0.01208900  1
  C  C70  1  0.21833000  0.55409000  0.01294200  1
  C  C71  1  0.44483400  0.21856000  0.01235500  1
  C  C72  1  0.78118500  0.44455000  0.01151000  1
  C  C73  1  0.05516200  0.28143900  0.51235100  1
  C  C74  1  0.71880500  0.05544700  0.51151200  1
  C  C75  1  0.94578900  0.71859200  0.51209300  1
  C  C76  1  0.28166100  0.94590800  0.51294000  1
  C  C77  1  0.55752800  0.71781900  0.01034200  1
  C  C78  1  0.28194800  0.55747700  0.01142900  1
  C  C79  1  0.44137500  0.28215600  0.01065500  1
  C  C80  1  0.71761300  0.44116100  0.00958500  1
  C  C81  1  0.05862000  0.21784300  0.51065200  1
  C  C82  1  0.78237800  0.05883700  0.50958700  1
  C  C83  1  0.94246600  0.78217900  0.51034600  1
  C  C84  1  0.21804300  0.94252200  0.51142700  1
  C  C85  1  0.51886200  0.68638200  0.99172900  1
  C  C86  1  0.31372200  0.51901100  0.99284900  1
  C  C87  1  0.48120100  0.31389100  0.99268400  1
  C  C88  1  0.68620100  0.48111100  0.99155400  1
  C  C89  1  0.01879200  0.18610800  0.49268200  1
  C  C90  1  0.81379000  0.01888600  0.49155600  1
  C  C91  1  0.98113000  0.81361700  0.49173100  1
  C  C92  1  0.18626900  0.98098600  0.49284700  1
  C  C93  1  0.48033600  0.71867400  0.97396500  1
  C  C94  1  0.28174500  0.48058400  0.97491500  1
  C  C95  1  0.52099100  0.28185900  0.97542800  1
  C  C96  1  0.71854100  0.52092500  0.97443600  1
  C  C97  1  0.97900100  0.21814000  0.47542600  1
  C  C98  1  0.78145000  0.97906900  0.47443900  1
  C  C99  1  0.01965500  0.78132500  0.47396700  1
  C  C100  1  0.21824600  0.01941200  0.47491200  1
  C  C101  1  0.47827600  0.78155400  0.97510100  1
  C  C102  1  0.21884900  0.47844800  0.97583000  1
  C  C103  1  0.52306700  0.21897300  0.97642000  1
  C  C104  1  0.78141500  0.52294100  0.97565000  1
  C  C105  1  0.97692600  0.28102600  0.47641800  1
  C  C106  1  0.71857600  0.97705300  0.47565400  1
  C  C107  1  0.02171600  0.71844500  0.47510400  1
  C  C108  1  0.28114200  0.02154600  0.47582700  1
  C  C109  1  0.51493600  0.81337000  0.99389900  1
  C  C110  1  0.18669800  0.51494300  0.99457100  1
  C  C111  1  0.48528000  0.18685300  0.99461700  1
  C  C112  1  0.81321300  0.48506800  0.99393300  1
  C  C113  1  0.01471500  0.31314600  0.49461400  1
  C  C114  1  0.68677800  0.01492700  0.49393600  1
  C  C115  1  0.98505900  0.68662900  0.49390300  1
  C  C116  1  0.31329300  0.98505200  0.49456800  1
  C  C117  1  0.49989600  0.99932600  0.08061100  1
  C  C118  1  0.99951500  0.49957700  0.08061200  1
  C  C119  1  0.00011500  0.50066200  0.58061100  1
  C  C120  1  0.50046400  0.00042800  0.58061200  1
  C  C121  1  0.50000100  0.99957200  0.04937000  1
  C  C122  1  0.99963500  0.49975700  0.04937200  1
  C  C123  1  0.00000500  0.50042100  0.54937000  1
  C  C124  1  0.50035000  0.00024600  0.54937100  1
  C  C125  1  0.51060000  0.88044100  0.99373700  1
  C  C126  1  0.11963300  0.51056700  0.99415900  1
  C  C127  1  0.48960500  0.11975800  0.99422900  1
  C  C128  1  0.88031500  0.48941800  0.99380900  1
  C  C129  1  0.01039000  0.38024100  0.49422600  1
  C  C130  1  0.61967600  0.01057800  0.49381100  1
  C  C131  1  0.98939500  0.61955800  0.49374000  1
  C  C132  1  0.38035800  0.98942800  0.49415600  1
  C  C133  1  0.01406400  0.44745500  0.89149600  1
  C  C134  1  0.55345600  0.01440800  0.89159300  1
  C  C135  1  0.98700600  0.55356500  0.89158400  1
  C  C136  1  0.44733500  0.98737000  0.89148600  1
  C  C137  1  0.51300100  0.94641900  0.39158600  1
  C  C138  1  0.05264200  0.51263800  0.39148400  1
  C  C139  1  0.48594200  0.05252900  0.39149300  1
  C  C140  1  0.94652000  0.48560200  0.39159400  1
  C  C141  1  0.50023600  0.00060700  0.93765400  1
  C  C142  1  0.00035400  0.50026700  0.93765500  1
  C  C143  1  0.99974800  0.49939800  0.43765400  1
  C  C144  1  0.49964300  0.99972200  0.43765500  1
  C  C145  1  0.00049800  0.50044300  0.90640300  1
  C  C146  1  0.50034500  0.00081600  0.90640200  1
  C  C147  1  0.49950500  0.99954300  0.40640300  1
  C  C148  1  0.99963400  0.49919200  0.40640200  1
  C  C149  1  0.03713300  0.53999200  0.80253300  1
  C  C150  1  0.46148000  0.03779900  0.80252000  1
  C  C151  1  0.96379500  0.46158100  0.80253600  1
  C  C152  1  0.53989100  0.96446100  0.80254900  1
  C  C153  1  0.53622800  0.03839200  0.30253600  1
  C  C154  1  0.96007700  0.53554800  0.30254900  1
  C  C155  1  0.46289200  0.95998000  0.30253300  1
  C  C156  1  0.03848800  0.46220800  0.30252000  1
  C  C157  1  0.96365100  0.46081700  0.77303900  1
  C  C158  1  0.54072200  0.96434200  0.77305200  1
  C  C159  1  0.03719300  0.54082100  0.77303500  1
  C  C160  1  0.46071700  0.03788300  0.77302200  1
  C  C161  1  0.46283400  0.95915000  0.27303500  1
  C  C162  1  0.03925100  0.46212500  0.27302200  1
  C  C163  1  0.53637400  0.03915500  0.27303900  1
  C  C164  1  0.95924700  0.53566700  0.27305200  1
  C  C165  1  0.00040400  0.50083100  0.75816200  1
  C  C166  1  0.50072800  0.00109400  0.75816200  1
  C  C167  1  0.49962200  0.99914000  0.25816200  1
  C  C168  1  0.99924000  0.49891400  0.25816200  1
  C  C169  1  0.92633700  0.42068200  0.75840800  1
  C  C170  1  0.58087900  0.92702900  0.75843200  1
  C  C171  1  0.07447000  0.58098000  0.75839700  1
  C  C172  1  0.42057800  0.07516000  0.75837200  1
  C  C173  1  0.42555900  0.91899000  0.25839600  1
  C  C174  1  0.07939000  0.42484700  0.25837300  1
  C  C175  1  0.57369000  0.07928900  0.25840800  1
  C  C176  1  0.91909000  0.57297900  0.25843300  1
  C  C177  1  0.42457300  0.91893200  0.22901800  1
  C  C178  1  0.07942500  0.42388000  0.22899500  1
  C  C179  1  0.57474200  0.07930800  0.22903200  1
  C  C180  1  0.91904700  0.57404800  0.22905500  1
  C  C181  1  0.92528500  0.42066400  0.72903100  1
  C  C182  1  0.58092200  0.92596000  0.72905500  1
  C  C183  1  0.07545700  0.58103800  0.72901800  1
  C  C184  1  0.42054300  0.07612700  0.72899400  1
  C  C185  1  0.46271900  0.95850600  0.21387100  1
  C  C186  1  0.03984600  0.46204300  0.21386000  1
  C  C187  1  0.53662400  0.03971900  0.21387900  1
  C  C188  1  0.95863100  0.53594700  0.21389000  1
  C  C189  1  0.96340300  0.46025300  0.71387900  1
  C  C190  1  0.54133800  0.96406200  0.71389000  1
  C  C191  1  0.03730900  0.54146500  0.71387100  1
  C  C192  1  0.46012200  0.03796500  0.71386000  1
  C  C193  1  0.49965700  0.99912000  0.22865700  1
  C  C194  1  0.99923500  0.49896300  0.22865700  1
  C  C195  1  0.00037100  0.50085200  0.72865700  1
  C  C196  1  0.50073400  0.00104500  0.72865700  1
  C  C197  1  0.46497400  0.95800200  0.18425700  1
  C  C198  1  0.04035800  0.46434500  0.18424800  1
  C  C199  1  0.53442700  0.04019900  0.18426600  1
  C  C200  1  0.95815700  0.53379600  0.18427600  1
  C  C201  1  0.96559900  0.45977500  0.68426500  1
  C  C202  1  0.54181200  0.96621300  0.68427600  1
  C  C203  1  0.03505400  0.54197100  0.68425700  1
  C  C204  1  0.45961100  0.03566300  0.68424800  1
  C  C205  1  0.00056000  0.50068100  0.84729300  1
  C  C206  1  0.50055100  0.00107000  0.84729300  1
  C  C207  1  0.49945600  0.99929600  0.34729300  1
  C  C208  1  0.99942000  0.49894000  0.34729300  1
  C  C209  1  0.32774000  0.90682800  0.21713800  1
  C  C210  1  0.28904900  0.88659500  0.19202700  1
  C  C211  1  0.09151400  0.32706400  0.21709300  1
  C  C212  1  0.11171500  0.28840700  0.19196600  1
  C  C213  1  0.67160100  0.09138500  0.21719400  1
  C  C214  1  0.71034100  0.11156900  0.19209100  1
  C  C215  1  0.90696500  0.67091400  0.21723800  1
  C  C216  1  0.88675400  0.70968200  0.19215000  1
  C  C217  1  0.82842600  0.40858600  0.71719300  1
  C  C218  1  0.78968600  0.38839900  0.69209100  1
  C  C219  1  0.59300300  0.82909400  0.71723900  1
  C  C220  1  0.61321100  0.79032600  0.69215000  1
  C  C221  1  0.17229000  0.59313800  0.71713900  1
  C  C222  1  0.21098000  0.61336700  0.69202800  1
  C  C223  1  0.40845100  0.17294200  0.71709200  1
  C  C224  1  0.38824700  0.21159800  0.69196500  1
  N  N1  1  0.00049100  0.50076200  0.81683200  1
  N  N2  1  0.50066200  0.00113100  0.81683100  1
  N  N3  1  0.49953100  0.99921100  0.31683200  1
  N  N4  1  0.99930700  0.49887700  0.31683200  1
  N  N5  1  0.49971900  0.99909200  0.17014600  1
  N  N6  1  0.99927300  0.49911500  0.17014700  1
  N  N7  1  0.00030700  0.50088300  0.67014600  1
  N  N8  1  0.50069600  0.00089400  0.67014600  1
  O  O1  1  0.59108100  0.49170300  0.96687100  1
  O  O2  1  0.51102200  0.59111000  0.96696400  1
  O  O3  1  0.40927500  0.51132800  0.96830200  1
  O  O4  1  0.49144000  0.40930200  0.96820600  1
  O  O5  1  0.09071500  0.98866900  0.46830100  1
  O  O6  1  0.00855000  0.09069600  0.46820400  1
  O  O7  1  0.90890800  0.00829400  0.46687200  1
  O  O8  1  0.98896800  0.90888700  0.46696500  1
  O  O9  1  0.59050200  0.48864700  0.01606600  1
  O  O10  1  0.50880700  0.59086500  0.01617400  1
  O  O11  1  0.40897700  0.50891700  0.01751200  1
  O  O12  1  0.48858100  0.40933800  0.01740700  1
  O  O13  1  0.09101500  0.99108300  0.51751100  1
  O  O14  1  0.01141100  0.09066200  0.51740600  1
  O  O15  1  0.90949000  0.01135300  0.51606700  1
  O  O16  1  0.99118500  0.90913500  0.51617500  1
  O  O17  1  0.44718100  0.99719400  0.03598900  1
  O  O18  1  0.00224500  0.44697600  0.03596900  1
  O  O19  1  0.55291700  0.00220500  0.03608700  1
  O  O20  1  0.99717600  0.55270300  0.03611000  1
  O  O21  1  0.94708700  0.49778900  0.53608900  1
  O  O22  1  0.50281000  0.94729800  0.53611100  1
  O  O23  1  0.05282200  0.50280000  0.53598700  1
  O  O24  1  0.49774100  0.05302500  0.53596800  1
  O  O25  1  0.45574200  0.90508900  0.99300300  1
  O  O26  1  0.09502900  0.45570100  0.99330200  1
  O  O27  1  0.54446500  0.09510500  0.99353500  1
  O  O28  1  0.90495400  0.54428900  0.99323900  1
  O  O29  1  0.95552900  0.40489400  0.49353400  1
  O  O30  1  0.59503700  0.95570600  0.49324200  1
  O  O31  1  0.04425300  0.59491000  0.49300400  1
  O  O32  1  0.40496200  0.04429500  0.49329900  1
  O  O33  1  0.56122000  0.91292900  0.99292700  1
  O  O34  1  0.08713200  0.56117100  0.99326800  1
  O  O35  1  0.43901200  0.08727300  0.99311800  1
  O  O36  1  0.91284900  0.43884900  0.99278200  1
  O  O37  1  0.06098300  0.41272600  0.49311400  1
  O  O38  1  0.58714200  0.06114600  0.49278300  1
  O  O39  1  0.93877500  0.58707000  0.49293100  1
  O  O40  1  0.41285900  0.93882500  0.49326700  1
  O  O41  1  0.44734700  0.99744900  0.95094200  1
  O  O42  1  0.00333400  0.44734800  0.95092400  1
  O  O43  1  0.55302700  0.00353100  0.95104200  1
  O  O44  1  0.99720000  0.55301900  0.95106300  1
  O  O45  1  0.94695900  0.49647300  0.45104400  1
  O  O46  1  0.50279600  0.94697100  0.45106400  1
  O  O47  1  0.05264000  0.50255400  0.45094000  1
  O  O48  1  0.49666100  0.05264300  0.45092300  1
  O  O49  1  0.07492800  0.57736200  0.81705100  1
  O  O50  1  0.42407100  0.07557800  0.81702500  1
  O  O51  1  0.92603300  0.42418300  0.81705700  1
  O  O52  1  0.57724800  0.92667900  0.81708200  1
  O  O53  1  0.57398900  0.07579100  0.31705700  1
  O  O54  1  0.92272000  0.57332900  0.31708200  1
  O  O55  1  0.42509500  0.92261000  0.31705000  1
  O  O56  1  0.07589700  0.42442900  0.31702500  1
  O  O57  1  0.43410600  0.91557400  0.16924500  1
  O  O58  1  0.08280500  0.43351600  0.16922900  1
  O  O59  1  0.56531000  0.08262900  0.16926100  1
  O  O60  1  0.91573900  0.56471200  0.16927800  1
  O  O61  1  0.93471500  0.41734600  0.66926000  1
  O  O62  1  0.58423100  0.93529700  0.66927800  1
  O  O63  1  0.06592200  0.58440000  0.66924500  1
  O  O64  1  0.41716400  0.06649200  0.66922800  1
  O  O65  1  0.38554300  0.87931200  0.21546100  1
  O  O66  1  0.11903700  0.38486200  0.21542600  1
  O  O67  1  0.61380600  0.11890700  0.21548300  1
  O  O68  1  0.87944000  0.61312400  0.21551900  1
  O  O69  1  0.88622200  0.38106400  0.71548300  1
  O  O70  1  0.62052800  0.88688500  0.71551900  1
  O  O71  1  0.11448800  0.62065600  0.71546200  1
  O  O72  1  0.38092900  0.11514400  0.71542600  1
