# generated using pymatgen
data_Zn2H25C49(NO4)3
_symmetry_space_group_name_H-M   'P 1'
_cell_length_a   10.91653900
_cell_length_b   13.38847300
_cell_length_c   15.72078300
_cell_angle_alpha   96.02866200
_cell_angle_beta   90.07049700
_cell_angle_gamma   90.49722000
_symmetry_Int_Tables_number   1
_chemical_formula_structural   Zn2H25C49(NO4)3
_chemical_formula_sum   'Zn2 H25 C49 N3 O12'
_cell_volume   2284.88470020
_cell_formula_units_Z   1
loop_
 _symmetry_equiv_pos_site_id
 _symmetry_equiv_pos_as_xyz
  1  'x, y, z'
loop_
 _atom_site_type_symbol
 _atom_site_label
 _atom_site_symmetry_multiplicity
 _atom_site_fract_x
 _atom_site_fract_y
 _atom_site_fract_z
 _atom_site_occupancy
  Zn  Zn1  1  0.49234800  0.87582500  0.49570900  1
  Zn  Zn2  1  0.51230800  0.09911100  0.50837200  1
  H  H1  1  0.79631300  0.92567100  0.99895300  1
  H  H2  1  0.22411200  0.00180000  0.00500900  1
  H  H3  1  0.90712200  0.94830600  0.36524600  1
  H  H4  1  0.58982000  0.01517000  0.23579500  1
  H  H5  1  0.28655200  0.08037700  0.12056400  1
  H  H6  1  0.39551500  0.07172300  0.25026000  1
  H  H7  1  0.29302500  0.08197000  0.90789100  1
  H  H8  1  0.40639900  0.07529300  0.77793700  1
  H  H9  1  0.91527000  0.00288800  0.63510500  1
  H  H10  1  0.58791400  0.96690200  0.76975500  1
  H  H11  1  0.69338700  0.96849900  0.90006700  1
  H  H12  1  0.09795000  0.92843200  0.35893200  1
  H  H13  1  0.10083900  0.95665700  0.63588200  1
  H  H14  1  0.32503500  0.22791500  0.51602100  1
  H  H15  1  0.67823200  0.73809800  0.49492700  1
  H  H16  1  0.79159600  0.59054100  0.50381300  1
  H  H17  1  0.30163200  0.40185700  0.50876800  1
  H  H18  1  0.29067000  0.55417900  0.49190300  1
  H  H19  1  0.29368700  0.73195600  0.48774200  1
  H  H20  1  0.93803200  0.13303500  0.47071300  1
  H  H21  1  0.98454000  0.25582100  0.52004100  1
  H  H22  1  0.99941900  0.22538100  0.40555600  1
  H  H23  1  0.60439000  0.17096800  0.00198500  1
  H  H24  1  0.45180400  0.15451000  0.04311900  1
  H  H25  1  0.50473000  0.07435200  0.95052600  1
  C  C1  1  0.94023300  0.98288400  0.07886000  1
  C  C2  1  0.88391500  0.96269600  0.99989400  1
  C  C3  1  0.94140000  0.98077200  0.92405500  1
  C  C4  1  0.06484100  0.00341700  0.92657400  1
  C  C5  1  0.12609700  0.00499200  0.00470500  1
  C  C6  1  0.06389800  0.99951000  0.08147200  1
  C  C7  1  0.93597800  0.96688400  0.23034800  1
  C  C8  1  0.86672800  0.95768700  0.30419000  1
  C  C9  1  0.74111200  0.96906100  0.30308500  1
  C  C10  1  0.68462000  0.99436300  0.23089900  1
  C  C11  1  0.75009200  0.00338000  0.15742200  1
  C  C12  1  0.87475000  0.98145600  0.15488300  1
  C  C13  1  0.24228800  0.04214200  0.16916400  1
  C  C14  1  0.30496500  0.03908100  0.24400300  1
  C  C15  1  0.25584200  0.99132600  0.30896800  1
  C  C16  1  0.13475700  0.96020500  0.30416500  1
  C  C17  1  0.06446400  0.97401700  0.23165000  1
  C  C18  1  0.12412100  0.00417700  0.16007300  1
  C  C19  1  0.24740900  0.04991300  0.85062100  1
  C  C20  1  0.31247700  0.04905400  0.77600500  1
  C  C21  1  0.26126700  0.00957800  0.70014100  1
  C  C22  1  0.13832500  0.98466200  0.69731700  1
  C  C23  1  0.06788700  0.99415500  0.77204400  1
  C  C24  1  0.12712300  0.01493900  0.85034900  1
  C  C25  1  0.94013000  0.98476100  0.77035200  1
  C  C26  1  0.87304600  0.99029600  0.69497100  1
  C  C27  1  0.74690200  0.98496500  0.69556100  1
  C  C28  1  0.68668100  0.97213400  0.76960200  1
  C  C29  1  0.74979600  0.97071300  0.84446100  1
  C  C30  1  0.87720100  0.97736400  0.84661000  1
  C  C31  1  0.33220900  0.98631800  0.38486800  1
  C  C32  1  0.66711400  0.97467900  0.38096800  1
  C  C33  1  0.67251800  0.98854500  0.61889900  1
  C  C34  1  0.33838100  0.00051000  0.62359200  1
  C  C35  1  0.62013200  0.28738000  0.50928200  1
  C  C36  1  0.40686100  0.27338400  0.51363400  1
  C  C37  1  0.39391700  0.37446600  0.50858000  1
  C  C38  1  0.49630100  0.43534100  0.50411200  1
  C  C39  1  0.61043100  0.39075100  0.50642000  1
  C  C40  1  0.37913700  0.59025600  0.49314000  1
  C  C41  1  0.48888900  0.53886900  0.49842800  1
  C  C42  1  0.59619300  0.59380300  0.49809800  1
  C  C43  1  0.70751600  0.54722600  0.50329800  1
  C  C44  1  0.37969400  0.69289900  0.48973600  1
  C  C45  1  0.59321600  0.69610800  0.49395100  1
  C  C46  1  0.81692700  0.25227600  0.44993400  1
  C  C47  1  0.94275300  0.21419300  0.46234200  1
  C  C48  1  0.58038800  0.04230800  0.06946300  1
  C  C49  1  0.53193900  0.11511800  0.01273700  1
  N  N1  1  0.51802200  0.23066600  0.51349900  1
  N  N2  1  0.71269200  0.44767900  0.50713200  1
  N  N3  1  0.48598200  0.74438200  0.49051700  1
  O  O1  1  0.38375500  0.07057100  0.41689800  1
  O  O2  1  0.36189200  0.89853200  0.40894400  1
  O  O3  1  0.61662200  0.89182500  0.40317800  1
  O  O4  1  0.63768400  0.06446800  0.41626900  1
  O  O5  1  0.62041300  0.90414000  0.58758400  1
  O  O6  1  0.64304700  0.07643700  0.59485300  1
  O  O7  1  0.38894400  0.08293100  0.60124700  1
  O  O8  1  0.36620400  0.91048400  0.58749500  1
  O  O9  1  0.73079100  0.24341100  0.51038800  1
  O  O10  1  0.79082000  0.28670900  0.38349100  1
  O  O11  1  0.69900800  0.04955100  0.09383700  1
  O  O12  1  0.51668500  0.97172800  0.08622200  1
