# generated using pymatgen
data_VH5C12O5F
_symmetry_space_group_name_H-M   'P 1'
_cell_length_a   23.78690000
_cell_length_b   6.81800000
_cell_length_c   20.34389800
_cell_angle_alpha   90.00000000
_cell_angle_beta   101.14070800
_cell_angle_gamma   90.00000000
_symmetry_Int_Tables_number   1
_chemical_formula_structural   VH5C12O5F
_chemical_formula_sum   'V4 H20 C48 O20 F4'
_cell_volume   3237.18049057
_cell_formula_units_Z   4
loop_
 _symmetry_equiv_pos_site_id
 _symmetry_equiv_pos_as_xyz
  1  'x, y, z'
loop_
 _atom_site_type_symbol
 _atom_site_label
 _atom_site_symmetry_multiplicity
 _atom_site_fract_x
 _atom_site_fract_y
 _atom_site_fract_z
 _atom_site_occupancy
  V  V1  1  0.74874300  0.78363400  0.23817100  1
  V  V2  1  0.25125700  0.21636600  0.76182900  1
  V  V3  1  0.75125700  0.28363600  0.26182900  1
  V  V4  1  0.24874300  0.71636600  0.73817200  1
  H  H1  1  0.36445100  0.71168000  0.61353700  1
  H  H2  1  0.63554900  0.28832000  0.38646300  1
  H  H3  1  0.13554900  0.21168000  0.88646300  1
  H  H4  1  0.86445100  0.78832000  0.11353700  1
  H  H5  1  0.62853400  0.67136900  0.35371500  1
  H  H6  1  0.37146700  0.32863100  0.64628500  1
  H  H7  1  0.87146700  0.17136900  0.14628500  1
  H  H8  1  0.12853300  0.82863100  0.85371500  1
  H  H9  1  0.49818900  0.77591600  0.49503500  1
  H  H10  1  0.50181200  0.22408400  0.50496500  1
  H  H11  1  0.00181200  0.27591600  0.00496500  1
  H  H12  1  0.99818900  0.72408400  0.99503500  1
  H  H13  1  0.44367000  0.35827000  0.57528500  1
  H  H14  1  0.55633000  0.64173000  0.42471500  1
  H  H15  1  0.05633000  0.85827100  0.92471500  1
  H  H16  1  0.94367000  0.14172900  0.07528500  1
  H  H17  1  0.56432600  0.26171900  0.45686200  1
  H  H18  1  0.43567400  0.73828100  0.54313800  1
  H  H19  1  0.93567400  0.76171900  0.04313800  1
  H  H20  1  0.06432600  0.23828100  0.95686200  1
  C  C1  1  0.82159400  0.50036300  0.17692000  1
  C  C2  1  0.17840600  0.49963700  0.82308000  1
  C  C3  1  0.67840600  0.00036400  0.32308000  1
  C  C4  1  0.32159400  0.99963600  0.67692000  1
  C  C5  1  0.66158800  0.50034000  0.16212300  1
  C  C6  1  0.33841200  0.49966000  0.83787700  1
  C  C7  1  0.83841200  0.00034000  0.33787700  1
  C  C8  1  0.16158800  0.99966000  0.66212300  1
  C  C9  1  0.10996200  0.01912200  0.61036300  1
  C  C10  1  0.89003800  0.98087900  0.38963700  1
  C  C11  1  0.39003800  0.51912200  0.88963700  1
  C  C12  1  0.60996200  0.48087800  0.11036300  1
  C  C13  1  0.01522600  0.07394200  0.51647600  1
  C  C14  1  0.98477500  0.92605900  0.48352400  1
  C  C15  1  0.48477500  0.57394200  0.98352400  1
  C  C16  1  0.51522500  0.42605900  0.01647600  1
  C  C17  1  0.93319300  0.96048400  0.43257300  1
  C  C18  1  0.06680700  0.03951500  0.56742700  1
  C  C19  1  0.56680700  0.46048500  0.06742700  1
  C  C20  1  0.43319300  0.53951500  0.93257300  1
  C  C21  1  0.36378000  0.01823500  0.63423500  1
  C  C22  1  0.63622100  0.98176500  0.36576500  1
  C  C23  1  0.13622100  0.51823500  0.86576500  1
  C  C24  1  0.86377900  0.48176500  0.13423500  1
  C  C25  1  0.38191300  0.85376900  0.60504600  1
  C  C26  1  0.61808700  0.14623100  0.39495400  1
  C  C27  1  0.11808700  0.35376900  0.89495400  1
  C  C28  1  0.88191400  0.64623100  0.10504600  1
  C  C29  1  0.42248900  0.86969100  0.56534900  1
  C  C30  1  0.57751100  0.13031000  0.43465100  1
  C  C31  1  0.07751100  0.36969000  0.93465100  1
  C  C32  1  0.92249000  0.63031000  0.06534900  1
  C  C33  1  0.44502900  0.05146700  0.55470100  1
  C  C34  1  0.55497100  0.94853200  0.44530000  1
  C  C35  1  0.05497100  0.55146700  0.94530000  1
  C  C36  1  0.94502900  0.44853300  0.05470100  1
  C  C37  1  0.42628000  0.21593500  0.58361600  1
  C  C38  1  0.57372000  0.78406500  0.41638400  1
  C  C39  1  0.07372000  0.71593500  0.91638400  1
  C  C40  1  0.92628000  0.28406500  0.08361600  1
  C  C41  1  0.38581500  0.19951400  0.62344200  1
  C  C42  1  0.61418500  0.80048500  0.37655800  1
  C  C43  1  0.11418500  0.69951400  0.87655800  1
  C  C44  1  0.88581500  0.30048600  0.12344200  1
  C  C45  1  0.48856600  0.07618000  0.51326400  1
  C  C46  1  0.51143400  0.92382000  0.48673600  1
  C  C47  1  0.01143400  0.57618000  0.98673600  1
  C  C48  1  0.98856600  0.42382000  0.01326400  1
  O  O1  1  0.68289200  0.33337400  0.19174000  1
  O  O2  1  0.31710800  0.66666667  0.80826000  1
  O  O3  1  0.81710800  0.83337400  0.30826000  1
  O  O4  1  0.18289200  0.16662600  0.69174000  1
  O  O5  1  0.80040200  0.67997900  0.18060700  1
  O  O6  1  0.19959800  0.32002000  0.81939400  1
  O  O7  1  0.69959900  0.17998000  0.31939400  1
  O  O8  1  0.30040100  0.82002000  0.68060600  1
  O  O9  1  0.68453000  0.67997700  0.17050500  1
  O  O10  1  0.31547000  0.32002300  0.82949500  1
  O  O11  1  0.81547000  0.17997600  0.32949400  1
  O  O12  1  0.18453000  0.82002400  0.67050600  1
  O  O13  1  0.69354300  0.83295600  0.29743100  1
  O  O14  1  0.30645700  0.16704400  0.70256900  1
  O  O15  1  0.80645800  0.33295600  0.20256900  1
  O  O16  1  0.19354200  0.66704400  0.79743100  1
  O  O17  1  0.75469200  0.51488000  0.29070500  1
  O  O18  1  0.24530800  0.48511900  0.70929500  1
  O  O19  1  0.74530700  0.01488100  0.20929500  1
  O  O20  1  0.25469300  0.98511900  0.79070500  1
  F  F1  1  0.00236500  0.73883300  0.49773800  1
  F  F2  1  0.99763500  0.26116700  0.50226200  1
  F  F3  1  0.49763500  0.23883300  0.00226200  1
  F  F4  1  0.50236500  0.76116700  0.99773900  1
