# generated using pymatgen
data_Cu3H40(C16O5)3
_symmetry_space_group_name_H-M   'P 1'
_cell_length_a   43.45442300
_cell_length_b   30.12443600
_cell_length_c   29.83662200
_cell_angle_alpha   90.00000000
_cell_angle_beta   132.96810700
_cell_angle_gamma   90.00000000
_symmetry_Int_Tables_number   1
_chemical_formula_structural   Cu3H40(C16O5)3
_chemical_formula_sum   'Cu12 H160 C192 O60'
_cell_volume   28579.54650702
_cell_formula_units_Z   4
loop_
 _symmetry_equiv_pos_site_id
 _symmetry_equiv_pos_as_xyz
  1  'x, y, z'
loop_
 _atom_site_type_symbol
 _atom_site_label
 _atom_site_symmetry_multiplicity
 _atom_site_fract_x
 _atom_site_fract_y
 _atom_site_fract_z
 _atom_site_occupancy
  Cu  Cu1  1  0.50000000  0.95734700  0.50000000  1
  Cu  Cu2  1  0.00000000  0.45734700  0.50000000  1
  Cu  Cu3  1  0.50000000  0.04400700  0.50000000  1
  Cu  Cu4  1  0.00000000  0.54400700  0.50000000  1
  Cu  Cu5  1  0.99965600  0.00817800  0.04430400  1
  Cu  Cu6  1  0.00034400  0.00817800  0.95569500  1
  Cu  Cu7  1  0.49965600  0.50817800  0.04430400  1
  Cu  Cu8  1  0.50034400  0.50817800  0.95569500  1
  Cu  Cu9  1  0.45898800  0.00839200  0.95879100  1
  Cu  Cu10  1  0.54101200  0.00839200  0.04120900  1
  Cu  Cu11  1  0.95898800  0.50839200  0.95879100  1
  Cu  Cu12  1  0.04101200  0.50839200  0.04120900  1
  H  H1  1  0.21060900  0.96113200  0.26941800  1
  H  H2  1  0.78939100  0.96113200  0.73058200  1
  H  H3  1  0.71060900  0.46113200  0.26941800  1
  H  H4  1  0.28939100  0.46113200  0.73058200  1
  H  H5  1  0.28108000  0.96843600  0.34677100  1
  H  H6  1  0.71892000  0.96843600  0.65322900  1
  H  H7  1  0.78108000  0.46843600  0.34677100  1
  H  H8  1  0.21892000  0.46843600  0.65322900  1
  H  H9  1  0.28514700  0.07440000  0.28773200  1
  H  H10  1  0.71485300  0.07440000  0.71226800  1
  H  H11  1  0.78514700  0.57440000  0.28773200  1
  H  H12  1  0.21485300  0.57440000  0.71226800  1
  H  H13  1  0.28771700  0.04975400  0.34521400  1
  H  H14  1  0.71228300  0.04975400  0.65478600  1
  H  H15  1  0.78771700  0.54975400  0.34521400  1
  H  H16  1  0.21228300  0.54975400  0.65478600  1
  H  H17  1  0.21703400  0.04353000  0.27871600  1
  H  H18  1  0.78296600  0.04353000  0.72128400  1
  H  H19  1  0.71703400  0.54353000  0.27871600  1
  H  H20  1  0.28296600  0.54353000  0.72128400  1
  H  H21  1  0.21437600  0.07577700  0.22512900  1
  H  H22  1  0.78562400  0.07577700  0.77487100  1
  H  H23  1  0.71437600  0.57577700  0.22512900  1
  H  H24  1  0.28562400  0.57577700  0.77487100  1
  H  H25  1  0.28293900  0.96494700  0.22566600  1
  H  H26  1  0.71706100  0.96494700  0.77433400  1
  H  H27  1  0.78293900  0.46494700  0.22566600  1
  H  H28  1  0.21706100  0.46494700  0.77433400  1
  H  H29  1  0.21361500  0.97785200  0.14787200  1
  H  H30  1  0.78638500  0.97785200  0.85212800  1
  H  H31  1  0.71361500  0.47785200  0.14787200  1
  H  H32  1  0.28638500  0.47785200  0.85212800  1
  H  H33  1  0.28639800  0.93252900  0.30393800  1
  H  H34  1  0.71360200  0.93252800  0.69606200  1
  H  H35  1  0.78639800  0.43252900  0.30393800  1
  H  H36  1  0.21360200  0.43252800  0.69606200  1
  H  H37  1  0.21614300  0.93350800  0.22151400  1
  H  H38  1  0.78385700  0.93350800  0.77848600  1
  H  H39  1  0.71614300  0.43350800  0.22151400  1
  H  H40  1  0.28385700  0.43350800  0.77848600  1
  H  H41  1  0.22055700  0.03725600  0.15823100  1
  H  H42  1  0.77944300  0.03725600  0.84176900  1
  H  H43  1  0.72055700  0.53725600  0.15823100  1
  H  H44  1  0.27944300  0.53725600  0.84176900  1
  H  H45  1  0.53096800  0.06709800  0.74984600  1
  H  H46  1  0.46903200  0.06709800  0.25015400  1
  H  H47  1  0.03096800  0.56709800  0.74984600  1
  H  H48  1  0.96903200  0.56709800  0.25015400  1
  H  H49  1  0.53069300  0.06608800  0.66859800  1
  H  H50  1  0.46930700  0.06608800  0.33140200  1
  H  H51  1  0.03069300  0.56608800  0.66859800  1
  H  H52  1  0.96930700  0.56608800  0.33140200  1
  H  H53  1  0.47774300  0.93528600  0.61813300  1
  H  H54  1  0.52225700  0.93528600  0.38186600  1
  H  H55  1  0.97774300  0.43528600  0.61813300  1
  H  H56  1  0.02225700  0.43528600  0.38186600  1
  H  H57  1  0.47910900  0.93615200  0.70056200  1
  H  H58  1  0.52089100  0.93615200  0.29943800  1
  H  H59  1  0.97910900  0.43615200  0.70056200  1
  H  H60  1  0.02089100  0.43615200  0.29943800  1
  H  H61  1  0.44257900  0.97457900  0.72252600  1
  H  H62  1  0.55742100  0.97457900  0.27747400  1
  H  H63  1  0.94257900  0.47457900  0.72252600  1
  H  H64  1  0.05742100  0.47457900  0.27747400  1
  H  H65  1  0.44080600  0.97708700  0.80170100  1
  H  H66  1  0.55919400  0.97708700  0.19829900  1
  H  H67  1  0.94080600  0.47708700  0.80170100  1
  H  H68  1  0.05919400  0.47708700  0.19829900  1
  H  H69  1  0.56370300  0.03542600  0.92465700  1
  H  H70  1  0.43629700  0.03542600  0.07534300  1
  H  H71  1  0.06370300  0.53542600  0.92465700  1
  H  H72  1  0.93629700  0.53542600  0.07534300  1
  H  H73  1  0.56567600  0.03171200  0.84566000  1
  H  H74  1  0.43432400  0.03171200  0.15434000  1
  H  H75  1  0.06567600  0.53171200  0.84566000  1
  H  H76  1  0.93432400  0.53171200  0.15434000  1
  H  H77  1  0.96095200  0.78794800  0.90296200  1
  H  H78  1  0.03904800  0.78794800  0.09703800  1
  H  H79  1  0.46095200  0.28794800  0.90296200  1
  H  H80  1  0.53904800  0.28794800  0.09703800  1
  H  H81  1  0.56513100  0.22732300  0.08258400  1
  H  H82  1  0.43486900  0.22732300  0.91741600  1
  H  H83  1  0.06513100  0.72732300  0.08258400  1
  H  H84  1  0.93486900  0.72732300  0.91741600  1
  H  H85  1  0.56496500  0.14708800  0.08323200  1
  H  H86  1  0.43503500  0.14708800  0.91676800  1
  H  H87  1  0.06496500  0.64708800  0.08323200  1
  H  H88  1  0.93503500  0.64708800  0.91676800  1
  H  H89  1  0.00148500  0.22840000  0.92981900  1
  H  H90  1  0.99851500  0.22840000  0.07018100  1
  H  H91  1  0.50148500  0.72840000  0.92981900  1
  H  H92  1  0.49851500  0.72840000  0.07018100  1
  H  H93  1  0.00214300  0.14811900  0.93043600  1
  H  H94  1  0.99785600  0.14811900  0.06956400  1
  H  H95  1  0.50214300  0.64811900  0.93043600  1
  H  H96  1  0.49785600  0.64811900  0.06956400  1
  H  H97  1  0.45509400  0.78891300  0.00861800  1
  H  H98  1  0.54490600  0.78891300  0.99138200  1
  H  H99  1  0.95509400  0.28891300  0.00861800  1
  H  H100  1  0.04490600  0.28891300  0.99138200  1
  H  H101  1  0.91381800  0.89156400  0.90258300  1
  H  H102  1  0.89930900  0.84189200  0.85754700  1
  H  H103  1  0.88356600  0.88667200  0.77509000  1
  H  H104  1  0.85367800  0.90598300  0.79327500  1
  H  H105  1  0.89943800  0.93657800  0.82002400  1
  H  H106  1  0.08618200  0.89156400  0.09741700  1
  H  H107  1  0.10069100  0.84189200  0.14245200  1
  H  H108  1  0.11643400  0.88667200  0.22491000  1
  H  H109  1  0.14632200  0.90598300  0.20672500  1
  H  H110  1  0.10056200  0.93657800  0.17997500  1
  H  H111  1  0.41381800  0.39156400  0.90258300  1
  H  H112  1  0.39930900  0.34189200  0.85754700  1
  H  H113  1  0.38356600  0.38667200  0.77509000  1
  H  H114  1  0.35367800  0.40598300  0.79327500  1
  H  H115  1  0.39943800  0.43657800  0.82002400  1
  H  H116  1  0.58618200  0.39156400  0.09741700  1
  H  H117  1  0.60069100  0.34189200  0.14245200  1
  H  H118  1  0.61643400  0.38667200  0.22491000  1
  H  H119  1  0.64632200  0.40598300  0.20672500  1
  H  H120  1  0.60056200  0.43657800  0.17997500  1
  H  H121  1  0.50364000  0.90032100  0.09665700  1
  H  H122  1  0.48831400  0.84514200  0.09927400  1
  H  H123  1  0.42484500  0.87471800  0.07171400  1
  H  H124  1  0.47077100  0.90376900  0.13807600  1
  H  H125  1  0.43686400  0.92983000  0.06330300  1
  H  H126  1  0.49635900  0.90032100  0.90334300  1
  H  H127  1  0.51168600  0.84514200  0.90072500  1
  H  H128  1  0.57515500  0.87471800  0.92828600  1
  H  H129  1  0.52922900  0.90376900  0.86192300  1
  H  H130  1  0.56313600  0.92983000  0.93669700  1
  H  H131  1  0.00364000  0.40032100  0.09665700  1
  H  H132  1  0.98831400  0.34514200  0.09927400  1
  H  H133  1  0.92484500  0.37471800  0.07171400  1
  H  H134  1  0.97077100  0.40376900  0.13807600  1
  H  H135  1  0.93686400  0.42983000  0.06330300  1
  H  H136  1  0.99635900  0.40032100  0.90334300  1
  H  H137  1  0.01168600  0.34514200  0.90072500  1
  H  H138  1  0.07515500  0.37471800  0.92828600  1
  H  H139  1  0.02922900  0.40376900  0.86192300  1
  H  H140  1  0.06313600  0.42983000  0.93669700  1
  H  H141  1  0.28537700  0.99250600  0.15787900  1
  H  H142  1  0.33632800  0.98650200  0.23643200  1
  H  H143  1  0.35546000  0.06210300  0.23242400  1
  H  H144  1  0.34266600  0.02774500  0.17182900  1
  H  H145  1  0.30514300  0.06838200  0.15472000  1
  H  H146  1  0.71462300  0.99250600  0.84212100  1
  H  H147  1  0.66367200  0.98650200  0.76356800  1
  H  H148  1  0.64454000  0.06210300  0.76757600  1
  H  H149  1  0.65733400  0.02774500  0.82817100  1
  H  H150  1  0.69485700  0.06838200  0.84528000  1
  H  H151  1  0.78537700  0.49250600  0.15787900  1
  H  H152  1  0.83632800  0.48650200  0.23643200  1
  H  H153  1  0.85546000  0.56210300  0.23242400  1
  H  H154  1  0.84266600  0.52774500  0.17182900  1
  H  H155  1  0.80514300  0.56838200  0.15472000  1
  H  H156  1  0.21462300  0.49250600  0.84212100  1
  H  H157  1  0.16367200  0.48650200  0.76356800  1
  H  H158  1  0.14454000  0.56210300  0.76757600  1
  H  H159  1  0.15733400  0.52774500  0.82817100  1
  H  H160  1  0.19485700  0.56838200  0.84528000  1
  C  C1  1  0.50255000  0.00063000  0.58722700  1
  C  C2  1  0.49745000  0.00063000  0.41277300  1
  C  C3  1  0.00255000  0.50063000  0.58722700  1
  C  C4  1  0.99745000  0.50063000  0.41277300  1
  C  C5  1  0.42025600  0.00073300  0.42326700  1
  C  C6  1  0.57974300  0.00073300  0.57673300  1
  C  C7  1  0.92025600  0.50073300  0.42326700  1
  C  C8  1  0.07974300  0.50073300  0.57673300  1
  C  C9  1  0.27287400  0.96421600  0.30275700  1
  C  C10  1  0.72712600  0.96421600  0.69724300  1
  C  C11  1  0.77287400  0.46421600  0.30275700  1
  C  C12  1  0.22712600  0.46421600  0.69724300  1
  C  C13  1  0.27476300  0.04584200  0.29807900  1
  C  C14  1  0.72523700  0.04584200  0.70192100  1
  C  C15  1  0.77476300  0.54584200  0.29807900  1
  C  C16  1  0.22523700  0.54584200  0.70192100  1
  C  C17  1  0.22710300  0.04509000  0.25316300  1
  C  C18  1  0.77289700  0.04509100  0.74683600  1
  C  C19  1  0.72710300  0.54509000  0.25316300  1
  C  C20  1  0.27289700  0.54509100  0.74683600  1
  C  C21  1  0.12630200  0.00698000  0.12632700  1
  C  C22  1  0.87369800  0.00698000  0.87367300  1
  C  C23  1  0.62630200  0.50698000  0.12632700  1
  C  C24  1  0.37369800  0.50698000  0.87367300  1
  C  C25  1  0.29052400  0.00269900  0.29347100  1
  C  C26  1  0.70947600  0.00269900  0.70652800  1
  C  C27  1  0.79052400  0.50269900  0.29347100  1
  C  C28  1  0.20947600  0.50269900  0.70652800  1
  C  C29  1  0.22537400  0.96310500  0.25046900  1
  C  C30  1  0.77462600  0.96310500  0.74953100  1
  C  C31  1  0.72537400  0.46310500  0.25046900  1
  C  C32  1  0.27462600  0.46310500  0.74953100  1
  C  C33  1  0.21063000  0.00478500  0.21197000  1
  C  C34  1  0.78937000  0.00478500  0.78802900  1
  C  C35  1  0.71063000  0.50478500  0.21197000  1
  C  C36  1  0.28937000  0.50478500  0.78802900  1
  C  C37  1  0.22801200  0.00509900  0.18188100  1
  C  C38  1  0.77198800  0.00509900  0.81811800  1
  C  C39  1  0.72801200  0.50509900  0.18188100  1
  C  C40  1  0.27198800  0.50509900  0.81811800  1
  C  C41  1  0.27534800  0.99876400  0.23032900  1
  C  C42  1  0.72465200  0.99876400  0.76967100  1
  C  C43  1  0.77534800  0.49876400  0.23032900  1
  C  C44  1  0.22465200  0.49876400  0.76967100  1
  C  C45  1  0.16434700  0.00594900  0.16484100  1
  C  C46  1  0.83565200  0.00594900  0.83515900  1
  C  C47  1  0.66434700  0.50594900  0.16484100  1
  C  C48  1  0.33565200  0.50594900  0.83515900  1
  C  C49  1  0.33680300  0.00171400  0.34045100  1
  C  C50  1  0.66319700  0.00171400  0.65954800  1
  C  C51  1  0.83680300  0.50171400  0.34045100  1
  C  C52  1  0.16319700  0.50171400  0.65954800  1
  C  C53  1  0.37485600  0.00114800  0.37849200  1
  C  C54  1  0.62514400  0.00114800  0.62150800  1
  C  C55  1  0.87485600  0.50114800  0.37849200  1
  C  C56  1  0.12514400  0.50114800  0.62150800  1
  C  C57  1  0.51990800  0.03772800  0.72174300  1
  C  C58  1  0.48009200  0.03772800  0.27825600  1
  C  C59  1  0.01990800  0.53772800  0.72174300  1
  C  C60  1  0.98009200  0.53772800  0.27825600  1
  C  C61  1  0.51929900  0.03729500  0.67513100  1
  C  C62  1  0.48070100  0.03729500  0.32486800  1
  C  C63  1  0.01929900  0.53729500  0.67513100  1
  C  C64  1  0.98070100  0.53729500  0.32486800  1
  C  C65  1  0.50397900  0.00069500  0.63739100  1
  C  C66  1  0.49602100  0.00069500  0.36260800  1
  C  C67  1  0.00397900  0.50069500  0.63739100  1
  C  C68  1  0.99602100  0.50069500  0.36260800  1
  C  C69  1  0.48969400  0.96436600  0.64692800  1
  C  C70  1  0.51030500  0.96436600  0.35307200  1
  C  C71  1  0.98969400  0.46436600  0.64692800  1
  C  C72  1  0.01030500  0.46436600  0.35307200  1
  C  C73  1  0.49009700  0.96496600  0.69335200  1
  C  C74  1  0.50990300  0.96496600  0.30664800  1
  C  C75  1  0.99009700  0.46496600  0.69335200  1
  C  C76  1  0.00990300  0.46496600  0.30664800  1
  C  C77  1  0.50501900  0.00171600  0.73069000  1
  C  C78  1  0.49498100  0.00171600  0.26931000  1
  C  C79  1  0.00501900  0.50171600  0.73069000  1
  C  C80  1  0.99498100  0.50171600  0.26931000  1
  C  C81  1  0.46954500  0.98741000  0.76711800  1
  C  C82  1  0.53045500  0.98741000  0.23288200  1
  C  C83  1  0.96954500  0.48741000  0.76711800  1
  C  C84  1  0.03045500  0.48741000  0.23288200  1
  C  C85  1  0.46835200  0.98939300  0.81188000  1
  C  C86  1  0.53164800  0.98939300  0.18812000  1
  C  C87  1  0.96835200  0.48939300  0.81188000  1
  C  C88  1  0.03164800  0.48939300  0.18812000  1
  C  C89  1  0.50202100  0.00671500  0.86864800  1
  C  C90  1  0.49797900  0.00671500  0.13135200  1
  C  C91  1  0.00202100  0.50671500  0.86864800  1
  C  C92  1  0.99797900  0.50671500  0.13135200  1
  C  C93  1  0.53688100  0.02200000  0.88042700  1
  C  C94  1  0.46311800  0.02200000  0.11957200  1
  C  C95  1  0.03688100  0.52200000  0.88042700  1
  C  C96  1  0.96311800  0.52200000  0.11957200  1
  C  C97  1  0.53792800  0.02020200  0.83549500  1
  C  C98  1  0.46207200  0.02020200  0.16450500  1
  C  C99  1  0.03792800  0.52020200  0.83549500  1
  C  C100  1  0.96207200  0.52020200  0.16450500  1
  C  C101  1  0.50427100  0.00291100  0.77873700  1
  C  C102  1  0.49572900  0.00291100  0.22126300  1
  C  C103  1  0.00427100  0.50291100  0.77873700  1
  C  C104  1  0.99572900  0.50291100  0.22126300  1
  C  C105  1  0.00000000  0.92288800  0.00000000  1
  C  C106  1  0.50000000  0.42288800  0.00000000  1
  C  C107  1  0.08090200  0.00819500  0.08070700  1
  C  C108  1  0.91909800  0.00819500  0.91929300  1
  C  C109  1  0.58090200  0.50819500  0.08070700  1
  C  C110  1  0.41909800  0.50819500  0.91929300  1
  C  C111  1  0.00000000  0.09351700  0.00000000  1
  C  C112  1  0.50000000  0.59351700  0.00000000  1
  C  C113  1  0.50000000  0.09249800  0.00000000  1
  C  C114  1  0.00000000  0.59249800  0.00000000  1
  C  C115  1  0.50108400  0.00802500  0.91643600  1
  C  C116  1  0.49891600  0.00802500  0.08356300  1
  C  C117  1  0.00108400  0.50802500  0.91643600  1
  C  C118  1  0.99891600  0.50802500  0.08356300  1
  C  C119  1  0.50000000  0.92423200  0.00000000  1
  C  C120  1  0.00000000  0.42423200  0.00000000  1
  C  C121  1  0.97783000  0.80531000  0.94579900  1
  C  C122  1  0.02217000  0.80531000  0.05420100  1
  C  C123  1  0.47783000  0.30531000  0.94579900  1
  C  C124  1  0.52217000  0.30531000  0.05420100  1
  C  C125  1  0.97711100  0.85108800  0.94546500  1
  C  C126  1  0.02288900  0.85108800  0.05453500  1
  C  C127  1  0.47711100  0.35108800  0.94546500  1
  C  C128  1  0.52288900  0.35108800  0.05453500  1
  C  C129  1  0.00000000  0.87424400  0.00000000  1
  C  C130  1  0.50000000  0.37424400  0.00000000  1
  C  C131  1  0.00000000  0.78210200  0.00000000  1
  C  C132  1  0.50000000  0.28210200  0.00000000  1
  C  C133  1  0.53616200  0.21006700  0.04645300  1
  C  C134  1  0.46383800  0.21006700  0.95354700  1
  C  C135  1  0.03616200  0.71006700  0.04645300  1
  C  C136  1  0.96383800  0.71006700  0.95354700  1
  C  C137  1  0.53615700  0.16431700  0.04651800  1
  C  C138  1  0.46384300  0.16431700  0.95348200  1
  C  C139  1  0.03615700  0.66431700  0.04651800  1
  C  C140  1  0.96384300  0.66431700  0.95348200  1
  C  C141  1  0.50000000  0.14115600  0.00000000  1
  C  C142  1  0.00000000  0.64115600  0.00000000  1
  C  C143  1  0.50000000  0.23330900  0.00000000  1
  C  C144  1  0.00000000  0.73330900  0.00000000  1
  C  C145  1  0.00134300  0.21110600  0.96140100  1
  C  C146  1  0.99865700  0.21110600  0.03859900  1
  C  C147  1  0.50134300  0.71110600  0.96140100  1
  C  C148  1  0.49865700  0.71110600  0.03859900  1
  C  C149  1  0.00133400  0.16535100  0.96137500  1
  C  C150  1  0.99866500  0.16535100  0.03862400  1
  C  C151  1  0.50133400  0.66535100  0.96137500  1
  C  C152  1  0.49866500  0.66535100  0.03862400  1
  C  C153  1  0.00000000  0.14218600  0.00000000  1
  C  C154  1  0.50000000  0.64218600  0.00000000  1
  C  C155  1  0.00000000  0.23433400  0.00000000  1
  C  C156  1  0.50000000  0.73433400  0.00000000  1
  C  C157  1  0.47533300  0.80630800  0.00552000  1
  C  C158  1  0.52466700  0.80630800  0.99448000  1
  C  C159  1  0.97533300  0.30630800  0.00552000  1
  C  C160  1  0.02466700  0.30630800  0.99448000  1
  C  C161  1  0.47581500  0.85209400  0.00674400  1
  C  C162  1  0.52418500  0.85209400  0.99325600  1
  C  C163  1  0.97581500  0.35209400  0.00674400  1
  C  C164  1  0.02418500  0.35209400  0.99325600  1
  C  C165  1  0.50000000  0.87541800  0.00000000  1
  C  C166  1  0.00000000  0.37541800  0.00000000  1
  C  C167  1  0.50000000  0.78311300  0.00000000  1
  C  C168  1  0.00000000  0.28311300  0.00000000  1
  C  C169  1  0.91304600  0.87560100  0.86834500  1
  C  C170  1  0.88559900  0.90306000  0.81031200  1
  C  C171  1  0.08695400  0.87560100  0.13165500  1
  C  C172  1  0.11440100  0.90306000  0.18968800  1
  C  C173  1  0.41304600  0.37560100  0.86834500  1
  C  C174  1  0.38559900  0.40306000  0.81031200  1
  C  C175  1  0.58695400  0.37560100  0.13165500  1
  C  C176  1  0.61440100  0.40306000  0.18968800  1
  C  C177  1  0.47663500  0.87808700  0.07677800  1
  C  C178  1  0.45056600  0.89793500  0.08830000  1
  C  C179  1  0.52336500  0.87808700  0.92322100  1
  C  C180  1  0.54943400  0.89793500  0.91170000  1
  C  C181  1  0.97663500  0.37808700  0.07677800  1
  C  C182  1  0.95056600  0.39793500  0.08830000  1
  C  C183  1  0.02336500  0.37808700  0.92322100  1
  C  C184  1  0.04943400  0.39793500  0.91170000  1
  C  C185  1  0.31093700  0.00991400  0.20151700  1
  C  C186  1  0.32980400  0.04434200  0.18927400  1
  C  C187  1  0.68906300  0.00991400  0.79848200  1
  C  C188  1  0.67019600  0.04434200  0.81072600  1
  C  C189  1  0.81093700  0.50991400  0.20151700  1
  C  C190  1  0.82980400  0.54434200  0.18927400  1
  C  C191  1  0.18906300  0.50991400  0.79848200  1
  C  C192  1  0.17019600  0.54434200  0.81072600  1
  O  O1  1  0.49003000  0.96412400  0.55430500  1
  O  O2  1  0.50997000  0.96412400  0.44569500  1
  O  O3  1  0.99003000  0.46412400  0.55430500  1
  O  O4  1  0.00997000  0.46412400  0.44569500  1
  O  O5  1  0.51359500  0.03723400  0.57696300  1
  O  O6  1  0.48640500  0.03723400  0.42303700  1
  O  O7  1  0.01359500  0.53723400  0.57696300  1
  O  O8  1  0.98640500  0.53723400  0.42303700  1
  O  O9  1  0.43968500  0.96411600  0.42950700  1
  O  O10  1  0.56031500  0.96411600  0.57049300  1
  O  O11  1  0.93968500  0.46411600  0.42950700  1
  O  O12  1  0.06031500  0.46411600  0.57049300  1
  O  O13  1  0.44039200  0.03726100  0.45529700  1
  O  O14  1  0.55960700  0.03726100  0.54470300  1
  O  O15  1  0.94039200  0.53726100  0.45529700  1
  O  O16  1  0.05960700  0.53726100  0.54470300  1
  O  O17  1  0.99840500  0.94363800  0.03707500  1
  O  O18  1  0.00159500  0.94363800  0.96292500  1
  O  O19  1  0.49840500  0.44363800  0.03707500  1
  O  O20  1  0.50159500  0.44363800  0.96292500  1
  O  O21  1  0.06085000  0.00691700  0.09923500  1
  O  O22  1  0.93914900  0.00691700  0.90076500  1
  O  O23  1  0.56085000  0.50691700  0.09923500  1
  O  O24  1  0.43914900  0.50691700  0.90076500  1
  O  O25  1  0.06148300  0.00603700  0.02265700  1
  O  O26  1  0.93851700  0.00603700  0.97734300  1
  O  O27  1  0.56148300  0.50603700  0.02265700  1
  O  O28  1  0.43851700  0.50603700  0.97734300  1
  O  O29  1  0.99756500  0.07268100  0.03607000  1
  O  O30  1  0.00243500  0.07268100  0.96393000  1
  O  O31  1  0.49756500  0.57268100  0.03607000  1
  O  O32  1  0.50243500  0.57268100  0.96393000  1
  O  O33  1  0.46554600  0.07163900  0.95267400  1
  O  O34  1  0.53445400  0.07163900  0.04732600  1
  O  O35  1  0.96554600  0.57163900  0.95267400  1
  O  O36  1  0.03445400  0.57163900  0.04732600  1
  O  O37  1  0.46617600  0.99571400  0.90222300  1
  O  O38  1  0.53382400  0.99571400  0.09777700  1
  O  O39  1  0.96617600  0.49571400  0.90222300  1
  O  O40  1  0.03382400  0.49571400  0.09777700  1
  O  O41  1  0.53533500  0.02097800  0.97171300  1
  O  O42  1  0.46466500  0.02097800  0.02828700  1
  O  O43  1  0.03533500  0.52097800  0.97171300  1
  O  O44  1  0.96466500  0.52097800  0.02828700  1
  O  O45  1  0.46532000  0.94515700  0.97787500  1
  O  O46  1  0.53468000  0.94515700  0.02212400  1
  O  O47  1  0.96532000  0.44515700  0.97787500  1
  O  O48  1  0.03468000  0.44515700  0.02212400  1
  O  O49  1  0.95366000  0.87319500  0.89082700  1
  O  O50  1  0.04634000  0.87319500  0.10917200  1
  O  O51  1  0.45366000  0.37319500  0.89082700  1
  O  O52  1  0.54634000  0.37319500  0.10917200  1
  O  O53  1  0.45158300  0.87388500  0.01360900  1
  O  O54  1  0.54841700  0.87388500  0.98639100  1
  O  O55  1  0.95158300  0.37388500  0.01360900  1
  O  O56  1  0.04841700  0.37388500  0.98639100  1
  O  O57  1  0.29484400  0.03132900  0.22342300  1
  O  O58  1  0.70515600  0.03132900  0.77657700  1
  O  O59  1  0.79484400  0.53132900  0.22342300  1
  O  O60  1  0.20515600  0.53132900  0.77657700  1
