# generated using pymatgen
data_ZnH19C35NO8
_symmetry_space_group_name_H-M   'P 1'
_cell_length_a   15.37335000
_cell_length_b   11.73297000
_cell_length_c   17.48883600
_cell_angle_alpha   90.15594000
_cell_angle_beta   90.00641700
_cell_angle_gamma   90.00000000
_symmetry_Int_Tables_number   1
_chemical_formula_structural   ZnH19C35NO8
_chemical_formula_sum   'Zn2 H38 C70 N2 O16'
_cell_volume   3154.53804062
_cell_formula_units_Z   2
loop_
 _symmetry_equiv_pos_site_id
 _symmetry_equiv_pos_as_xyz
  1  'x, y, z'
loop_
 _atom_site_type_symbol
 _atom_site_label
 _atom_site_symmetry_multiplicity
 _atom_site_fract_x
 _atom_site_fract_y
 _atom_site_fract_z
 _atom_site_occupancy
  Zn  Zn1  1  0.50466300  0.50118600  0.91525700  1
  Zn  Zn2  1  0.50582800  0.49672100  0.08493400  1
  H  H1  1  0.14829000  0.82304700  0.12275500  1
  H  H2  1  0.86582900  0.18221400  0.87905100  1
  H  H3  1  0.32257100  0.78535600  0.88835900  1
  H  H4  1  0.68357400  0.20513400  0.10963800  1
  H  H5  1  0.27664900  0.70111800  0.12287300  1
  H  H6  1  0.73752200  0.30404700  0.87910700  1
  H  H7  1  0.19553400  0.90968600  0.89005700  1
  H  H8  1  0.81102400  0.08128600  0.10788900  1
  H  H9  1  0.16070100  0.15048600  0.88036000  1
  H  H10  1  0.85387500  0.84029900  0.11869900  1
  H  H11  1  0.31253800  0.23960000  0.12010100  1
  H  H12  1  0.69365300  0.76531500  0.88099500  1
  H  H13  1  0.28903800  0.27141800  0.87802400  1
  H  H14  1  0.72553800  0.71946900  0.12131700  1
  H  H15  1  0.00603600  0.79045900  0.01143000  1
  H  H16  1  0.00451700  0.20747100  0.98824700  1
  H  H17  1  0.50184200  0.32501200  0.80809600  1
  H  H18  1  0.50441000  0.67289300  0.19206000  1
  H  H19  1  0.50260600  0.22124700  0.69153200  1
  H  H20  1  0.50360000  0.77670400  0.30860700  1
  H  H21  1  0.50391500  0.11646000  0.57507300  1
  H  H22  1  0.50211900  0.88147300  0.42505400  1
  H  H23  1  0.50584000  0.10891400  0.43814000  1
  H  H24  1  0.50151000  0.88905500  0.56195400  1
  H  H25  1  0.50618500  0.68119400  0.81026200  1
  H  H26  1  0.51124700  0.31678100  0.18994500  1
  H  H27  1  0.42920200  0.94066000  0.83909400  1
  H  H28  1  0.37758200  0.00281700  0.75650000  1
  H  H29  1  0.49395100  0.00843100  0.76639600  1
  H  H30  1  0.43159300  0.06233200  0.15921700  1
  H  H31  1  0.39032000  0.98978600  0.24246400  1
  H  H32  1  0.50569400  0.99617200  0.22529600  1
  H  H33  1  0.99338600  0.01831900  0.22147200  1
  H  H34  1  0.06873700  0.11526900  0.26687600  1
  H  H35  1  0.10116800  0.96949700  0.24619200  1
  H  H36  1  0.01149100  0.98246700  0.77565800  1
  H  H37  1  0.90445300  0.03907000  0.75652100  1
  H  H38  1  0.93084000  0.89322400  0.73018500  1
  C  C1  1  0.30936800  0.73520800  0.00573200  1
  C  C2  1  0.70101900  0.26275300  0.99427600  1
  C  C3  1  0.08348800  0.94093400  0.00516500  1
  C  C4  1  0.92691600  0.05703500  0.99457000  1
  C  C5  1  0.18782300  0.81676300  0.07180600  1
  C  C6  1  0.82470000  0.18536000  0.92913900  1
  C  C7  1  0.28599600  0.79467600  0.94074500  1
  C  C8  1  0.72217300  0.19930000  0.05813000  1
  C  C9  1  0.26059500  0.74798000  0.07167200  1
  C  C10  1  0.75190200  0.25399500  0.92932000  1
  C  C11  1  0.16486900  0.87635900  0.00701600  1
  C  C12  1  0.84558300  0.12180700  0.99275400  1
  C  C13  1  0.21450300  0.86570400  0.94166700  1
  C  C14  1  0.79376600  0.12839100  0.05707100  1
  C  C15  1  0.31002000  0.26286100  0.99926100  1
  C  C16  1  0.70037000  0.73505100  0.00102700  1
  C  C17  1  0.08292100  0.05845800  0.99836900  1
  C  C18  1  0.92749000  0.93942800  0.00122600  1
  C  C19  1  0.19450900  0.16879600  0.93318800  1
  C  C20  1  0.81827600  0.82503100  0.06635100  1
  C  C21  1  0.27996900  0.21791000  0.06734200  1
  C  C22  1  0.72806300  0.78385500  0.93339600  1
  C  C23  1  0.26740400  0.23689700  0.93198800  1
  C  C24  1  0.74529700  0.75713000  0.06774900  1
  C  C25  1  0.16339600  0.12499500  0.00102600  1
  C  C26  1  0.84705300  0.87271400  0.99890800  1
  C  C27  1  0.20623800  0.15005400  0.06934100  1
  C  C28  1  0.80175500  0.85170900  0.93122600  1
  C  C29  1  0.00570500  0.88239200  0.00744600  1
  C  C30  1  0.00473900  0.11553000  0.99216200  1
  C  C31  1  0.62759800  0.65411800  0.00083800  1
  C  C32  1  0.38286000  0.34378200  0.99938100  1
  C  C33  1  0.62845900  0.34377800  0.99663800  1
  C  C34  1  0.38195900  0.65410000  0.00352700  1
  C  C35  1  0.50219500  0.40432300  0.77684900  1
  C  C36  1  0.50557500  0.59360600  0.22332000  1
  C  C37  1  0.50429400  0.60372800  0.77704800  1
  C  C38  1  0.50912900  0.39424100  0.22315500  1
  C  C39  1  0.50317700  0.30021900  0.65985200  1
  C  C40  1  0.50442200  0.69773900  0.34029900  1
  C  C41  1  0.50277900  0.40280900  0.69817700  1
  C  C42  1  0.50547200  0.59515100  0.30198900  1
  C  C43  1  0.50347900  0.50358800  0.65804900  1
  C  C44  1  0.50643200  0.49439600  0.34213100  1
  C  C45  1  0.50374800  0.60570100  0.69745500  1
  C  C46  1  0.50793400  0.39230200  0.30274200  1
  C  C47  1  0.50550300  0.70768800  0.65699700  1
  C  C48  1  0.50976200  0.29035000  0.34320900  1
  C  C49  1  0.50514300  0.19533400  0.54331100  1
  C  C50  1  0.50348600  0.80262000  0.45683500  1
  C  C51  1  0.50471700  0.29815600  0.58117700  1
  C  C52  1  0.50463400  0.69980800  0.41898300  1
  C  C53  1  0.50550500  0.39853500  0.54049200  1
  C  C54  1  0.50550800  0.59944400  0.45968800  1
  C  C55  1  0.50683100  0.19194300  0.46475100  1
  C  C56  1  0.50374200  0.80602800  0.53540200  1
  C  C57  1  0.50844400  0.29231500  0.42286100  1
  C  C58  1  0.50546300  0.70568500  0.57733200  1
  C  C59  1  0.50481600  0.50160900  0.57909300  1
  C  C60  1  0.50636700  0.49637600  0.42109200  1
  C  C61  1  0.50539300  0.60233900  0.53877300  1
  C  C62  1  0.50691500  0.39564900  0.46141700  1
  C  C63  1  0.50903700  0.81714200  0.69797800  1
  C  C64  1  0.43555800  0.95544400  0.77676000  1
  C  C65  1  0.51450700  0.18105000  0.30216800  1
  C  C66  1  0.44382700  0.04391700  0.22044100  1
  C  C67  1  0.17482100  0.11101600  0.14483200  1
  C  C68  1  0.06275400  0.04347000  0.22579900  1
  C  C69  1  0.83068800  0.89486800  0.85606600  1
  C  C70  1  0.94118400  0.96161800  0.77316400  1
  N  N1  1  0.50294600  0.50393700  0.81499300  1
  N  N2  1  0.50756500  0.49400300  0.18519700  1
  O  O1  1  0.60088300  0.61240200  0.06634300  1
  O  O2  1  0.40962500  0.38545700  0.93384900  1
  O  O3  1  0.59518500  0.62199400  0.93477700  1
  O  O4  1  0.41528300  0.37594200  0.06543900  1
  O  O5  1  0.59937100  0.38514800  0.93190700  1
  O  O6  1  0.41112100  0.61278900  0.06827300  1
  O  O7  1  0.59822900  0.37585100  0.06347500  1
  O  O8  1  0.41222900  0.62199400  0.93671500  1
  O  O9  1  0.57468100  0.87532500  0.69415800  1
  O  O10  1  0.43968100  0.85211700  0.73948200  1
  O  O11  1  0.58061500  0.12382100  0.30626900  1
  O  O12  1  0.44545600  0.14482200  0.26074000  1
  O  O13  1  0.22377400  0.11440100  0.19966400  1
  O  O14  1  0.09198200  0.07662200  0.15517100  1
  O  O15  1  0.77906800  0.89831500  0.80316000  1
  O  O16  1  0.91411000  0.92515300  0.84371500  1
