# generated using pymatgen
data_ZnH11C24NO6
_symmetry_space_group_name_H-M   'P 1'
_cell_length_a   17.49509800
_cell_length_b   8.50517200
_cell_length_c   14.99533500
_cell_angle_alpha   90.00000000
_cell_angle_beta   98.84148500
_cell_angle_gamma   90.00000000
_symmetry_Int_Tables_number   1
_chemical_formula_structural   ZnH11C24NO6
_chemical_formula_sum   'Zn2 H22 C48 N2 O12'
_cell_volume   2204.77450926
_cell_formula_units_Z   2
loop_
 _symmetry_equiv_pos_site_id
 _symmetry_equiv_pos_as_xyz
  1  'x, y, z'
loop_
 _atom_site_type_symbol
 _atom_site_label
 _atom_site_symmetry_multiplicity
 _atom_site_fract_x
 _atom_site_fract_y
 _atom_site_fract_z
 _atom_site_occupancy
  Zn  Zn1  1  0.08465200  0.49978400  0.49602500  1
  Zn  Zn2  1  0.91534600  0.49962100  0.50396600  1
  H  H1  1  0.95695600  0.99964300  0.43376700  1
  H  H2  1  0.04300400  0.99960600  0.56621300  1
  H  H3  1  0.98902800  0.25043900  0.19695900  1
  H  H4  1  0.01101100  0.74905700  0.80313900  1
  H  H5  1  0.01147600  0.25062200  0.80314500  1
  H  H6  1  0.98851200  0.74887800  0.19675300  1
  H  H7  1  0.87192700  0.99641700  0.04777900  1
  H  H8  1  0.12807000  0.00336600  0.95221100  1
  H  H9  1  0.30550600  0.11799500  0.45325400  1
  H  H10  1  0.68625700  0.88307400  0.46765800  1
  H  H11  1  0.69438800  0.11773900  0.54660700  1
  H  H12  1  0.31385400  0.88327700  0.53248100  1
  H  H13  1  0.55531700  0.11473400  0.53880500  1
  H  H14  1  0.45221400  0.88667800  0.53463000  1
  H  H15  1  0.44457400  0.11479900  0.46114500  1
  H  H16  1  0.54789600  0.88662300  0.46551700  1
  H  H17  1  0.19344700  0.74397700  0.51323800  1
  H  H18  1  0.81122400  0.25549700  0.53027500  1
  H  H19  1  0.80662400  0.74370000  0.48696700  1
  H  H20  1  0.18871400  0.25588000  0.46951800  1
  H  H21  1  0.74864200  0.99380200  0.84323600  1
  H  H22  1  0.25136200  0.00559500  0.15673900  1
  C  C1  1  0.97094800  0.14067800  0.32017400  1
  C  C2  1  0.02905100  0.85867400  0.67985900  1
  C  C3  1  0.02920700  0.14072800  0.67983900  1
  C  C4  1  0.97078100  0.85862600  0.32010800  1
  C  C5  1  0.98186200  0.14065600  0.23104800  1
  C  C6  1  0.01816200  0.85880000  0.76900200  1
  C  C7  1  0.01845600  0.14079300  0.76901900  1
  C  C8  1  0.98153400  0.85866600  0.23092100  1
  C  C9  1  0.98435600  0.99968700  0.18565700  1
  C  C10  1  0.01564800  0.99983800  0.81433700  1
  C  C11  1  0.96287600  0.99965400  0.36320600  1
  C  C12  1  0.03709900  0.99965900  0.63677800  1
  C  C13  1  0.92809400  0.99789000  0.02624900  1
  C  C14  1  0.07190400  0.00191900  0.97374200  1
  C  C15  1  0.93396800  0.99800000  0.93547700  1
  C  C16  1  0.06603100  0.00176600  0.06451300  1
  C  C17  1  0.00647400  0.99995600  0.90937500  1
  C  C18  1  0.99352600  0.99975400  0.09061700  1
  C  C19  1  0.97961700  0.28435700  0.37454100  1
  C  C20  1  0.02036700  0.71495800  0.62551000  1
  C  C21  1  0.02048100  0.28438300  0.62545900  1
  C  C22  1  0.97953000  0.71493700  0.37447400  1
  C  C23  1  0.22101100  0.36451300  0.47871000  1
  C  C24  1  0.77633700  0.63585600  0.49683200  1
  C  C25  1  0.77895100  0.36416900  0.52116000  1
  C  C26  1  0.22370200  0.63613500  0.50328000  1
  C  C27  1  0.34136900  0.50080100  0.49349700  1
  C  C28  1  0.65863400  0.50061000  0.50651800  1
  C  C29  1  0.30012600  0.36322500  0.48041600  1
  C  C30  1  0.69736800  0.63800500  0.49584200  1
  C  C31  1  0.69983600  0.36296800  0.51949600  1
  C  C32  1  0.30267300  0.63822000  0.50424900  1
  C  C33  1  0.33799000  0.22512300  0.46836600  1
  C  C34  1  0.65676400  0.77623300  0.48113900  1
  C  C35  1  0.66193300  0.22490500  0.53152400  1
  C  C36  1  0.34331700  0.77639900  0.51899500  1
  C  C37  1  0.54019700  0.36032500  0.50654300  1
  C  C38  1  0.46079000  0.64115300  0.50312900  1
  C  C39  1  0.45976700  0.36037500  0.49345000  1
  C  C40  1  0.53926100  0.64111000  0.49699200  1
  C  C41  1  0.57928600  0.50070300  0.50350700  1
  C  C42  1  0.42072000  0.50079800  0.49654000  1
  C  C43  1  0.58247300  0.22310700  0.52444600  1
  C  C44  1  0.42187000  0.77837100  0.51775100  1
  C  C45  1  0.41745100  0.22321600  0.47549700  1
  C  C46  1  0.57821500  0.77829000  0.48239200  1
  C  C47  1  0.86312600  0.99628900  0.86862700  1
  C  C48  1  0.13687600  0.00330600  0.13135900  1
  N  N1  1  0.18421800  0.49995700  0.49122400  1
  N  N2  1  0.81578100  0.49962000  0.50876400  1
  O  O1  1  0.91881300  0.33934800  0.40587700  1
  O  O2  1  0.08115900  0.65981600  0.59423900  1
  O  O3  1  0.08125800  0.33949200  0.59412000  1
  O  O4  1  0.91876700  0.65967300  0.40574700  1
  O  O5  1  0.05025300  0.33374700  0.40288100  1
  O  O6  1  0.94973800  0.66574300  0.59705000  1
  O  O7  1  0.94981800  0.33363300  0.59711400  1
  O  O8  1  0.05018500  0.66585900  0.40293800  1
  O  O9  1  0.86666200  0.99635800  0.78808300  1
  O  O10  1  0.79115900  0.99475300  0.89724300  1
  O  O11  1  0.13334600  0.00309800  0.21190400  1
  O  O12  1  0.20884100  0.00476200  0.10273500  1
