# generated using pymatgen
data_Zn3H19C37(O6F)2
_symmetry_space_group_name_H-M   'P 1'
_cell_length_a   18.75706400
_cell_length_b   18.82482400
_cell_length_c   18.93481800
_cell_angle_alpha   109.32106900
_cell_angle_beta   109.79167800
_cell_angle_gamma   108.98854200
_symmetry_Int_Tables_number   1
_chemical_formula_structural   Zn3H19C37(O6F)2
_chemical_formula_sum   'Zn6 H38 C74 O24 F4'
_cell_volume   5166.32668078
_cell_formula_units_Z   2
loop_
 _symmetry_equiv_pos_site_id
 _symmetry_equiv_pos_as_xyz
  1  'x, y, z'
loop_
 _atom_site_type_symbol
 _atom_site_label
 _atom_site_symmetry_multiplicity
 _atom_site_fract_x
 _atom_site_fract_y
 _atom_site_fract_z
 _atom_site_occupancy
  Zn  Zn1  1  0.50300100  0.43142100  0.43836200  1
  Zn  Zn2  1  0.49069200  0.56388100  0.57039600  1
  Zn  Zn3  1  0.93067700  0.43322000  0.00814600  1
  Zn  Zn4  1  0.07240500  0.57094100  0.01006800  1
  Zn  Zn5  1  0.06563800  0.99934300  0.57702200  1
  Zn  Zn6  1  0.92710900  0.99993700  0.43661400  1
  H  H1  1  0.18156700  0.56455900  0.31487200  1
  H  H2  1  0.35917500  0.63569600  0.36486300  1
  H  H3  1  0.31195800  0.56988500  0.18997300  1
  H  H4  1  0.18129300  0.41410600  0.31313800  1
  H  H5  1  0.75613600  0.76289300  0.64377100  1
  H  H6  1  0.87044400  0.87474000  0.64531200  1
  H  H7  1  0.72718000  0.74575000  0.36976100  1
  H  H8  1  0.61651800  0.63088200  0.36824100  1
  H  H9  1  0.62762200  0.51238200  0.77561600  1
  H  H10  1  0.73857000  0.50854800  0.88661700  1
  H  H11  1  0.87976700  0.50997800  0.75107500  1
  H  H12  1  0.76575500  0.50754900  0.63697000  1
  H  H13  1  0.23487400  0.36550700  0.49700200  1
  H  H14  1  0.12043500  0.25391400  0.49459000  1
  H  H15  1  0.26555000  0.12126100  0.51357000  1
  H  H16  1  0.00685600  0.76781800  0.14035000  1
  H  H17  1  0.99830600  0.87426200  0.24918700  1
  H  H18  1  0.99646100  0.61989100  0.26845900  1
  H  H19  1  0.13839900  0.37799800  0.87921600  1
  H  H20  1  0.13756300  0.26454900  0.76787000  1
  H  H21  1  0.85982800  0.12976800  0.63072200  1
  H  H22  1  0.86067800  0.24017200  0.74543900  1
  H  H23  1  0.32185000  0.10241900  0.39860300  1
  H  H24  1  0.44713200  0.08207600  0.40963900  1
  H  H25  1  0.61565200  0.32449400  0.64230300  1
  H  H26  1  0.49072200  0.34580100  0.63155700  1
  H  H27  1  0.10992500  0.71770000  0.43886200  1
  H  H28  1  0.10056600  0.68592300  0.55205000  1
  H  H29  1  0.85960100  0.68553600  0.48203000  1
  H  H30  1  0.86879600  0.71839600  0.36912300  1
  H  H31  1  0.26317500  0.29581300  0.19267800  1
  H  H32  1  0.32100800  0.21383100  0.12308100  1
  H  H33  1  0.43669000  0.41364300  0.07369200  1
  H  H34  1  0.37958000  0.49600000  0.14278300  1
  H  H35  1  0.14277800  0.34797100  0.02165800  1
  H  H36  1  0.02922000  0.20320900  0.89979700  1
  H  H37  1  0.95989000  0.13544500  0.06955600  1
  H  H38  1  0.07293000  0.27900900  0.19150700  1
  C  C1  1  0.61340600  0.62057100  0.50448300  1
  C  C2  1  0.37303400  0.48864500  0.37819700  1
  C  C3  1  0.38071900  0.37461400  0.50493500  1
  C  C4  1  0.62083500  0.50693800  0.63032000  1
  C  C5  1  0.30712400  0.56954600  0.31184700  1
  C  C6  1  0.21136500  0.53045100  0.28610500  1
  C  C7  1  0.18799900  0.49355900  0.19240700  1
  C  C8  1  0.28296000  0.53280000  0.21715200  1
  C  C9  1  0.28051400  0.45033100  0.21416800  1
  C  C10  1  0.18550900  0.41170000  0.18861400  1
  C  C11  1  0.20922200  0.44776300  0.28296800  1
  C  C12  1  0.30436500  0.48703400  0.30786100  1
  C  C13  1  0.74964100  0.75915600  0.58352300  1
  C  C14  1  0.81428100  0.82173200  0.58434300  1
  C  C15  1  0.80598800  0.81766100  0.50764100  1
  C  C16  1  0.73375300  0.74998400  0.43018200  1
  C  C17  1  0.67175100  0.68491500  0.42924500  1
  C  C18  1  0.67906500  0.68988100  0.50589200  1
  C  C19  1  0.68312900  0.51225200  0.77020500  1
  C  C20  1  0.74514300  0.50922600  0.83226000  1
  C  C21  1  0.81631500  0.50926600  0.82598800  1
  C  C22  1  0.82453000  0.51069200  0.75673200  1
  C  C23  1  0.76005400  0.50876800  0.69223000  1
  C  C24  1  0.68968200  0.51035300  0.69927400  1
  C  C25  1  0.24203100  0.31182200  0.50035800  1
  C  C26  1  0.17704500  0.24851900  0.49817400  1
  C  C27  1  0.18601300  0.18065800  0.50414000  1
  C  C28  1  0.25866600  0.17464200  0.50899900  1
  C  C29  1  0.32253600  0.23599800  0.50761100  1
  C  C30  1  0.31459000  0.30587700  0.50424400  1
  C  C31  1  0.00222600  0.62071100  0.13063600  1
  C  C32  1  0.12095000  0.49760200  0.12644300  1
  C  C33  1  0.00067700  0.38345900  0.88739700  1
  C  C34  1  0.88217600  0.50649000  0.89181800  1
  C  C35  1  0.99385200  0.87623200  0.38801700  1
  C  C36  1  0.87378900  0.88368600  0.50770700  1
  C  C37  1  0.99858900  0.12243200  0.62564700  1
  C  C38  1  0.11886000  0.11568100  0.50577500  1
  C  C39  1  0.00398800  0.75920700  0.19319300  1
  C  C40  1  0.99791100  0.81847700  0.25390400  1
  C  C41  1  0.99450200  0.80863100  0.32205200  1
  C  C42  1  0.99561300  0.73737700  0.32818900  1
  C  C43  1  0.99802600  0.67655800  0.26510900  1
  C  C44  1  0.00269500  0.68743000  0.19805900  1
  C  C45  1  0.07701200  0.32353000  0.82476800  1
  C  C46  1  0.07656200  0.25932000  0.76231700  1
  C  C47  1  0.99866000  0.19016700  0.69179700  1
  C  C48  1  0.92114200  0.18424300  0.68527500  1
  C  C49  1  0.92163400  0.24600700  0.75028200  1
  C  C50  1  0.99960300  0.31636100  0.81963800  1
  C  C51  1  0.39835900  0.22637300  0.51316800  1
  C  C52  1  0.38639600  0.15177700  0.45198300  1
  C  C53  1  0.45671400  0.14026100  0.45805400  1
  C  C54  1  0.53912600  0.20262900  0.52613600  1
  C  C55  1  0.55115400  0.27640400  0.58824500  1
  C  C56  1  0.48097200  0.28840900  0.58186700  1
  C  C57  1  0.99104600  0.72216800  0.39797200  1
  C  C58  1  0.05507700  0.71142500  0.44852800  1
  C  C59  1  0.04995200  0.69360800  0.51218500  1
  C  C60  1  0.97998800  0.68491600  0.52455100  1
  C  C61  1  0.91510900  0.69392500  0.47315900  1
  C  C62  1  0.92057800  0.71269700  0.41003900  1
  C  C63  1  0.31719600  0.40146300  0.17256400  1
  C  C64  1  0.30118700  0.32204600  0.16655500  1
  C  C65  1  0.33369800  0.27586500  0.12750300  1
  C  C66  1  0.38234600  0.30872600  0.09411800  1
  C  C67  1  0.39847500  0.38781900  0.09984800  1
  C  C68  1  0.36598400  0.43412500  0.13886100  1
  C  C69  1  0.11570100  0.32348200  0.11485200  1
  C  C70  1  0.10274800  0.30152000  0.03257100  1
  C  C71  1  0.03894700  0.22025900  0.96400000  1
  C  C72  1  0.98758800  0.16063500  0.97725200  1
  C  C73  1  0.00015600  0.18225000  0.05914400  1
  C  C74  1  0.06406200  0.26342100  0.12787200  1
  O  O1  1  0.58792500  0.54052500  0.45097100  1
  O  O2  1  0.58327600  0.64133500  0.55687800  1
  O  O3  1  0.40798600  0.44094800  0.35733300  1
  O  O4  1  0.39715400  0.53985800  0.45843000  1
  O  O5  1  0.41218200  0.35400300  0.45371200  1
  O  O6  1  0.40389900  0.45463500  0.55588900  1
  O  O7  1  0.59817900  0.45721900  0.55023000  1
  O  O8  1  0.58416100  0.55274000  0.65144000  1
  O  O9  1  0.94731000  0.53980900  0.10096100  1
  O  O10  1  0.05599700  0.64428200  0.10255600  1
  O  O11  1  0.03870300  0.44747100  0.09865400  1
  O  O12  1  0.14722600  0.55066300  0.09866000  1
  O  O13  1  0.94515800  0.36009900  0.91372000  1
  O  O14  1  0.05774800  0.46422700  0.91928200  1
  O  O15  1  0.85603900  0.45545800  0.92160000  1
  O  O16  1  0.96432200  0.55474800  0.91772100  1
  O  O17  1  0.04727800  0.90599300  0.46971500  1
  O  O18  1  0.94163400  0.90600000  0.36235300  1
  O  O19  1  0.95558200  0.91387800  0.56308600  1
  O  O20  1  0.84962200  0.90834200  0.45085400  1
  O  O21  1  0.05420300  0.09613300  0.65117000  1
  O  O22  1  0.94276000  0.09056300  0.54405800  1
  O  O23  1  0.14319900  0.08793100  0.55982900  1
  O  O24  1  0.03711700  0.08836700  0.45328300  1
  F  F1  1  0.60818400  0.19102800  0.53250700  1
  F  F2  1  0.97450800  0.66666667  0.58659200  1
  F  F3  1  0.41432000  0.26334200  0.05572200  1
  F  F4  1  0.92483200  0.08078700  0.90983300  1
