# generated using pymatgen
data_ZnH17C21NO4
_symmetry_space_group_name_H-M   'P 1'
_cell_length_a   14.35032000
_cell_length_b   8.54807500
_cell_length_c   15.06642700
_cell_angle_alpha   90.00000000
_cell_angle_beta   90.96715900
_cell_angle_gamma   90.00000000
_symmetry_Int_Tables_number   1
_chemical_formula_structural   ZnH17C21NO4
_chemical_formula_sum   'Zn2 H34 C42 N2 O8'
_cell_volume   1847.89931625
_cell_formula_units_Z   2
loop_
 _symmetry_equiv_pos_site_id
 _symmetry_equiv_pos_as_xyz
  1  'x, y, z'
loop_
 _atom_site_type_symbol
 _atom_site_label
 _atom_site_symmetry_multiplicity
 _atom_site_fract_x
 _atom_site_fract_y
 _atom_site_fract_z
 _atom_site_occupancy
  Zn  Zn1  1  0.89701400  0.50708200  0.51119800  1
  Zn  Zn2  1  0.10302500  0.50628100  0.48878500  1
  H  H1  1  0.04495800  0.00640900  0.55998500  1
  H  H2  1  0.95514000  0.00688300  0.43995800  1
  H  H3  1  0.00231800  0.25760800  0.79809600  1
  H  H4  1  0.99765200  0.75573900  0.20179500  1
  H  H5  1  0.99966100  0.25734900  0.20160900  1
  H  H6  1  0.00021100  0.75604200  0.79832800  1
  H  H7  1  0.91419200  0.20879200  0.91623600  1
  H  H8  1  0.08591600  0.80468900  0.08367500  1
  H  H9  1  0.91131000  0.20976400  0.07691600  1
  H  H10  1  0.08880700  0.80366600  0.92296400  1
  H  H11  1  0.60293600  0.51371200  0.37296600  1
  H  H12  1  0.39711700  0.51052800  0.62735200  1
  H  H13  1  0.36171700  0.43814900  0.32317500  1
  H  H14  1  0.31998500  0.72126300  0.36669000  1
  H  H15  1  0.30947300  0.66816300  0.25194300  1
  H  H16  1  0.47571800  0.83763200  0.33948100  1
  H  H17  1  0.38276200  0.92764800  0.27492400  1
  H  H18  1  0.51705400  0.88145800  0.18002600  1
  H  H19  1  0.42214700  0.75415300  0.14630600  1
  H  H20  1  0.58955100  0.67389200  0.26599100  1
  H  H21  1  0.57069900  0.60986800  0.15398900  1
  H  H22  1  0.52383000  0.39928300  0.26187900  1
  H  H23  1  0.43316600  0.46477000  0.18896300  1
  H  H24  1  0.63834300  0.43820300  0.67742700  1
  H  H25  1  0.68013400  0.72124600  0.63459300  1
  H  H26  1  0.68963300  0.66830400  0.74940800  1
  H  H27  1  0.52400100  0.83755100  0.66063400  1
  H  H28  1  0.61638700  0.92760900  0.72590700  1
  H  H29  1  0.48103100  0.88107600  0.81955800  1
  H  H30  1  0.57594700  0.75458800  0.85425300  1
  H  H31  1  0.40999600  0.67283500  0.73315100  1
  H  H32  1  0.42774900  0.60927200  0.84539600  1
  H  H33  1  0.47638600  0.39824800  0.73872700  1
  H  H34  1  0.56646800  0.46551100  0.81173900  1
  C  C1  1  0.02140200  0.14587500  0.67386700  1
  C  C2  1  0.97861800  0.86743900  0.32605400  1
  C  C3  1  0.97761400  0.14637100  0.32592100  1
  C  C4  1  0.02241600  0.86697200  0.67403900  1
  C  C5  1  0.00771200  0.14675400  0.76423600  1
  C  C6  1  0.99224800  0.86658700  0.23566900  1
  C  C7  1  0.99083000  0.14709700  0.23550200  1
  C  C8  1  0.00910100  0.86627400  0.76443500  1
  C  C9  1  0.00601000  0.00650300  0.81060700  1
  C  C10  1  0.99395500  0.00686700  0.18930900  1
  C  C11  1  0.03367000  0.00644900  0.63043100  1
  C  C12  1  0.96640500  0.00686400  0.36951400  1
  C  C13  1  0.95339600  0.12089400  0.95229900  1
  C  C14  1  0.04672100  0.89257400  0.04760400  1
  C  C15  1  0.95197300  0.12167900  0.04378500  1
  C  C16  1  0.04814700  0.89177200  0.95610900  1
  C  C17  1  0.99860400  0.00763100  0.09205200  1
  C  C18  1  0.00146300  0.00578600  0.90785300  1
  C  C19  1  0.01535800  0.72494800  0.62062400  1
  C  C20  1  0.98468300  0.28838500  0.37937700  1
  C  C21  1  0.98525400  0.72535600  0.37951700  1
  C  C22  1  0.01477100  0.28793700  0.62040100  1
  C  C23  1  0.45998300  0.53187300  0.41460300  1
  C  C24  1  0.54001600  0.53165700  0.58586800  1
  C  C25  1  0.40484600  0.52393500  0.48905000  1
  C  C26  1  0.59518900  0.52513100  0.51136700  1
  C  C27  1  0.44427100  0.52244100  0.57322700  1
  C  C28  1  0.55576200  0.52405900  0.42718200  1
  C  C29  1  0.30514200  0.51278500  0.48138200  1
  C  C30  1  0.69490000  0.51434700  0.51887600  1
  C  C31  1  0.41349600  0.53445100  0.32385300  1
  C  C32  1  0.35970300  0.68631400  0.30773200  1
  C  C33  1  0.42423800  0.81937600  0.28473700  1
  C  C34  1  0.47361900  0.78050900  0.19997400  1
  C  C35  1  0.53544500  0.64051000  0.21658500  1
  C  C36  1  0.47794400  0.50021300  0.24621300  1
  C  C37  1  0.58637900  0.53423700  0.67672000  1
  C  C38  1  0.63987600  0.68630300  0.69321000  1
  C  C39  1  0.57504200  0.81927900  0.71574600  1
  C  C40  1  0.52492700  0.78036800  0.80011600  1
  C  C41  1  0.46360900  0.63988600  0.78312900  1
  C  C42  1  0.52178100  0.49987800  0.75422100  1
  N  N1  1  0.77540700  0.50770900  0.52230800  1
  N  N2  1  0.22463600  0.50609500  0.47771600  1
  O  O1  1  0.09043700  0.67550000  0.58093100  1
  O  O2  1  0.90951800  0.33785600  0.41903700  1
  O  O3  1  0.91001200  0.67643300  0.41918100  1
  O  O4  1  0.09008100  0.33691000  0.58080100  1
  O  O5  1  0.93172400  0.67013400  0.60262500  1
  O  O6  1  0.06838700  0.34319300  0.39734700  1
  O  O7  1  0.06873200  0.66979700  0.39748400  1
  O  O8  1  0.93125100  0.34352200  0.60249100  1
