# generated using pymatgen
data_V2H22C37O10
_symmetry_space_group_name_H-M   'P 1'
_cell_length_a   6.69884000
_cell_length_b   20.05302900
_cell_length_c   23.44859600
_cell_angle_alpha   91.06929100
_cell_angle_beta   90.70850600
_cell_angle_gamma   89.15935900
_symmetry_Int_Tables_number   1
_chemical_formula_structural   V2H22C37O10
_chemical_formula_sum   'V4 H44 C74 O20'
_cell_volume   3148.77972488
_cell_formula_units_Z   2
loop_
 _symmetry_equiv_pos_site_id
 _symmetry_equiv_pos_as_xyz
  1  'x, y, z'
loop_
 _atom_site_type_symbol
 _atom_site_label
 _atom_site_symmetry_multiplicity
 _atom_site_fract_x
 _atom_site_fract_y
 _atom_site_fract_z
 _atom_site_occupancy
  V  V1  1  0.19401100  0.49797700  0.49570400  1
  V  V2  1  0.69446000  0.50195900  0.51016300  1
  V  V3  1  0.55961900  0.00535700  0.01058700  1
  V  V4  1  0.05861700  0.00014000  0.99841500  1
  H  H1  1  0.43885600  0.67164400  0.79977700  1
  H  H2  1  0.76170000  0.64354800  0.64446300  1
  H  H3  1  0.24824900  0.69955800  0.54495100  1
  H  H4  1  0.39409700  0.72364000  0.88801700  1
  H  H5  1  0.47889100  0.81111800  0.95821200  1
  H  H6  1  0.93670400  0.87913400  0.85281300  1
  H  H7  1  0.60380200  0.65970000  0.71056700  1
  H  H8  1  0.06104000  0.87304000  0.77982800  1
  H  H9  1  0.31112700  0.79519300  0.60803000  1
  H  H10  1  0.05646700  0.27640600  0.83828400  1
  H  H11  1  0.25120200  0.24468900  0.73414000  1
  H  H12  1  0.01132800  0.13066200  0.72225700  1
  H  H13  1  0.72866700  0.20711300  0.66115000  1
  H  H14  1  0.53427100  0.23882000  0.76541300  1
  H  H15  1  0.27489500  0.63654900  0.22036600  1
  H  H16  1  0.57178400  0.70455800  0.16121900  1
  H  H17  1  0.04490800  0.75564400  0.22399400  1
  H  H18  1  0.22816500  0.78830200  0.32973800  1
  H  H19  1  0.52494400  0.85628500  0.27068400  1
  H  H20  1  0.75517000  0.73716900  0.26710800  1
  H  H21  1  0.99772100  0.35364900  0.18976100  1
  H  H22  1  0.28192500  0.36559900  0.35524100  1
  H  H23  1  0.74318300  0.29486400  0.46330000  1
  H  H24  1  0.76671600  0.14969300  0.30797100  1
  H  H25  1  0.95280500  0.30113900  0.10059300  1
  H  H26  1  0.02804100  0.20903500  0.03328000  1
  H  H27  1  0.47260500  0.13487000  0.14475600  1
  H  H28  1  0.15119200  0.36023500  0.28230200  1
  H  H29  1  0.61088200  0.14241700  0.21613300  1
  H  H30  1  0.81596700  0.20269700  0.39606100  1
  H  H31  1  0.68652300  0.36866700  0.82413100  1
  H  H32  1  0.99801200  0.41806200  0.74012300  1
  H  H33  1  0.04193900  0.39986100  0.81462900  1
  H  H34  1  0.87549200  0.46784400  0.79499200  1
  H  H35  1  0.67021600  0.39418100  0.69528100  1
  H  H36  1  0.54763400  0.44394300  0.75015400  1
  H  H37  1  0.47403900  0.35845100  0.73692500  1
  H  H38  1  0.41670400  0.84425800  0.67668100  1
  H  H39  1  0.08574400  0.94733200  0.64976700  1
  H  H40  1  0.16604100  0.88233300  0.60061200  1
  H  H41  1  0.33898900  0.94617500  0.62385900  1
  H  H42  1  0.19129100  0.95189900  0.74585400  1
  H  H43  1  0.45234800  0.94981200  0.72793700  1
  H  H44  1  0.35744000  0.88867200  0.77588500  1
  C  C1  1  0.46818200  0.57884100  0.42232200  1
  C  C2  1  0.48000100  0.39274000  0.44871000  1
  C  C3  1  0.98148000  0.42062900  0.58319300  1
  C  C4  1  0.97519300  0.60734700  0.55704100  1
  C  C5  1  0.71528900  0.84894000  0.90871500  1
  C  C6  1  0.99545200  0.66813900  0.59121000  1
  C  C7  1  0.51448900  0.75734900  0.87985300  1
  C  C8  1  0.56252100  0.80601300  0.91920000  1
  C  C9  1  0.82053300  0.84366000  0.85870600  1
  C  C10  1  0.76941000  0.79548600  0.81778200  1
  C  C11  1  0.61615200  0.75247300  0.82937000  1
  C  C12  1  0.86675000  0.78955200  0.76560800  1
  C  C13  1  0.81209100  0.73977900  0.72654400  1
  C  C14  1  0.65647300  0.69796800  0.73931800  1
  C  C15  1  0.56005900  0.70451200  0.79031000  1
  C  C16  1  0.01740800  0.83283600  0.75186800  1
  C  C17  1  0.11709100  0.82560900  0.70121100  1
  C  C18  1  0.07135000  0.77393100  0.66414200  1
  C  C19  1  0.91654100  0.73149300  0.67581100  1
  C  C20  1  0.18646300  0.76344000  0.61634900  1
  C  C21  1  0.15165400  0.70964700  0.58078000  1
  C  C22  1  0.87564100  0.67948400  0.63762300  1
  C  C23  1  0.82864100  0.30032000  0.76483500  1
  C  C24  1  0.98388400  0.26056700  0.79758300  1
  C  C25  1  0.79923100  0.11639700  0.87542800  1
  C  C26  1  0.98562000  0.37261000  0.62827400  1
  C  C27  1  0.69699700  0.24000700  0.75763200  1
  C  C28  1  0.85399000  0.19994300  0.78930700  1
  C  C29  1  0.80215300  0.22248200  0.70184800  1
  C  C30  1  0.93201000  0.28310800  0.70999000  1
  C  C31  1  0.95829000  0.18157900  0.73432600  1
  C  C32  1  0.08845600  0.24296500  0.74177400  1
  C  C33  1  0.81663300  0.15327300  0.83559100  1
  C  C34  1  0.96870100  0.33206300  0.66542000  1
  C  C35  1  0.49434700  0.72310400  0.20005100  1
  C  C36  1  0.33115600  0.68699400  0.23127200  1
  C  C37  1  0.46948000  0.62359100  0.37493900  1
  C  C38  1  0.31140900  0.87198000  0.11876200  1
  C  C39  1  0.59360500  0.74182800  0.25680400  1
  C  C40  1  0.42988300  0.70651100  0.28717900  1
  C  C41  1  0.46875600  0.80583100  0.25977500  1
  C  C42  1  0.37000200  0.78632200  0.20387100  1
  C  C43  1  0.30563500  0.76975200  0.29091400  1
  C  C44  1  0.20647900  0.75097300  0.23428600  1
  C  C45  1  0.45714700  0.66103600  0.33519900  1
  C  C46  1  0.33603100  0.83273800  0.15681900  1
  C  C47  1  0.26193800  0.16891800  0.08553900  1
  C  C48  1  0.50302200  0.33358700  0.41270400  1
  C  C49  1  0.07014800  0.26543400  0.11043400  1
  C  C50  1  0.11318700  0.21429500  0.07253300  1
  C  C51  1  0.36506300  0.17375100  0.13640900  1
  C  C52  1  0.31691700  0.22333100  0.17607300  1
  C  C53  1  0.16897600  0.26917800  0.16228100  1
  C  C54  1  0.40884200  0.22648000  0.22969800  1
  C  C55  1  0.35040300  0.27549400  0.26908400  1
  C  C56  1  0.20262900  0.32123300  0.25390000  1
  C  C57  1  0.11397800  0.31807300  0.20084600  1
  C  C58  1  0.55782800  0.18105200  0.24459900  1
  C  C59  1  0.64844300  0.18468200  0.29725000  1
  C  C60  1  0.59375000  0.23351900  0.33578800  1
  C  C61  1  0.44309700  0.27874800  0.32265400  1
  C  C62  1  0.69650700  0.23785000  0.38686500  1
  C  C63  1  0.65510000  0.28907500  0.42463100  1
  C  C64  1  0.39402700  0.32786700  0.36278800  1
  C  C65  1  0.28611700  0.10854600  0.05109100  1
  C  C66  1  0.28946200  0.92035300  0.07432400  1
  C  C67  1  0.74825900  0.90325500  0.94948000  1
  C  C68  1  0.80256200  0.07515400  0.92519900  1
  C  C69  1  0.75527200  0.36969900  0.78138000  1
  C  C70  1  0.92933100  0.41703200  0.78288200  1
  C  C71  1  0.60151600  0.39313800  0.73803800  1
  C  C72  1  0.27856400  0.87278600  0.68717300  1
  C  C73  1  0.21329100  0.91474500  0.63696000  1
  C  C74  1  0.32209700  0.91868200  0.73771200  1
  O  O1  1  0.64459800  0.41898800  0.46659600  1
  O  O2  1  0.29638200  0.55446600  0.43488200  1
  O  O3  1  0.14047900  0.58078100  0.53949000  1
  O  O4  1  0.30371600  0.41999800  0.45329500  1
  O  O5  1  0.14782600  0.43761200  0.55946200  1
  O  O6  1  0.63742400  0.56194600  0.44619500  1
  O  O7  1  0.46926000  0.50766800  0.53838200  1
  O  O8  1  0.80722900  0.44568000  0.57106400  1
  O  O9  1  0.80069800  0.58016000  0.55235400  1
  O  O10  1  0.96703600  0.49228200  0.46748000  1
  O  O11  1  0.10865500  0.92464400  0.04944500  1
  O  O12  1  0.46500300  0.09687500  0.02928300  1
  O  O13  1  0.64793600  0.03648100  0.93565500  1
  O  O14  1  0.41844400  0.97057600  0.07720400  1
  O  O15  1  0.60216800  0.91187600  0.98651500  1
  O  O16  1  0.14968400  0.06294000  0.05883200  1
  O  O17  1  0.28293200  0.99369200  0.96711000  1
  O  O18  1  0.91369300  0.94012000  0.94457600  1
  O  O19  1  0.96469900  0.07958200  0.95691600  1
  O  O20  1  0.78533700  0.01030400  0.04256100  1
