# generated using pymatgen
data_ZnH10C21NO6
_symmetry_space_group_name_H-M   'P 1'
_cell_length_a   13.02771400
_cell_length_b   14.42057300
_cell_length_c   8.56938000
_cell_angle_alpha   90.00000000
_cell_angle_beta   95.11651100
_cell_angle_gamma   90.00000000
_symmetry_Int_Tables_number   1
_chemical_formula_structural   ZnH10C21NO6
_chemical_formula_sum   'Zn2 H20 C42 N2 O12'
_cell_volume   1603.48976184
_cell_formula_units_Z   2
loop_
 _symmetry_equiv_pos_site_id
 _symmetry_equiv_pos_as_xyz
  1  'x, y, z'
loop_
 _atom_site_type_symbol
 _atom_site_label
 _atom_site_symmetry_multiplicity
 _atom_site_fract_x
 _atom_site_fract_y
 _atom_site_fract_z
 _atom_site_occupancy
  Zn  Zn1  1  0.51294100  0.10417900  0.50229100  1
  Zn  Zn2  1  0.48701800  0.89560300  0.49714600  1
  H  H1  1  0.83833600  0.00992800  0.79178500  1
  H  H2  1  0.16162500  0.98984500  0.20765700  1
  H  H3  1  0.00683700  0.04388100  0.16356500  1
  H  H4  1  0.99312300  0.95589500  0.83588000  1
  H  H5  1  0.84901300  0.00992300  0.29227600  1
  H  H6  1  0.15094500  0.98984800  0.70716800  1
  H  H7  1  0.56872400  0.95401400  0.01610200  1
  H  H8  1  0.43123100  0.04578000  0.98333500  1
  H  H9  1  0.36263900  0.27615100  0.65685200  1
  H  H10  1  0.17771700  0.21193200  0.55766500  1
  H  H11  1  0.09926700  0.32925600  0.34300700  1
  H  H12  1  0.64236000  0.72503700  0.67955900  1
  H  H13  1  0.82486900  0.78859400  0.61611400  1
  H  H14  1  0.89722100  0.66952600  0.41960600  1
  H  H15  1  0.68257700  0.30028300  0.35893300  1
  H  H16  1  0.87792200  0.27102600  0.45983800  1
  H  H17  1  0.93040700  0.40391300  0.66286800  1
  H  H18  1  0.31279300  0.69797300  0.31560700  1
  H  H19  1  0.11982400  0.72810200  0.37613000  1
  H  H20  1  0.07313800  0.59717900  0.57271900  1
  C  C1  1  0.70250300  0.98222900  0.16849000  1
  C  C2  1  0.29745400  0.01755200  0.83094900  1
  C  C3  1  0.80721600  0.99975400  0.17883700  1
  C  C4  1  0.19274300  0.00002200  0.82060500  1
  C  C5  1  0.85874500  0.00185300  0.04384900  1
  C  C6  1  0.14121600  0.99792300  0.95559500  1
  C  C7  1  0.80278700  0.99764300  0.89886900  1
  C  C8  1  0.19717300  0.00213300  0.10057400  1
  C  C9  1  0.69865000  0.98048200  0.88982600  1
  C  C10  1  0.30130800  0.01930100  0.10961400  1
  C  C11  1  0.65034700  0.96750800  0.02416600  1
  C  C12  1  0.34961000  0.03228000  0.97527200  1
  C  C13  1  0.97128000  0.01343600  0.05680600  1
  C  C14  1  0.02868000  0.98633900  0.94263900  1
  C  C15  1  0.48963700  0.59510400  0.49742300  1
  C  C16  1  0.51039600  0.40468000  0.50263300  1
  C  C17  1  0.47983700  0.69420900  0.49525000  1
  C  C18  1  0.52017100  0.30557500  0.50455400  1
  C  C19  1  0.64150900  0.98809100  0.30355100  1
  C  C20  1  0.35844800  0.01169000  0.69588400  1
  C  C21  1  0.36435200  0.01283900  0.25816700  1
  C  C22  1  0.63560800  0.98694500  0.74127100  1
  C  C23  1  0.40282800  0.53968800  0.48795200  1
  C  C24  1  0.59716500  0.46008400  0.50907100  1
  C  C25  1  0.58673400  0.55549300  0.50958900  1
  C  C26  1  0.41334100  0.44430800  0.49358800  1
  C  C27  1  0.32157200  0.38525300  0.48044300  1
  C  C28  1  0.31018800  0.30550600  0.56517600  1
  C  C29  1  0.21493100  0.27305200  0.51624300  1
  C  C30  1  0.17493100  0.33497000  0.40516900  1
  C  C31  1  0.67836900  0.61449500  0.51363800  1
  C  C32  1  0.69227000  0.69496400  0.59899800  1
  C  C33  1  0.78634500  0.72708600  0.56850200  1
  C  C34  1  0.82319100  0.66426100  0.46673900  1
  C  C35  1  0.69992600  0.41811700  0.52507800  1
  C  C36  1  0.72792500  0.34006300  0.44694700  1
  C  C37  1  0.82846600  0.32550200  0.49673600  1
  C  C38  1  0.85478000  0.39534000  0.60171100  1
  C  C39  1  0.30023400  0.58174100  0.48188200  1
  C  C40  1  0.26987400  0.65901700  0.39568200  1
  C  C41  1  0.17049900  0.67400900  0.42470600  1
  C  C42  1  0.14718300  0.60519000  0.52654400  1
  N  N1  1  0.52513000  0.22545000  0.50535900  1
  N  N2  1  0.47483300  0.77433100  0.49409300  1
  O  O1  1  0.59665700  0.91218500  0.34788500  1
  O  O2  1  0.40330600  0.08759300  0.65155600  1
  O  O3  1  0.38135700  0.92875700  0.64582300  1
  O  O4  1  0.61859800  0.07102700  0.35360700  1
  O  O5  1  0.40734800  0.08874800  0.31710400  1
  O  O6  1  0.59260500  0.91104100  0.68233900  1
  O  O7  1  0.61465600  0.06999500  0.68460400  1
  O  O8  1  0.38530400  0.92978400  0.31482800  1
  O  O9  1  0.23947900  0.40367500  0.38284200  1
  O  O10  1  0.75782200  0.59530300  0.43290900  1
  O  O11  1  0.77681700  0.45216700  0.61948600  1
  O  O12  1  0.22589200  0.54858600  0.56184000  1
