# generated using pymatgen
data_ZnH6C15ClO4
_symmetry_space_group_name_H-M   'P 1'
_cell_length_a   16.55055200
_cell_length_b   17.18855700
_cell_length_c   17.20818900
_cell_angle_alpha   68.12831100
_cell_angle_beta   68.52753500
_cell_angle_gamma   68.50179000
_symmetry_Int_Tables_number   1
_chemical_formula_structural   ZnH6C15ClO4
_chemical_formula_sum   'Zn6 H36 C90 Cl6 O24'
_cell_volume   4074.87152757
_cell_formula_units_Z   6
loop_
 _symmetry_equiv_pos_site_id
 _symmetry_equiv_pos_as_xyz
  1  'x, y, z'
loop_
 _atom_site_type_symbol
 _atom_site_label
 _atom_site_symmetry_multiplicity
 _atom_site_fract_x
 _atom_site_fract_y
 _atom_site_fract_z
 _atom_site_occupancy
  Zn  Zn1  1  0.01028900  0.00715300  0.58039700  1
  Zn  Zn2  1  0.98971100  0.99284700  0.41960300  1
  Zn  Zn3  1  0.01019100  0.58053100  0.00722000  1
  Zn  Zn4  1  0.98980900  0.41946800  0.99278000  1
  Zn  Zn5  1  0.58703400  0.00469400  0.00478200  1
  Zn  Zn6  1  0.41296600  0.99530500  0.99521900  1
  H  H1  1  0.47895100  0.02770500  0.71487300  1
  H  H2  1  0.52104900  0.97229500  0.28512700  1
  H  H3  1  0.03695500  0.71103300  0.49462500  1
  H  H4  1  0.96304500  0.28896700  0.50537500  1
  H  H5  1  0.69960500  0.49063700  0.04325100  1
  H  H6  1  0.30039500  0.50936300  0.95674800  1
  H  H7  1  0.30074300  0.95675200  0.50902100  1
  H  H8  1  0.69925700  0.04324800  0.49097900  1
  H  H9  1  0.52145700  0.28569100  0.97100400  1
  H  H10  1  0.47854300  0.71430900  0.02899600  1
  H  H11  1  0.95887800  0.50623500  0.28778100  1
  H  H12  1  0.04112200  0.49376500  0.71221900  1
  H  H13  1  0.65162200  0.87023300  0.62480400  1
  H  H14  1  0.34837800  0.12976700  0.37519600  1
  H  H15  1  0.92122800  0.46173300  0.72019400  1
  H  H16  1  0.07877200  0.53826700  0.27980600  1
  H  H17  1  0.48046000  0.55882100  0.18065400  1
  H  H18  1  0.51954000  0.44117900  0.81934600  1
  H  H19  1  0.51272000  0.81749400  0.44806100  1
  H  H20  1  0.48728000  0.18250600  0.55193900  1
  H  H21  1  0.34246500  0.38118800  0.12802200  1
  H  H22  1  0.65753500  0.61881200  0.87197800  1
  H  H23  1  0.09609400  0.28271800  0.51968300  1
  H  H24  1  0.90390600  0.71728200  0.48031700  1
  H  H25  1  0.68752200  0.72769400  0.60867200  1
  H  H26  1  0.31247800  0.27230600  0.39132800  1
  H  H27  1  0.96904100  0.30424200  0.77638600  1
  H  H28  1  0.03095900  0.69575700  0.22361400  1
  H  H29  1  0.37000800  0.49157400  0.29538600  1
  H  H30  1  0.62999200  0.50842600  0.70461400  1
  H  H31  1  0.61741900  0.70079500  0.52137600  1
  H  H32  1  0.38258100  0.29920400  0.47862400  1
  H  H33  1  0.30007200  0.40416000  0.26833800  1
  H  H34  1  0.69992800  0.59584000  0.73166200  1
  H  H35  1  0.06707500  0.21520000  0.67569000  1
  H  H36  1  0.93292500  0.78480000  0.32431000  1
  C  C1  1  0.61979100  0.86282100  0.58430200  1
  C  C2  1  0.38020900  0.13717900  0.41569800  1
  C  C3  1  0.96314700  0.42337900  0.67521200  1
  C  C4  1  0.03685300  0.57662000  0.32478800  1
  C  C5  1  0.45169200  0.52118300  0.16516600  1
  C  C6  1  0.54830800  0.47881700  0.83483400  1
  C  C7  1  0.54167400  0.83288900  0.48560400  1
  C  C8  1  0.45832600  0.16711100  0.51439500  1
  C  C9  1  0.37396600  0.42212400  0.13523300  1
  C  C10  1  0.62603400  0.57787600  0.86476700  1
  C  C11  1  0.05596600  0.32306200  0.56317000  1
  C  C12  1  0.94403400  0.67693800  0.43683000  1
  C  C13  1  0.98203000  0.17152900  0.43202600  1
  C  C14  1  0.01797000  0.82847100  0.56797400  1
  C  C15  1  0.17854300  0.43611400  0.96812400  1
  C  C16  1  0.82145700  0.56388600  0.03187500  1
  C  C17  1  0.44137700  0.97490100  0.17222500  1
  C  C18  1  0.55862300  0.02509900  0.82777500  1
  C  C19  1  0.55837900  0.82757300  0.02555200  1
  C  C20  1  0.44162100  0.17242700  0.97444800  1
  C  C21  1  0.01841700  0.56840000  0.82872800  1
  C  C22  1  0.98158300  0.43159900  0.17127200  1
  C  C23  1  0.82138900  0.03225600  0.56372400  1
  C  C24  1  0.17861100  0.96774400  0.43627600  1
  C  C25  1  0.46083800  0.98462300  0.44955500  1
  C  C26  1  0.53916200  0.01537700  0.55044500  1
  C  C27  1  0.01082800  0.44838100  0.44558100  1
  C  C28  1  0.98917200  0.55161800  0.55441900  1
  C  C29  1  0.46067300  0.44979400  0.98450700  1
  C  C30  1  0.53932700  0.55020600  0.01549300  1
  C  C31  1  0.64051300  0.78062000  0.57615800  1
  C  C32  1  0.35948700  0.21937900  0.42384200  1
  C  C33  1  0.98775900  0.33435000  0.70724600  1
  C  C34  1  0.01224100  0.66565000  0.29275400  1
  C  C35  1  0.38867100  0.48306100  0.23135500  1
  C  C36  1  0.61132900  0.51693900  0.76864500  1
  C  C37  1  0.60139200  0.76560600  0.52717900  1
  C  C38  1  0.39860800  0.23439400  0.47282100  1
  C  C39  1  0.34971200  0.43393700  0.21631000  1
  C  C40  1  0.65028800  0.56606300  0.78369000  1
  C  C41  1  0.04137800  0.28466900  0.65113800  1
  C  C42  1  0.95862200  0.71533100  0.34886200  1
  C  C43  1  0.54782100  0.03143800  0.68530400  1
  C  C44  1  0.45217900  0.96856200  0.31469600  1
  C  C45  1  0.02098900  0.68443600  0.56386000  1
  C  C46  1  0.97901100  0.31556300  0.43614000  1
  C  C47  1  0.67228000  0.55884400  0.04048500  1
  C  C48  1  0.32772000  0.44115600  0.95951500  1
  C  C49  1  0.32782700  0.95976100  0.44085300  1
  C  C50  1  0.67217300  0.04023800  0.55914700  1
  C  C51  1  0.45237000  0.31506500  0.96784100  1
  C  C52  1  0.54763000  0.68493500  0.03215900  1
  C  C53  1  0.97740400  0.43712300  0.31443800  1
  C  C54  1  0.02259600  0.56287700  0.68556200  1
  C  C55  1  0.59934300  0.02992900  0.73436000  1
  C  C56  1  0.40065700  0.97007100  0.26564000  1
  C  C57  1  0.01755400  0.73580000  0.61190700  1
  C  C58  1  0.98244600  0.26420000  0.38809300  1
  C  C59  1  0.72561600  0.60700700  0.03616200  1
  C  C60  1  0.27438400  0.39299300  0.96383800  1
  C  C61  1  0.27442400  0.96374800  0.39294800  1
  C  C62  1  0.72557600  0.03625200  0.60705200  1
  C  C63  1  0.40082700  0.26583100  0.96972000  1
  C  C64  1  0.59917300  0.73416900  0.03027900  1
  C  C65  1  0.98176400  0.38806800  0.26381600  1
  C  C66  1  0.01823600  0.61193100  0.73618400  1
  C  C67  1  0.69105900  0.02355200  0.69659400  1
  C  C68  1  0.30894100  0.97644800  0.30340600  1
  C  C69  1  0.00589600  0.70118000  0.70107000  1
  C  C70  1  0.99410400  0.29882000  0.29893000  1
  C  C71  1  0.69100600  0.69663700  0.02326200  1
  C  C72  1  0.30899400  0.30336300  0.97673800  1
  C  C73  1  0.58587800  0.03172100  0.59897800  1
  C  C74  1  0.41412200  0.96827900  0.40102200  1
  C  C75  1  0.00645500  0.60129200  0.60324000  1
  C  C76  1  0.99354500  0.39870800  0.39676000  1
  C  C77  1  0.58589300  0.59861900  0.03214600  1
  C  C78  1  0.41410700  0.40138100  0.96785400  1
  C  C79  1  0.52084600  0.91666700  0.49211300  1
  C  C80  1  0.47915400  0.08333300  0.50788700  1
  C  C81  1  0.01746200  0.41114100  0.53160100  1
  C  C82  1  0.98253800  0.58885900  0.46839900  1
  C  C83  1  0.43666700  0.46123500  0.06699200  1
  C  C84  1  0.56333300  0.53876500  0.93300800  1
  C  C85  1  0.56004300  0.93196200  0.54218100  1
  C  C86  1  0.43995700  0.06803800  0.45781900  1
  C  C87  1  0.47585000  0.51129000  0.08234800  1
  C  C88  1  0.52415000  0.48871000  0.91765200  1
  C  C89  1  0.99259300  0.46261000  0.58722600  1
  C  C90  1  0.00740700  0.53739000  0.41277400  1
  Cl  Cl1  1  0.76579100  0.98017800  0.76338900  1
  Cl  Cl2  1  0.23420900  0.01982200  0.23661100  1
  Cl  Cl3  1  0.96692600  0.76997300  0.76937600  1
  Cl  Cl4  1  0.03307400  0.23002700  0.23062400  1
  Cl  Cl5  1  0.76561600  0.76372400  0.97848300  1
  Cl  Cl6  1  0.23438400  0.23627500  0.02151700  1
  O  O1  1  0.99745800  0.13639800  0.50889700  1
  O  O2  1  0.00254200  0.86360200  0.49110200  1
  O  O3  1  0.14495900  0.51210300  0.98384900  1
  O  O4  1  0.85504100  0.48789700  0.01615100  1
  O  O5  1  0.52177700  0.98759900  0.13591500  1
  O  O6  1  0.47822400  0.01240100  0.86408400  1
  O  O7  1  0.47803900  0.86392400  0.01270400  1
  O  O8  1  0.52196100  0.13607600  0.98729500  1
  O  O9  1  0.00290200  0.49149000  0.86382300  1
  O  O10  1  0.99709800  0.50851000  0.13617700  1
  O  O11  1  0.85491800  0.01648800  0.48783300  1
  O  O12  1  0.14508200  0.98351200  0.51216700  1
  O  O13  1  0.87176400  0.03517400  0.60564600  1
  O  O14  1  0.12823500  0.96482500  0.39435400  1
  O  O15  1  0.02666400  0.60985800  0.87486100  1
  O  O16  1  0.97333600  0.39014100  0.12513800  1
  O  O17  1  0.60584700  0.87270900  0.02828500  1
  O  O18  1  0.39415300  0.12729200  0.97171500  1
  O  O19  1  0.39397300  0.97216800  0.12702900  1
  O  O20  1  0.60602700  0.02783100  0.87297000  1
  O  O21  1  0.12830800  0.39403600  0.96517400  1
  O  O22  1  0.87169200  0.60596400  0.03482600  1
  O  O23  1  0.97358500  0.12525100  0.39080200  1
  O  O24  1  0.02641500  0.87474900  0.60919800  1
