# generated using pymatgen
data_FeC17Br6NO8
_symmetry_space_group_name_H-M   'P 1'
_cell_length_a   15.96970400
_cell_length_b   9.38268500
_cell_length_c   17.87578400
_cell_angle_alpha   90.07460600
_cell_angle_beta   100.53735600
_cell_angle_gamma   97.48603500
_symmetry_Int_Tables_number   1
_chemical_formula_structural   FeC17Br6NO8
_chemical_formula_sum   'Fe2 C34 Br12 N2 O16'
_cell_volume   2610.00166614
_cell_formula_units_Z   2
loop_
 _symmetry_equiv_pos_site_id
 _symmetry_equiv_pos_as_xyz
  1  'x, y, z'
loop_
 _atom_site_type_symbol
 _atom_site_label
 _atom_site_symmetry_multiplicity
 _atom_site_fract_x
 _atom_site_fract_y
 _atom_site_fract_z
 _atom_site_occupancy
  Fe  Fe1  1  0.49229800  0.00267100  0.83662500  1
  Fe  Fe2  1  0.50784900  0.99703800  0.16357100  1
  C  C1  1  0.21164000  0.03138400  0.88398300  1
  C  C2  1  0.13084800  0.02194200  0.90101800  1
  C  C3  1  0.12049000  0.01594500  0.97540000  1
  C  C4  1  0.19043900  0.01905900  0.03365200  1
  C  C5  1  0.27374500  0.02904600  0.01762700  1
  C  C6  1  0.28318000  0.03580200  0.94120800  1
  C  C7  1  0.03567000  0.00467700  0.99277800  1
  C  C8  1  0.96442800  0.99514200  0.00733700  1
  C  C9  1  0.80965100  0.98071600  0.96648800  1
  C  C10  1  0.72635100  0.97072000  0.98252900  1
  C  C11  1  0.71694000  0.96400400  0.05895500  1
  C  C12  1  0.78849300  0.96845700  0.11616900  1
  C  C13  1  0.86927700  0.97790600  0.09911600  1
  C  C14  1  0.87961400  0.98387100  0.02472900  1
  C  C15  1  0.47304500  0.21842600  0.73104200  1
  C  C16  1  0.36675300  0.04776900  0.91743600  1
  C  C17  1  0.65082100  0.97424700  0.92033100  1
  C  C18  1  0.50714100  0.74330200  0.77427800  1
  C  C19  1  0.49287700  0.25641200  0.22595200  1
  C  C20  1  0.34925900  0.02547000  0.07983300  1
  C  C21  1  0.63337700  0.95202700  0.08274400  1
  C  C22  1  0.52691300  0.78124500  0.26920000  1
  C  C23  1  0.50226100  0.61836600  0.72226900  1
  C  C24  1  0.51585000  0.63624900  0.64792100  1
  C  C25  1  0.50898300  0.51895200  0.59909000  1
  C  C26  1  0.49425900  0.38035000  0.62588100  1
  C  C27  1  0.48257900  0.36241400  0.69991400  1
  C  C28  1  0.48377800  0.47932500  0.74715900  1
  C  C29  1  0.48410000  0.36341900  0.35229900  1
  C  C30  1  0.49771500  0.38132500  0.27795900  1
  C  C31  1  0.51619900  0.52036500  0.25307800  1
  C  C32  1  0.51736300  0.63726100  0.30032000  1
  C  C33  1  0.50565500  0.61931300  0.37434400  1
  C  C34  1  0.49093800  0.48070700  0.40113000  1
  Br  Br1  1  0.22373800  0.04592600  0.77991100  1
  Br  Br2  1  0.49666600  0.78904500  0.43057400  1
  Br  Br3  1  0.45070200  0.43997300  0.84368700  1
  Br  Br4  1  0.54934100  0.55973000  0.15657600  1
  Br  Br5  1  0.03317100  0.01797300  0.82140200  1
  Br  Br6  1  0.16321000  0.00364200  0.13358500  1
  Br  Br7  1  0.83685500  0.99609000  0.86654400  1
  Br  Br8  1  0.77643200  0.95394200  0.22025100  1
  Br  Br9  1  0.96697300  0.98192200  0.17871700  1
  Br  Br10  1  0.54728800  0.82116900  0.60888800  1
  Br  Br11  1  0.50321100  0.21060400  0.56964400  1
  Br  Br12  1  0.45268000  0.17847800  0.39131600  1
  N  N1  1  0.52106400  0.54591100  0.52358900  1
  N  N2  1  0.47885200  0.45374000  0.47662900  1
  O  O1  1  0.52430000  0.19249700  0.79433000  1
  O  O2  1  0.42393200  0.16129800  0.93754100  1
  O  O3  1  0.41166100  0.11895200  0.69851300  1
  O  O4  1  0.38079100  0.95103300  0.86970300  1
  O  O5  1  0.57482200  0.98993000  0.93478100  1
  O  O6  1  0.65885600  0.96627100  0.84887600  1
  O  O7  1  0.49292700  0.87054000  0.74842000  1
  O  O8  1  0.52390500  0.72797200  0.84814600  1
  O  O9  1  0.50715100  0.12920500  0.25181300  1
  O  O10  1  0.47610700  0.27173800  0.15208400  1
  O  O11  1  0.42525700  0.00978900  0.06538200  1
  O  O12  1  0.34121500  0.03341200  0.15128700  1
  O  O13  1  0.58830000  0.88070300  0.30174100  1
  O  O14  1  0.61935400  0.04873800  0.13049700  1
  O  O15  1  0.47570800  0.80716300  0.20588200  1
  O  O16  1  0.57620000  0.83849200  0.06264600  1
