# generated using pymatgen
data_VH13C17NO6
_symmetry_space_group_name_H-M   'P 1'
_cell_length_a   20.80869400
_cell_length_b   6.13774900
_cell_length_c   19.76123100
_cell_angle_alpha   90.00000000
_cell_angle_beta   102.14444500
_cell_angle_gamma   90.00000000
_symmetry_Int_Tables_number   1
_chemical_formula_structural   VH13C17NO6
_chemical_formula_sum   'V4 H52 C68 N4 O24'
_cell_volume   2467.39210759
_cell_formula_units_Z   4
loop_
 _symmetry_equiv_pos_site_id
 _symmetry_equiv_pos_as_xyz
  1  'x, y, z'
loop_
 _atom_site_type_symbol
 _atom_site_label
 _atom_site_symmetry_multiplicity
 _atom_site_fract_x
 _atom_site_fract_y
 _atom_site_fract_z
 _atom_site_occupancy
  V  V1  1  0.74551100  0.88627500  0.22994100  1
  V  V2  1  0.25451200  0.16683500  0.77005400  1
  V  V3  1  0.75448900  0.38627500  0.27005900  1
  V  V4  1  0.24548700  0.66683500  0.72994600  1
  H  H1  1  0.08462300  0.70401600  0.55772800  1
  H  H2  1  0.91532100  0.34913000  0.44233100  1
  H  H3  1  0.41537700  0.20401600  0.94227200  1
  H  H4  1  0.58467900  0.84913000  0.05766900  1
  H  H5  1  0.08744300  0.34963000  0.63745100  1
  H  H6  1  0.91251100  0.70352300  0.36260600  1
  H  H7  1  0.41255600  0.84963000  0.86254900  1
  H  H8  1  0.58748900  0.20352200  0.13739400  1
  H  H9  1  0.00591900  0.60580000  0.45620500  1
  H  H10  1  0.99402300  0.44734100  0.54386300  1
  H  H11  1  0.49408100  0.10580000  0.04379500  1
  H  H12  1  0.50597700  0.94734100  0.95613700  1
  H  H13  1  0.59155700  0.26914800  0.54653700  1
  H  H14  1  0.40954500  0.77508700  0.45651000  1
  H  H15  1  0.90844300  0.76914800  0.95346300  1
  H  H16  1  0.09045500  0.27508700  0.04349000  1
  H  H17  1  0.54373000  0.66030100  0.48942200  1
  H  H18  1  0.45454900  0.39157200  0.50633200  1
  H  H19  1  0.95626900  0.16030100  0.01057800  1
  H  H20  1  0.04545100  0.89157200  0.99366800  1
  H  H21  1  0.47261500  0.74923800  0.63941100  1
  H  H22  1  0.53950900  0.73453900  0.71445300  1
  H  H23  1  0.53480900  0.50312900  0.57586200  1
  H  H24  1  0.52152100  0.37904900  0.65448800  1
  H  H25  1  0.62392300  0.61317400  0.56271900  1
  H  H26  1  0.69746800  0.61081400  0.62943500  1
  H  H27  1  0.65126900  0.98603800  0.60928700  1
  H  H28  1  0.65211200  0.88791200  0.69574100  1
  H  H29  1  0.49775400  0.94396500  0.33030400  1
  H  H30  1  0.44430400  0.11583400  0.26846600  1
  H  H31  1  0.39976200  0.74930200  0.35413300  1
  H  H32  1  0.40146200  0.74106300  0.26347400  1
  H  H33  1  0.33675600  0.93688300  0.39502200  1
  H  H34  1  0.27615800  0.11491800  0.34491600  1
  H  H35  1  0.36953000  0.32624200  0.41384900  1
  H  H36  1  0.36270800  0.35937000  0.32167000  1
  H  H37  1  0.02738500  0.24923800  0.86058900  1
  H  H38  1  0.96049100  0.23453900  0.78554700  1
  H  H39  1  0.96519100  0.00312800  0.92413800  1
  H  H40  1  0.97847900  0.87904900  0.84551200  1
  H  H41  1  0.87607700  0.11317400  0.93728100  1
  H  H42  1  0.80253100  0.11081400  0.87056500  1
  H  H43  1  0.84873100  0.48603800  0.89071300  1
  H  H44  1  0.84788800  0.38791200  0.80425900  1
  H  H45  1  0.00224600  0.44396500  0.16969600  1
  H  H46  1  0.05569500  0.61583400  0.23153400  1
  H  H47  1  0.10023800  0.24930200  0.14586700  1
  H  H48  1  0.09853800  0.24106300  0.23652600  1
  H  H49  1  0.16324400  0.43688300  0.10497800  1
  H  H50  1  0.22384200  0.61491800  0.15508400  1
  H  H51  1  0.13047000  0.82624200  0.08615100  1
  H  H52  1  0.13729200  0.85937000  0.17833000  1
  C  C1  1  0.83010200  0.59144800  0.17141000  1
  C  C2  1  0.16994500  0.46162800  0.82864100  1
  C  C3  1  0.66989800  0.09144800  0.32859000  1
  C  C4  1  0.33005400  0.96162800  0.67135900  1
  C  C5  1  0.64814100  0.58611300  0.15724400  1
  C  C6  1  0.35189300  0.46701300  0.84271400  1
  C  C7  1  0.85185900  0.08611300  0.34275600  1
  C  C8  1  0.14810700  0.96701300  0.65728600  1
  C  C9  1  0.09124600  0.02064900  0.60339000  1
  C  C10  1  0.90870600  0.03249700  0.39666800  1
  C  C11  1  0.40875400  0.52064900  0.89661000  1
  C  C12  1  0.59129400  0.53249700  0.10333200  1
  C  C13  1  0.98608500  0.76912700  0.45312000  1
  C  C14  1  0.01385700  0.28401300  0.54694800  1
  C  C15  1  0.51391500  0.26912700  0.04688000  1
  C  C16  1  0.48614200  0.78401300  0.95305300  1
  C  C17  1  0.93393200  0.82412500  0.40056200  1
  C  C18  1  0.06601800  0.22902200  0.59949900  1
  C  C19  1  0.56606800  0.32412500  0.09943800  1
  C  C20  1  0.43398200  0.72902200  0.90050100  1
  C  C21  1  0.93549300  0.18627300  0.44518400  1
  C  C22  1  0.06444900  0.86687100  0.55487900  1
  C  C23  1  0.56450600  0.68627300  0.05481600  1
  C  C24  1  0.43555000  0.36687100  0.94512100  1
  C  C25  1  0.98735500  0.13087000  0.49803100  1
  C  C26  1  0.01258500  0.92227000  0.50203600  1
  C  C27  1  0.51264500  0.63087000  0.00196900  1
  C  C28  1  0.48741500  0.42227000  0.99796400  1
  C  C29  1  0.54891400  0.16351200  0.52503400  1
  C  C30  1  0.45092200  0.88850500  0.47476500  1
  C  C31  1  0.95108600  0.66351200  0.97496600  1
  C  C32  1  0.04907800  0.38850500  0.02523500  1
  C  C33  1  0.52933000  0.96250500  0.55989700  1
  C  C34  1  0.47057700  0.08964400  0.44004000  1
  C  C35  1  0.97067000  0.46250500  0.94010300  1
  C  C36  1  0.02942300  0.58964400  0.05996000  1
  C  C37  1  0.37553000  0.99548500  0.62668600  1
  C  C38  1  0.62441100  0.05745500  0.37324700  1
  C  C39  1  0.12447000  0.49548500  0.87331400  1
  C  C40  1  0.87558900  0.55745500  0.12675300  1
  C  C41  1  0.47624900  0.22723900  0.50442000  1
  C  C42  1  0.52375500  0.82456900  0.49557800  1
  C  C43  1  0.02375100  0.72723900  0.99558000  1
  C  C44  1  0.97624400  0.32456900  0.00442200  1
  C  C45  1  0.45831400  0.02442400  0.54033500  1
  C  C46  1  0.54160100  0.02788700  0.45956100  1
  C  C47  1  0.04168500  0.52442400  0.95966500  1
  C  C48  1  0.95839900  0.52788700  0.04043900  1
  C  C49  1  0.41315400  0.01315600  0.58810000  1
  C  C50  1  0.58677700  0.03954000  0.41181500  1
  C  C51  1  0.08684600  0.51315600  0.91190000  1
  C  C52  1  0.91322300  0.53954000  0.08818500  1
  C  C53  1  0.52649400  0.72889400  0.65710100  1
  C  C54  1  0.54752400  0.51151900  0.63304300  1
  C  C55  1  0.64353200  0.63678400  0.61872300  1
  C  C56  1  0.62959400  0.86626100  0.64008800  1
  C  C57  1  0.44862300  0.02192800  0.31716100  1
  C  C58  1  0.39554700  0.84899000  0.30675800  1
  C  C59  1  0.32714100  0.05297200  0.35123000  1
  C  C60  1  0.37452900  0.24289700  0.36543100  1
  C  C61  1  0.97350500  0.22889400  0.84289900  1
  C  C62  1  0.95247600  0.01151900  0.86695700  1
  C  C63  1  0.85646800  0.13678400  0.88127700  1
  C  C64  1  0.87040600  0.36626100  0.85991200  1
  C  C65  1  0.05137700  0.52192800  0.18283900  1
  C  C66  1  0.10445200  0.34899000  0.19324200  1
  C  C67  1  0.17285900  0.55297200  0.14877000  1
  C  C68  1  0.12547100  0.74289700  0.13456900  1
  N  N1  1  0.55990500  0.90167400  0.62959900  1
  N  N2  1  0.44093100  0.16740000  0.37189800  1
  N  N3  1  0.94009500  0.40167400  0.87040100  1
  N  N4  1  0.05906900  0.66740000  0.12810200  1
  O  O1  1  0.67517300  0.42083400  0.19613200  1
  O  O2  1  0.32483200  0.63227600  0.80383700  1
  O  O3  1  0.82482700  0.92083400  0.30386800  1
  O  O4  1  0.17516800  0.13227600  0.69616300  1
  O  O5  1  0.80376600  0.78821700  0.16866800  1
  O  O6  1  0.19629200  0.26488600  0.83136500  1
  O  O7  1  0.69623400  0.28821700  0.33133200  1
  O  O8  1  0.30370800  0.76488600  0.66863500  1
  O  O9  1  0.67043800  0.78768000  0.15796800  1
  O  O10  1  0.32961000  0.26543300  0.84199600  1
  O  O11  1  0.82956200  0.28768000  0.34203200  1
  O  O12  1  0.17039000  0.76543300  0.65800400  1
  O  O13  1  0.68418900  0.92024900  0.29313500  1
  O  O14  1  0.31579600  0.13286300  0.70682000  1
  O  O15  1  0.81581100  0.42024900  0.20686500  1
  O  O16  1  0.18420400  0.63286300  0.79318000  1
  O  O17  1  0.75821500  0.64741000  0.29467900  1
  O  O18  1  0.24174800  0.40570300  0.70532300  1
  O  O19  1  0.74178400  0.14741000  0.20532100  1
  O  O20  1  0.25825200  0.90570300  0.79467700  1
  O  O21  1  0.61515900  0.48597600  0.65645500  1
  O  O22  1  0.33385100  0.94772200  0.29055100  1
  O  O23  1  0.88484100  0.98597600  0.84354500  1
  O  O24  1  0.16614900  0.44772200  0.20944900  1
