# generated using pymatgen
data_Fe2H19C38NO17
_symmetry_space_group_name_H-M   'P 1'
_cell_length_a   15.25619100
_cell_length_b   9.30103200
_cell_length_c   18.48571500
_cell_angle_alpha   90.14125500
_cell_angle_beta   103.80282600
_cell_angle_gamma   107.77359100
_symmetry_Int_Tables_number   1
_chemical_formula_structural   Fe2H19C38NO17
_chemical_formula_sum   'Fe2 H19 C38 N1 O17'
_cell_volume   2417.70580083
_cell_formula_units_Z   1
loop_
 _symmetry_equiv_pos_site_id
 _symmetry_equiv_pos_as_xyz
  1  'x, y, z'
loop_
 _atom_site_type_symbol
 _atom_site_label
 _atom_site_symmetry_multiplicity
 _atom_site_fract_x
 _atom_site_fract_y
 _atom_site_fract_z
 _atom_site_occupancy
  Fe  Fe1  1  0.47788000  0.00381700  0.82918300  1
  Fe  Fe2  1  0.49664200  0.01170000  0.15586600  1
  H  H1  1  0.80000100  0.10396300  0.17542600  1
  H  H2  1  0.95173000  0.11600400  0.15011900  1
  H  H3  1  0.81536300  0.99999100  0.91923300  1
  H  H4  1  0.04764400  0.12042800  0.06084000  1
  H  H5  1  0.92753400  0.89918100  0.92439800  1
  H  H6  1  0.02316100  0.90178200  0.83523700  1
  H  H7  1  0.17467900  0.91249400  0.80991100  1
  H  H8  1  0.16012600  0.02072100  0.06587200  1
  H  H9  1  0.50349700  0.75885600  0.62613700  1
  H  H10  1  0.48995100  0.29771400  0.58774600  1
  H  H11  1  0.48108300  0.26275100  0.36365600  1
  H  H12  1  0.47986700  0.71791600  0.39390600  1
  H  H13  1  0.47596200  0.45693500  0.79827700  1
  H  H14  1  0.49898900  0.55628000  0.18660000  1
  H  H15  1  0.42734200  0.34915600  0.47244300  1
  H  H16  1  0.55913800  0.79921500  0.51825600  1
  H  H17  1  0.71063900  0.96311500  0.55289500  1
  H  H18  1  0.80331700  0.87847200  0.55645500  1
  H  H19  1  0.76323600  0.89712300  0.63943100  1
  C  C1  1  0.80271900  0.08178400  0.11871100  1
  C  C2  1  0.88827800  0.08717700  0.10460900  1
  C  C3  1  0.89234700  0.04938700  0.03363200  1
  C  C4  1  0.81105600  0.01670700  0.97580700  1
  C  C5  1  0.72474700  0.01212600  0.98912400  1
  C  C6  1  0.72018300  0.03975000  0.06198500  1
  C  C7  1  0.98431400  0.05086000  0.02111700  1
  C  C8  1  0.99090500  0.96878400  0.96407400  1
  C  C9  1  0.08669300  0.93101400  0.88068000  1
  C  C10  1  0.17212700  0.93562600  0.86657100  1
  C  C11  1  0.25475200  0.97798800  0.92320200  1
  C  C12  1  0.25041000  0.00696400  0.99599400  1
  C  C13  1  0.16422900  0.00313300  0.00931800  1
  C  C14  1  0.08282500  0.96992400  0.95156500  1
  C  C15  1  0.47378100  0.21506100  0.72275800  1
  C  C16  1  0.34516600  0.00352300  0.90305000  1
  C  C17  1  0.64286700  0.98966100  0.92420600  1
  C  C18  1  0.48329400  0.74005700  0.76739600  1
  C  C19  1  0.49418400  0.27541500  0.21920700  1
  C  C20  1  0.33233700  0.02954300  0.06088300  1
  C  C21  1  0.62967400  0.01336600  0.08207400  1
  C  C22  1  0.50014800  0.79940700  0.26109300  1
  C  C23  1  0.48770000  0.62090900  0.71719700  1
  C  C24  1  0.49724700  0.64757800  0.64542800  1
  C  C25  1  0.49736200  0.53181400  0.59792000  1
  C  C26  1  0.48710000  0.38865300  0.62260600  1
  C  C27  1  0.48124100  0.36375400  0.69492700  1
  C  C28  1  0.48236600  0.47955500  0.74215600  1
  C  C29  1  0.51364000  0.56475800  0.52342800  1
  C  C30  1  0.47281100  0.45998600  0.46507300  1
  C  C31  1  0.48500200  0.37217400  0.34250800  1
  C  C32  1  0.49080200  0.39545400  0.26948700  1
  C  C33  1  0.49394600  0.53525900  0.24314200  1
  C  C34  1  0.49341000  0.65128400  0.28925200  1
  C  C35  1  0.48811100  0.62847400  0.36164700  1
  C  C36  1  0.48482400  0.48926800  0.38916700  1
  C  C37  1  0.66869500  0.72109500  0.55762200  1
  C  C38  1  0.74062500  0.87462000  0.57775200  1
  N  N1  1  0.58009400  0.70446400  0.51608800  1
  O  O1  1  0.51645500  0.20763500  0.79258800  1
  O  O2  1  0.41536900  0.12849700  0.92928800  1
  O  O3  1  0.41849800  0.09204200  0.68063100  1
  O  O4  1  0.35200200  0.91521300  0.85043600  1
  O  O5  1  0.56484700  0.01430600  0.93071500  1
  O  O6  1  0.65201600  0.96301300  0.85712400  1
  O  O7  1  0.48244300  0.87331300  0.74439500  1
  O  O8  1  0.47905700  0.71296100  0.83632800  1
  O  O9  1  0.49209900  0.14061700  0.24136100  1
  O  O10  1  0.49960100  0.30298700  0.15054500  1
  O  O11  1  0.40994500  0.00347800  0.05437900  1
  O  O12  1  0.32343100  0.05703900  0.12794900  1
  O  O13  1  0.55585400  0.92248400  0.30297200  1
  O  O14  1  0.62271300  0.10073400  0.13501100  1
  O  O15  1  0.45736200  0.80684500  0.19136100  1
  O  O16  1  0.55954200  0.88852400  0.05543900  1
  O  O17  1  0.69070700  0.60970900  0.57837200  1
