# generated using pymatgen
data_Zn3H28C40(NO3)4
_symmetry_space_group_name_H-M   'P 1'
_cell_length_a   31.15913100
_cell_length_b   30.79672300
_cell_length_c   24.85491700
_cell_angle_alpha   90.00000000
_cell_angle_beta   128.81042200
_cell_angle_gamma   90.00000000
_symmetry_Int_Tables_number   1
_chemical_formula_structural   Zn3H28C40(NO3)4
_chemical_formula_sum   'Zn12 H112 C160 N16 O48'
_cell_volume   18585.08136869
_cell_formula_units_Z   4
loop_
 _symmetry_equiv_pos_site_id
 _symmetry_equiv_pos_as_xyz
  1  'x, y, z'
loop_
 _atom_site_type_symbol
 _atom_site_label
 _atom_site_symmetry_multiplicity
 _atom_site_fract_x
 _atom_site_fract_y
 _atom_site_fract_z
 _atom_site_occupancy
  Zn  Zn1  1  0.77669200  0.71648600  0.49711800  1
  Zn  Zn2  1  0.22330800  0.71648600  0.50288200  1
  Zn  Zn3  1  0.27669200  0.21648600  0.49711800  1
  Zn  Zn4  1  0.72330800  0.21648600  0.50288200  1
  Zn  Zn5  1  0.71024200  0.78607600  0.50099600  1
  Zn  Zn6  1  0.28975800  0.78607600  0.49900500  1
  Zn  Zn7  1  0.21024200  0.28607600  0.50099600  1
  Zn  Zn8  1  0.78975800  0.28607600  0.49900500  1
  Zn  Zn9  1  0.46147800  0.49539800  0.42186300  1
  Zn  Zn10  1  0.53852200  0.49539800  0.57813700  1
  Zn  Zn11  1  0.96147800  0.99539800  0.42186300  1
  Zn  Zn12  1  0.03852200  0.99539800  0.57813700  1
  H  H1  1  0.59450200  0.81005600  0.28337800  1
  H  H2  1  0.40549800  0.81005600  0.71662200  1
  H  H3  1  0.09450200  0.31005600  0.28337800  1
  H  H4  1  0.90549800  0.31005600  0.71662200  1
  H  H5  1  0.60999800  0.70227800  0.15077100  1
  H  H6  1  0.39000200  0.70227800  0.84922900  1
  H  H7  1  0.10999800  0.20227800  0.15077100  1
  H  H8  1  0.89000200  0.20227800  0.84922900  1
  H  H9  1  0.67177400  0.69859200  0.27546100  1
  H  H10  1  0.32822600  0.69859200  0.72454000  1
  H  H11  1  0.17177400  0.19859200  0.27546100  1
  H  H12  1  0.82822600  0.19859200  0.72454000  1
  H  H13  1  0.79027900  0.90072800  0.48868700  1
  H  H14  1  0.20972100  0.90072800  0.51131400  1
  H  H15  1  0.29027900  0.40072800  0.48868700  1
  H  H16  1  0.70972100  0.40072800  0.51131400  1
  H  H17  1  0.84960200  0.95314100  0.48801800  1
  H  H18  1  0.15039800  0.95314100  0.51198200  1
  H  H19  1  0.34960200  0.45314100  0.48801800  1
  H  H20  1  0.65039800  0.45314100  0.51198200  1
  H  H21  1  0.94886200  0.82527500  0.46823200  1
  H  H22  1  0.05113800  0.82527500  0.53176800  1
  H  H23  1  0.44886200  0.32527500  0.46823200  1
  H  H24  1  0.55113800  0.32527500  0.53176800  1
  H  H25  1  0.99379900  0.83054000  0.56550800  1
  H  H26  1  0.00620100  0.83054000  0.43449200  1
  H  H27  1  0.49379900  0.33054000  0.56550800  1
  H  H28  1  0.50620100  0.33054000  0.43449200  1
  H  H29  1  0.89152000  0.77313300  0.46927000  1
  H  H30  1  0.10848000  0.77313300  0.53073000  1
  H  H31  1  0.39152000  0.27313300  0.46927000  1
  H  H32  1  0.60848000  0.27313300  0.53073000  1
  H  H33  1  0.93554000  0.77850000  0.56609900  1
  H  H34  1  0.06446000  0.77850000  0.43390200  1
  H  H35  1  0.43554000  0.27850000  0.56609900  1
  H  H36  1  0.56446000  0.27850000  0.43390200  1
  H  H37  1  0.86384300  0.76931800  0.85377200  1
  H  H38  1  0.13615700  0.76931800  0.14622800  1
  H  H39  1  0.36384300  0.26931800  0.85377200  1
  H  H40  1  0.63615700  0.26931800  0.14622800  1
  H  H41  1  0.91239000  0.71972100  0.71072600  1
  H  H42  1  0.08761000  0.71972100  0.28927400  1
  H  H43  1  0.41239000  0.21972100  0.71072600  1
  H  H44  1  0.58761000  0.21972100  0.28927400  1
  H  H45  1  0.63594000  0.69281300  0.55873500  1
  H  H46  1  0.36406000  0.69281300  0.44126500  1
  H  H47  1  0.13594000  0.19281300  0.55873500  1
  H  H48  1  0.86406000  0.19281300  0.44126500  1
  H  H49  1  0.58395300  0.63383900  0.56131900  1
  H  H50  1  0.41604700  0.63383900  0.43868100  1
  H  H51  1  0.08395300  0.13383900  0.56131900  1
  H  H52  1  0.91604700  0.13383900  0.43868100  1
  H  H53  1  0.64284500  0.52654700  0.45427800  1
  H  H54  1  0.35715500  0.52654700  0.54572200  1
  H  H55  1  0.14284500  0.02654700  0.45427800  1
  H  H56  1  0.85715500  0.02654700  0.54572200  1
  H  H57  1  0.69786600  0.58427000  0.45680500  1
  H  H58  1  0.30213300  0.58427000  0.54319500  1
  H  H59  1  0.19786600  0.08427000  0.45680500  1
  H  H60  1  0.80213300  0.08427000  0.54319500  1
  H  H61  1  0.63378800  0.60748200  0.37468100  1
  H  H62  1  0.36621200  0.60748200  0.62531900  1
  H  H63  1  0.13378800  0.10748200  0.37468100  1
  H  H64  1  0.86621200  0.10748200  0.62531900  1
  H  H65  1  0.74833000  0.75309500  0.68438200  1
  H  H66  1  0.77614100  0.78111000  0.76325300  1
  H  H67  1  0.77221800  0.80907400  0.69717500  1
  H  H68  1  0.25167000  0.75309500  0.31561800  1
  H  H69  1  0.22385900  0.78111000  0.23674700  1
  H  H70  1  0.22778100  0.80907400  0.30282500  1
  H  H71  1  0.24833000  0.25309500  0.68438200  1
  H  H72  1  0.27614100  0.28111000  0.76325300  1
  H  H73  1  0.27221800  0.30907400  0.69717500  1
  H  H74  1  0.75167000  0.25309500  0.31561800  1
  H  H75  1  0.72385900  0.28111000  0.23674700  1
  H  H76  1  0.72778100  0.30907400  0.30282500  1
  H  H77  1  0.99363400  0.69322700  0.80065100  1
  H  H78  1  0.02773600  0.73138700  0.87030500  1
  H  H79  1  0.00282000  0.67977800  0.87741200  1
  H  H80  1  0.00636600  0.69322700  0.19934900  1
  H  H81  1  0.97226400  0.73138700  0.12969600  1
  H  H82  1  0.99718000  0.67977800  0.12258900  1
  H  H83  1  0.49363400  0.19322700  0.80065100  1
  H  H84  1  0.52773600  0.23138700  0.87030500  1
  H  H85  1  0.50282000  0.17977800  0.87741200  1
  H  H86  1  0.50636600  0.19322700  0.19934900  1
  H  H87  1  0.47226400  0.23138700  0.12969600  1
  H  H88  1  0.49718000  0.17977800  0.12258900  1
  H  H89  1  0.54101000  0.57873800  0.33283100  1
  H  H90  1  0.57407300  0.53671200  0.31928600  1
  H  H91  1  0.54100500  0.52301700  0.35607700  1
  H  H92  1  0.45898900  0.57873800  0.66716900  1
  H  H93  1  0.42592700  0.53671200  0.68071400  1
  H  H94  1  0.45899500  0.52301700  0.64392300  1
  H  H95  1  0.04101000  0.07873800  0.33283100  1
  H  H96  1  0.07407300  0.03671200  0.31928600  1
  H  H97  1  0.04100500  0.02301700  0.35607700  1
  H  H98  1  0.95898900  0.07873800  0.66716900  1
  H  H99  1  0.92592700  0.03671200  0.68071400  1
  H  H100  1  0.95899500  0.02301700  0.64392300  1
  H  H101  1  0.52788900  0.84794700  0.12451600  1
  H  H102  1  0.47810800  0.80834600  0.10994800  1
  H  H103  1  0.51823200  0.84002000  0.18769000  1
  H  H104  1  0.47211100  0.84794700  0.87548500  1
  H  H105  1  0.52189200  0.80834600  0.89005200  1
  H  H106  1  0.48176800  0.84002000  0.81231000  1
  H  H107  1  0.02788900  0.34794700  0.12451600  1
  H  H108  1  0.97810800  0.30834600  0.10994800  1
  H  H109  1  0.01823200  0.34002000  0.18769000  1
  H  H110  1  0.97211100  0.34794700  0.87548500  1
  H  H111  1  0.02189200  0.30834600  0.89005200  1
  H  H112  1  0.98176800  0.34002000  0.81231000  1
  C  C1  1  0.80278400  0.81204700  0.50020700  1
  C  C2  1  0.19721600  0.81204700  0.49979300  1
  C  C3  1  0.30278400  0.31204700  0.50020700  1
  C  C4  1  0.69721600  0.31204700  0.49979300  1
  C  C5  1  0.67571100  0.75268200  0.36379000  1
  C  C6  1  0.32428900  0.75268200  0.63621000  1
  C  C7  1  0.17571100  0.25268200  0.36379000  1
  C  C8  1  0.82428900  0.25268200  0.63621000  1
  C  C9  1  0.68432600  0.69051100  0.49801600  1
  C  C10  1  0.31567400  0.69051100  0.50198400  1
  C  C11  1  0.18432600  0.19051100  0.49801600  1
  C  C12  1  0.81567400  0.19051100  0.50198400  1
  C  C13  1  0.81099500  0.74961400  0.63457000  1
  C  C14  1  0.18900500  0.74961400  0.36543000  1
  C  C15  1  0.31099500  0.24961400  0.63457000  1
  C  C16  1  0.68900500  0.24961400  0.36543000  1
  C  C17  1  0.59790600  0.78642900  0.25411900  1
  C  C18  1  0.40209400  0.78642900  0.74588100  1
  C  C19  1  0.09790600  0.28642900  0.25411900  1
  C  C20  1  0.90209400  0.28642900  0.74588100  1
  C  C21  1  0.56265100  0.78898100  0.18280600  1
  C  C22  1  0.43734900  0.78898100  0.81719400  1
  C  C23  1  0.06265100  0.28898100  0.18280600  1
  C  C24  1  0.93734900  0.28898100  0.81719400  1
  C  C25  1  0.56698800  0.75868800  0.14480700  1
  C  C26  1  0.43301200  0.75868800  0.85519300  1
  C  C27  1  0.06698800  0.25868800  0.14480700  1
  C  C28  1  0.93301200  0.25868800  0.85519300  1
  C  C29  1  0.60593300  0.72611300  0.17923400  1
  C  C30  1  0.39406700  0.72611300  0.82076700  1
  C  C31  1  0.10593300  0.22611300  0.17923400  1
  C  C32  1  0.89406700  0.22611300  0.82076700  1
  C  C33  1  0.64134400  0.72416700  0.25024900  1
  C  C34  1  0.35865600  0.72416700  0.74975200  1
  C  C35  1  0.14134400  0.22416700  0.25024900  1
  C  C36  1  0.85865600  0.22416700  0.74975200  1
  C  C37  1  0.63765200  0.75441300  0.28811900  1
  C  C38  1  0.36234800  0.75441300  0.71188200  1
  C  C39  1  0.13765200  0.25441300  0.28811900  1
  C  C40  1  0.86234800  0.25441300  0.71188200  1
  C  C41  1  0.46893200  0.75926300  0.93105600  1
  C  C42  1  0.53106800  0.75926300  0.06894400  1
  C  C43  1  0.96893200  0.25926300  0.93105600  1
  C  C44  1  0.03106800  0.25926300  0.06894400  1
  C  C45  1  0.88210800  0.83286600  0.50670300  1
  C  C46  1  0.11789200  0.83286600  0.49329700  1
  C  C47  1  0.38210800  0.33286600  0.50670300  1
  C  C48  1  0.61789200  0.33286600  0.49329700  1
  C  C49  1  0.83687200  0.84483000  0.50049300  1
  C  C50  1  0.16312800  0.84483000  0.49950700  1
  C  C51  1  0.33687200  0.34483000  0.50049300  1
  C  C52  1  0.66312800  0.34483000  0.49950700  1
  C  C53  1  0.82544100  0.88904200  0.49393800  1
  C  C54  1  0.17455900  0.88904200  0.50606200  1
  C  C55  1  0.32544100  0.38904200  0.49393800  1
  C  C56  1  0.67455900  0.38904200  0.50606200  1
  C  C57  1  0.85897900  0.91887500  0.49330800  1
  C  C58  1  0.14102100  0.91887500  0.50669200  1
  C  C59  1  0.35897900  0.41887500  0.49330800  1
  C  C60  1  0.64102100  0.41887500  0.50669200  1
  C  C61  1  0.90439900  0.90493000  0.49975700  1
  C  C62  1  0.09560100  0.90493000  0.50024300  1
  C  C63  1  0.40439900  0.40493000  0.49975700  1
  C  C64  1  0.59560100  0.40493000  0.50024300  1
  C  C65  1  0.91407500  0.86121400  0.50670900  1
  C  C66  1  0.08592500  0.86121400  0.49329100  1
  C  C67  1  0.41407500  0.36121400  0.50670900  1
  C  C68  1  0.58592500  0.36121400  0.49329100  1
  C  C69  1  0.95201600  0.82794900  0.51499500  1
  C  C70  1  0.04798400  0.82794900  0.48500500  1
  C  C71  1  0.45201600  0.32794900  0.51499500  1
  C  C72  1  0.54798400  0.32794900  0.48500500  1
  C  C73  1  0.91466300  0.79452000  0.51533400  1
  C  C74  1  0.08533700  0.79452000  0.48466600  1
  C  C75  1  0.41466300  0.29452000  0.51533400  1
  C  C76  1  0.58533700  0.29452000  0.48466600  1
  C  C77  1  0.83609000  0.76100300  0.75169800  1
  C  C78  1  0.16391000  0.76100300  0.24830200  1
  C  C79  1  0.33609000  0.26100300  0.75169800  1
  C  C80  1  0.66391000  0.26100300  0.24830200  1
  C  C81  1  0.87479400  0.75807100  0.82266300  1
  C  C82  1  0.12520600  0.75807100  0.17733700  1
  C  C83  1  0.37479400  0.25807100  0.82266300  1
  C  C84  1  0.62520600  0.25807100  0.17733700  1
  C  C85  1  0.92709200  0.74194300  0.85440600  1
  C  C86  1  0.07290800  0.74194300  0.14559400  1
  C  C87  1  0.42709200  0.24194300  0.85440600  1
  C  C88  1  0.57290800  0.24194300  0.14559400  1
  C  C89  1  0.94029000  0.72743000  0.81323600  1
  C  C90  1  0.05971000  0.72743000  0.18676400  1
  C  C91  1  0.44029000  0.22743000  0.81323600  1
  C  C92  1  0.55971000  0.22743000  0.18676400  1
  C  C93  1  0.90156500  0.73048200  0.74219200  1
  C  C94  1  0.09843400  0.73048200  0.25780800  1
  C  C95  1  0.40156500  0.23048200  0.74219200  1
  C  C96  1  0.59843400  0.23048200  0.25780800  1
  C  C97  1  0.84979500  0.74761100  0.71066300  1
  C  C98  1  0.15020400  0.74761100  0.28933700  1
  C  C99  1  0.34979500  0.24761100  0.71066300  1
  C  C100  1  0.65020400  0.24761100  0.28933700  1
  C  C101  1  0.03431100  0.74035100  0.06934300  1
  C  C102  1  0.96568900  0.74035100  0.93065700  1
  C  C103  1  0.53431100  0.24035100  0.06934300  1
  C  C104  1  0.46568900  0.24035100  0.93065700  1
  C  C105  1  0.64226900  0.61767900  0.46701100  1
  C  C106  1  0.35773100  0.61767900  0.53298900  1
  C  C107  1  0.14226900  0.11767900  0.46701100  1
  C  C108  1  0.85773100  0.11767900  0.53298900  1
  C  C109  1  0.65154300  0.65695200  0.49854900  1
  C  C110  1  0.34845700  0.65695200  0.50145100  1
  C  C111  1  0.15154300  0.15695200  0.49854900  1
  C  C112  1  0.84845700  0.15695200  0.50145100  1
  C  C113  1  0.62944400  0.66270300  0.53220700  1
  C  C114  1  0.37055600  0.66270300  0.46779300  1
  C  C115  1  0.12944400  0.16270300  0.53220700  1
  C  C116  1  0.87055600  0.16270300  0.46779300  1
  C  C117  1  0.60034700  0.62913700  0.53419000  1
  C  C118  1  0.39965300  0.62913700  0.46581000  1
  C  C119  1  0.10034700  0.12913700  0.53419000  1
  C  C120  1  0.89965300  0.12913700  0.46581000  1
  C  C121  1  0.59095500  0.59030900  0.49998500  1
  C  C122  1  0.40904400  0.59030900  0.50001600  1
  C  C123  1  0.09095500  0.09030900  0.49998500  1
  C  C124  1  0.90904400  0.09030900  0.50001600  1
  C  C125  1  0.61232300  0.58656900  0.46597900  1
  C  C126  1  0.38767700  0.58656900  0.53402100  1
  C  C127  1  0.11232300  0.08656900  0.46597900  1
  C  C128  1  0.88767700  0.08656900  0.53402100  1
  C  C129  1  0.61882800  0.55606500  0.42533700  1
  C  C130  1  0.38117200  0.55606500  0.57466300  1
  C  C131  1  0.11882800  0.05606500  0.42533700  1
  C  C132  1  0.88117200  0.05606500  0.57466300  1
  C  C133  1  0.65369200  0.59280100  0.42612000  1
  C  C134  1  0.34630800  0.59280100  0.57388000  1
  C  C135  1  0.15369200  0.09280100  0.42612000  1
  C  C136  1  0.84630800  0.09280100  0.57388000  1
  C  C137  1  0.44103500  0.55555600  0.50054200  1
  C  C138  1  0.55896500  0.55555600  0.49945800  1
  C  C139  1  0.94103500  0.05555600  0.50054200  1
  C  C140  1  0.05896500  0.05555600  0.49945800  1
  C  C141  1  0.94058800  0.93563000  0.50064300  1
  C  C142  1  0.05941200  0.93563000  0.49935700  1
  C  C143  1  0.44058800  0.43563000  0.50064300  1
  C  C144  1  0.55941200  0.43563000  0.49935700  1
  C  C145  1  0.77985600  0.77701100  0.72203900  1
  C  C146  1  0.22014400  0.77701100  0.27796200  1
  C  C147  1  0.27985600  0.27701100  0.72203900  1
  C  C148  1  0.72014400  0.27701100  0.27796200  1
  C  C149  1  0.99438800  0.70683200  0.84250100  1
  C  C150  1  0.00561200  0.70683200  0.15749900  1
  C  C151  1  0.49438800  0.20683200  0.84250100  1
  C  C152  1  0.50561200  0.20683200  0.15749900  1
  C  C153  1  0.56515300  0.54820000  0.35365200  1
  C  C154  1  0.43484700  0.54820000  0.64634800  1
  C  C155  1  0.06515300  0.04820000  0.35365200  1
  C  C156  1  0.93484700  0.04820000  0.64634800  1
  C  C157  1  0.51910200  0.82327500  0.14892500  1
  C  C158  1  0.48089800  0.82327500  0.85107500  1
  C  C159  1  0.01910200  0.32327500  0.14892500  1
  C  C160  1  0.98089800  0.32327500  0.85107500  1
  N  N1  1  0.51553900  0.72153800  0.03404600  1
  N  N2  1  0.48446100  0.72153800  0.96595400  1
  N  N3  1  0.01553900  0.22153800  0.03404600  1
  N  N4  1  0.98446100  0.22153800  0.96595400  1
  N  N5  1  0.48454200  0.79696500  0.96598000  1
  N  N6  1  0.51545800  0.79696500  0.03402000  1
  N  N7  1  0.98454200  0.29696500  0.96598000  1
  N  N8  1  0.01545800  0.29696500  0.03402000  1
  N  N9  1  0.02054300  0.74078200  0.96633600  1
  N  N10  1  0.97945700  0.74078200  0.03366400  1
  N  N11  1  0.52054300  0.24078200  0.96633600  1
  N  N12  1  0.47945700  0.24078200  0.03366400  1
  N  N13  1  0.05430900  0.74070500  0.03457100  1
  N  N14  1  0.94569100  0.74070500  0.96542900  1
  N  N15  1  0.55430900  0.24070500  0.03457100  1
  N  N16  1  0.44569100  0.24070500  0.96542900  1
  O  O1  1  0.81278700  0.77117300  0.49710300  1
  O  O2  1  0.18721300  0.77117300  0.50289700  1
  O  O3  1  0.31278700  0.27117300  0.49710300  1
  O  O4  1  0.68721300  0.27117300  0.50289700  1
  O  O5  1  0.76399000  0.82455300  0.50301500  1
  O  O6  1  0.23601000  0.82455300  0.49698500  1
  O  O7  1  0.26399000  0.32455300  0.50301500  1
  O  O8  1  0.73601000  0.32455300  0.49698500  1
  O  O9  1  0.71666600  0.72492400  0.39432900  1
  O  O10  1  0.28333400  0.72492400  0.60567100  1
  O  O11  1  0.21666600  0.22492400  0.39432900  1
  O  O12  1  0.78333400  0.22492400  0.60567100  1
  O  O13  1  0.66758500  0.77926400  0.39792300  1
  O  O14  1  0.33241500  0.77926400  0.60207700  1
  O  O15  1  0.16758500  0.27926400  0.39792300  1
  O  O16  1  0.83241500  0.27926400  0.60207700  1
  O  O17  1  0.72250800  0.67806600  0.49414300  1
  O  O18  1  0.27749200  0.67806600  0.50585700  1
  O  O19  1  0.22250800  0.17806600  0.49414300  1
  O  O20  1  0.77749200  0.17806600  0.50585700  1
  O  O21  1  0.67456800  0.73138100  0.50199500  1
  O  O22  1  0.32543200  0.73138100  0.49800500  1
  O  O23  1  0.17456800  0.23138100  0.50199500  1
  O  O24  1  0.82543200  0.23138100  0.49800500  1
  O  O25  1  0.81890300  0.72303400  0.60016300  1
  O  O26  1  0.18109700  0.72303400  0.39983700  1
  O  O27  1  0.31890300  0.22303400  0.60016300  1
  O  O28  1  0.68109700  0.22303400  0.39983700  1
  O  O29  1  0.77073500  0.77796000  0.60375900  1
  O  O30  1  0.22926500  0.77796000  0.39624100  1
  O  O31  1  0.27073500  0.27796000  0.60375900  1
  O  O32  1  0.72926500  0.27796000  0.39624100  1
  O  O33  1  0.42734300  0.54245400  0.44133300  1
  O  O34  1  0.57265700  0.54245400  0.55866700  1
  O  O35  1  0.92734300  0.04245400  0.44133300  1
  O  O36  1  0.07265700  0.04245400  0.55866700  1
  O  O37  1  0.48313500  0.54006400  0.56046000  1
  O  O38  1  0.51686500  0.54006400  0.43954000  1
  O  O39  1  0.98313500  0.04006400  0.56046000  1
  O  O40  1  0.01686500  0.04006400  0.43954000  1
  O  O41  1  0.92632600  0.94943000  0.44144100  1
  O  O42  1  0.07367400  0.94943000  0.55855900  1
  O  O43  1  0.42632600  0.44943000  0.44144100  1
  O  O44  1  0.57367400  0.44943000  0.55855900  1
  O  O45  1  0.98390700  0.95004000  0.56060900  1
  O  O46  1  0.01609300  0.95004000  0.43939100  1
  O  O47  1  0.48390700  0.45004000  0.56060900  1
  O  O48  1  0.51609300  0.45004000  0.43939100  1
