# generated using pymatgen
data_ZnH9C11NO5
_symmetry_space_group_name_H-M   'P 1'
_cell_length_a   10.75808600
_cell_length_b   11.13096000
_cell_length_c   9.94741900
_cell_angle_alpha   89.99737900
_cell_angle_beta   89.99438300
_cell_angle_gamma   90.00936600
_symmetry_Int_Tables_number   1
_chemical_formula_structural   ZnH9C11NO5
_chemical_formula_sum   'Zn2 H18 C22 N2 O10'
_cell_volume   1191.18176616
_cell_formula_units_Z   2
loop_
 _symmetry_equiv_pos_site_id
 _symmetry_equiv_pos_as_xyz
  1  'x, y, z'
loop_
 _atom_site_type_symbol
 _atom_site_label
 _atom_site_symmetry_multiplicity
 _atom_site_fract_x
 _atom_site_fract_y
 _atom_site_fract_z
 _atom_site_occupancy
  Zn  Zn1  1  0.49369600  0.49482200  0.66686200  1
  Zn  Zn2  1  0.49300300  0.50074900  0.36057300  1
  H  H1  1  0.92602800  0.31834200  0.39393800  1
  H  H2  1  0.07842700  0.32139000  0.62510200  1
  H  H3  1  0.91556600  0.48903400  0.74281000  1
  H  H4  1  0.06110600  0.67605500  0.63353100  1
  H  H5  1  0.90888800  0.67327900  0.40251400  1
  H  H6  1  0.07149800  0.50546300  0.28482900  1
  H  H7  1  0.47700400  0.88514400  0.32059500  1
  H  H8  1  0.54189600  0.10406100  0.31633500  1
  H  H9  1  0.42849400  0.09317700  0.59807600  1
  H  H10  1  0.48906200  0.67256100  0.88378900  1
  H  H11  1  0.52495200  0.41400300  0.91849900  1
  H  H12  1  0.42894700  0.45051000  0.11496100  1
  H  H13  1  0.54152900  0.84467500  0.04054700  1
  H  H14  1  0.67395900  0.78128200  0.95126100  1
  H  H15  1  0.69675800  0.86030800  0.10727000  1
  H  H16  1  0.72841100  0.98889200  0.54635400  1
  H  H17  1  0.75730300  0.93929000  0.71597700  1
  H  H18  1  0.67296900  0.07705300  0.68767000  1
  C  C1  1  0.48155600  0.26329900  0.50670900  1
  C  C2  1  0.25070200  0.50628400  0.51584100  1
  C  C3  1  0.50356700  0.73278900  0.52117800  1
  C  C4  1  0.73604400  0.48823500  0.51169400  1
  C  C5  1  0.03798800  0.40105900  0.57441100  1
  C  C6  1  0.95796200  0.39965200  0.44831300  1
  C  C7  1  0.87422000  0.49169900  0.51249600  1
  C  C8  1  0.95201100  0.49306300  0.63862300  1
  C  C9  1  0.02886700  0.59478900  0.57924500  1
  C  C10  1  0.94884600  0.59339000  0.45316500  1
  C  C11  1  0.03481600  0.50138500  0.38894400  1
  C  C12  1  0.11256800  0.50273600  0.51507200  1
  C  C13  1  0.50050700  0.93014300  0.41372000  1
  C  C14  1  0.51996900  0.86395700  0.52511200  1
  C  C15  1  0.50867500  0.06278200  0.40824700  1
  C  C16  1  0.46916800  0.13236900  0.50886500  1
  C  C17  1  0.50129600  0.58820600  0.93560500  1
  C  C18  1  0.53512100  0.58920700  0.07978700  1
  C  C19  1  0.61791400  0.68581500  0.12842400  1
  C  C20  1  0.63304400  0.79991000  0.05146600  1
  C  C21  1  0.57033500  0.91580400  0.65012100  1
  C  C22  1  0.68937400  0.98485900  0.64940200  1
  N  N1  1  0.49730500  0.49004200  0.86796600  1
  N  N2  1  0.49210700  0.50737300  0.15932200  1
  O  O1  1  0.48374300  0.31737600  0.62364400  1
  O  O2  1  0.48551200  0.32078400  0.39124900  1
  O  O3  1  0.30834100  0.50453100  0.63226200  1
  O  O4  1  0.30825000  0.50496400  0.39955700  1
  O  O5  1  0.50143800  0.67454800  0.63585200  1
  O  O6  1  0.49967100  0.67852000  0.40412800  1
  O  O7  1  0.67833800  0.48840300  0.62768800  1
  O  O8  1  0.67832100  0.49121400  0.39557800  1
  O  O9  1  0.68253600  0.67019000  0.22710500  1
  O  O10  1  0.51833300  0.89657200  0.75685800  1
