# generated using pymatgen
data_CuH13C22NO5
_symmetry_space_group_name_H-M   'P 1'
_cell_length_a   12.17699300
_cell_length_b   13.44526800
_cell_length_c   17.40691100
_cell_angle_alpha   103.42263200
_cell_angle_beta   74.17738300
_cell_angle_gamma   116.27505800
_symmetry_Int_Tables_number   1
_chemical_formula_structural   CuH13C22NO5
_chemical_formula_sum   'Cu2 H26 C44 N2 O10'
_cell_volume   2438.03499716
_cell_formula_units_Z   2
loop_
 _symmetry_equiv_pos_site_id
 _symmetry_equiv_pos_as_xyz
  1  'x, y, z'
loop_
 _atom_site_type_symbol
 _atom_site_label
 _atom_site_symmetry_multiplicity
 _atom_site_fract_x
 _atom_site_fract_y
 _atom_site_fract_z
 _atom_site_occupancy
  Cu  Cu1  1  0.90112900  0.52458000  0.51783900  1
  Cu  Cu2  1  0.09983800  0.47459000  0.48479900  1
  H  H1  1  0.13076100  0.45834100  0.71492000  1
  H  H2  1  0.85760400  0.52070600  0.28512600  1
  H  H3  1  0.19025400  0.46067400  0.22183700  1
  H  H4  1  0.08683800  0.43183300  0.97471900  1
  H  H5  1  0.81920200  0.55408700  0.92555000  1
  H  H6  1  0.85734300  0.50836100  0.14628200  1
  H  H7  1  0.91871900  0.56059400  0.02766100  1
  H  H8  1  0.13401700  0.46713600  0.85240200  1
  H  H9  1  0.19214700  0.45155200  0.08000500  1
  H  H10  1  0.91926100  0.12323700  0.39985000  1
  H  H11  1  0.57418800  0.79759400  0.35632700  1
  H  H12  1  0.77717400  0.93346000  0.36111700  1
  H  H13  1  0.61540600  0.19733400  0.54124000  1
  H  H14  1  0.07798100  0.86954100  0.59911800  1
  H  H15  1  0.42678900  0.13865500  0.58619500  1
  H  H16  1  0.35406500  0.73184100  0.39824100  1
  H  H17  1  0.81909500  0.68741300  0.63653400  1
  H  H18  1  0.43861100  0.69727500  0.65377400  1
  H  H19  1  0.63590500  0.73104500  0.67268600  1
  H  H20  1  0.67136300  0.43868100  0.45380900  1
  H  H21  1  0.17635000  0.31714800  0.36668500  1
  H  H22  1  0.52771000  0.35673700  0.38998400  1
  H  H23  1  0.35413800  0.26609700  0.32382100  1
  H  H24  1  0.26954800  0.60023900  0.58746900  1
  H  H25  1  0.17380100  0.11068500  0.60911400  1
  H  H26  1  0.83426300  0.63629400  0.78840000  1
  C  C1  1  0.14498600  0.71003900  0.51138800  1
  C  C2  1  0.97925200  0.49972200  0.65274600  1
  C  C3  1  0.85680400  0.28994600  0.48783500  1
  C  C4  1  0.01970900  0.49700700  0.35003900  1
  C  C5  1  0.97324000  0.50163400  0.73882600  1
  C  C6  1  0.06035000  0.47852000  0.76009900  1
  C  C7  1  0.06143000  0.48241000  0.83966500  1
  C  C8  1  0.97421200  0.50881800  0.90016800  1
  C  C9  1  0.88749200  0.53240100  0.87912500  1
  C  C10  1  0.88619400  0.52885300  0.79940200  1
  C  C11  1  0.93378500  0.50112100  0.16094800  1
  C  C12  1  0.93291800  0.50669500  0.24106600  1
  C  C13  1  0.11778700  0.47265400  0.20557800  1
  C  C14  1  0.11879400  0.46737200  0.12515000  1
  C  C15  1  0.02785300  0.48275700  0.10207000  1
  C  C16  1  0.97212800  0.51696700  0.98665300  1
  C  C17  1  0.03187300  0.47431500  0.01528200  1
  C  C18  1  0.02479000  0.49274900  0.26411800  1
  C  C19  1  0.73993600  0.99005300  0.40193500  1
  C  C20  1  0.77354500  0.17141400  0.47302100  1
  C  C21  1  0.17621600  0.90074900  0.57226900  1
  C  C22  1  0.24977900  0.01074500  0.59288400  1
  C  C23  1  0.37652200  0.05251100  0.56471900  1
  C  C24  1  0.43276400  0.98569800  0.51162200  1
  C  C25  1  0.35624300  0.87488300  0.48740100  1
  C  C26  1  0.56308900  0.02643600  0.48209000  1
  C  C27  1  0.61274400  0.95555500  0.42939600  1
  C  C28  1  0.53565700  0.85034300  0.40106500  1
  C  C29  1  0.40905000  0.81160000  0.42766800  1
  C  C30  1  0.64613400  0.13605100  0.50264500  1
  C  C31  1  0.82045300  0.09713900  0.42423100  1
  C  C32  1  0.22784700  0.83063900  0.52138700  1
  C  C33  1  0.64154900  0.66644600  0.62346100  1
  C  C34  1  0.25274100  0.35919300  0.39870200  1
  C  C35  1  0.35297300  0.33036100  0.37422300  1
  C  C36  1  0.45227800  0.38327200  0.41293900  1
  C  C37  1  0.45178300  0.46673600  0.47730900  1
  C  C38  1  0.34761700  0.49342000  0.50063800  1
  C  C39  1  0.55205600  0.52472600  0.51887700  1
  C  C40  1  0.54583900  0.60789700  0.58165400  1
  C  C41  1  0.44357900  0.63290800  0.60419700  1
  C  C42  1  0.34594500  0.57627600  0.56491900  1
  C  C43  1  0.65893200  0.50282000  0.50062400  1
  C  C44  1  0.74448600  0.64219700  0.60315600  1
  N  N1  1  0.75201300  0.56206900  0.54218800  1
  N  N2  1  0.24913700  0.43845500  0.46163400  1
  O  O1  1  0.02376400  0.67966900  0.52634600  1
  O  O2  1  0.19363700  0.63660700  0.49471100  1
  O  O3  1  0.89807900  0.52014400  0.62986000  1
  O  O4  1  0.06541900  0.47346000  0.60095600  1
  O  O5  1  0.80623100  0.36274700  0.50975800  1
  O  O6  1  0.97816400  0.31936700  0.47347300  1
  O  O7  1  0.92736600  0.51505800  0.40112700  1
  O  O8  1  0.10054400  0.47502700  0.37242900  1
  O  O9  1  0.19729700  0.07841100  0.64451600  1
  O  O10  1  0.79895600  0.55353000  0.78189000  1
