# generated using pymatgen
data_CuH13C20NO4
_symmetry_space_group_name_H-M   'P 1'
_cell_length_a   12.18910300
_cell_length_b   13.44735300
_cell_length_c   13.92715900
_cell_angle_alpha   104.36055000
_cell_angle_beta   72.81539100
_cell_angle_gamma   116.29879900
_symmetry_Int_Tables_number   1
_chemical_formula_structural   CuH13C20NO4
_chemical_formula_sum   'Cu2 H26 C40 N2 O8'
_cell_volume   1936.80609631
_cell_formula_units_Z   2
loop_
 _symmetry_equiv_pos_site_id
 _symmetry_equiv_pos_as_xyz
  1  'x, y, z'
loop_
 _atom_site_type_symbol
 _atom_site_label
 _atom_site_symmetry_multiplicity
 _atom_site_fract_x
 _atom_site_fract_y
 _atom_site_fract_z
 _atom_site_occupancy
  Cu  Cu1  1  0.91469700  0.52926500  0.52567000  1
  Cu  Cu2  1  0.11306200  0.47753600  0.48675000  1
  H  H1  1  0.89035600  0.51747500  0.05439100  1
  H  H2  1  0.13648800  0.48823200  0.95789200  1
  H  H3  1  0.93574200  0.12552400  0.37821200  1
  H  H4  1  0.59249800  0.79781500  0.32590600  1
  H  H5  1  0.79511300  0.93458500  0.33090400  1
  H  H6  1  0.62759900  0.20250000  0.55260300  1
  H  H7  1  0.08906900  0.87432900  0.62844300  1
  H  H8  1  0.43767400  0.14432900  0.60933300  1
  H  H9  1  0.21796500  0.07026500  0.66983700  1
  H  H10  1  0.37133200  0.73212300  0.37904300  1
  H  H11  1  0.82860900  0.69204100  0.67548900  1
  H  H12  1  0.44541700  0.69898900  0.70121000  1
  H  H13  1  0.64298800  0.73395400  0.72340100  1
  H  H14  1  0.68701300  0.44296300  0.44423200  1
  H  H15  1  0.19161200  0.31912400  0.33865300  1
  H  H16  1  0.54379500  0.35940000  0.36606400  1
  H  H17  1  0.27796800  0.60137400  0.61789500  1
  H  H18  1  0.46176100  0.27374800  0.20461300  1
  H  H19  1  0.29480100  0.21885800  0.22049000  1
  H  H20  1  0.43091600  0.15722800  0.33640700  1
  H  H21  1  0.15585200  0.06559200  0.31927600  1
  H  H22  1  0.21843000  0.13648300  0.43212100  1
  H  H23  1  0.21884300  0.00102900  0.37610100  1
  H  H24  1  0.30514600  0.02921300  0.15591300  1
  H  H25  1  0.36994600  0.97708900  0.22389300  1
  H  H26  1  0.47170500  0.09145100  0.15184500  1
  C  C1  1  0.15849200  0.71374000  0.52005100  1
  C  C2  1  0.98513700  0.50375600  0.69653100  1
  C  C3  1  0.87032100  0.29367600  0.48708200  1
  C  C4  1  0.04168300  0.50205000  0.31584700  1
  C  C5  1  0.05349800  0.49975600  0.20965200  1
  C  C6  1  0.05974800  0.49758200  0.01762200  1
  C  C7  1  0.96714100  0.50818400  0.99469800  1
  C  C8  1  0.96896000  0.50721000  0.89061500  1
  C  C9  1  0.05792900  0.49854600  0.12171100  1
  C  C10  1  0.97340600  0.50601900  0.80268600  1
  C  C11  1  0.75652900  0.99210000  0.38114600  1
  C  C12  1  0.78760300  0.17506900  0.46830800  1
  C  C13  1  0.18803300  0.90536600  0.59456300  1
  C  C14  1  0.26080300  0.01594200  0.61920000  1
  C  C15  1  0.38825000  0.05750600  0.58348600  1
  C  C16  1  0.44615000  0.98956300  0.51782400  1
  C  C17  1  0.37059200  0.87790400  0.48881700  1
  C  C18  1  0.57720500  0.02996200  0.48048000  1
  C  C19  1  0.62857300  0.95791200  0.41551300  1
  C  C20  1  0.55255000  0.85164800  0.38121300  1
  C  C21  1  0.42525400  0.81308700  0.41489100  1
  C  C22  1  0.65939500  0.14027200  0.50506600  1
  C  C23  1  0.83617600  0.09982800  0.40833800  1
  C  C24  1  0.24129200  0.83432000  0.53166400  1
  C  C25  1  0.65058100  0.66976100  0.66051300  1
  C  C26  1  0.26761300  0.36073500  0.37826700  1
  C  C27  1  0.36778000  0.33021400  0.34747800  1
  C  C28  1  0.46675000  0.38473100  0.39554200  1
  C  C29  1  0.46471500  0.46893400  0.47666600  1
  C  C30  1  0.35962200  0.49540700  0.50695100  1
  C  C31  1  0.56439300  0.52778400  0.52828100  1
  C  C32  1  0.55590600  0.61078300  0.60817700  1
  C  C33  1  0.45223100  0.63496400  0.63794600  1
  C  C34  1  0.35562000  0.57804600  0.58869300  1
  C  C35  1  0.67278200  0.50691500  0.50387200  1
  C  C36  1  0.75495500  0.64651300  0.63354500  1
  C  C37  1  0.37142700  0.24088400  0.25941600  1
  C  C38  1  0.35858500  0.13588500  0.29307500  1
  C  C39  1  0.22967500  0.08166700  0.35923000  1
  C  C40  1  0.37739100  0.05308600  0.20013500  1
  N  N1  1  0.76554900  0.56758500  0.55510500  1
  N  N2  1  0.26247200  0.44054900  0.45779900  1
  O  O1  1  0.03785500  0.68425400  0.53151200  1
  O  O2  1  0.20681300  0.63968000  0.50092900  1
  O  O3  1  0.91092400  0.53168600  0.66749200  1
  O  O4  1  0.07296300  0.47591500  0.63297300  1
  O  O5  1  0.82069300  0.36722400  0.50760100  1
  O  O6  1  0.99157500  0.32241800  0.47120600  1
  O  O7  1  0.95152500  0.52727000  0.37913600  1
  O  O8  1  0.11923500  0.47804500  0.34500700  1
