# generated using pymatgen
data_Zn2H19C28N2O8F
_symmetry_space_group_name_H-M   'P 1'
_cell_length_a   13.00571300
_cell_length_b   9.05732800
_cell_length_c   8.53842100
_cell_angle_alpha   90.00000000
_cell_angle_beta   95.34407800
_cell_angle_gamma   90.00000000
_symmetry_Int_Tables_number   1
_chemical_formula_structural   Zn2H19C28N2O8F
_chemical_formula_sum   'Zn2 H19 C28 N2 O8 F1'
_cell_volume   1001.42858094
_cell_formula_units_Z   1
loop_
 _symmetry_equiv_pos_site_id
 _symmetry_equiv_pos_as_xyz
  1  'x, y, z'
loop_
 _atom_site_type_symbol
 _atom_site_label
 _atom_site_symmetry_multiplicity
 _atom_site_fract_x
 _atom_site_fract_y
 _atom_site_fract_z
 _atom_site_occupancy
  Zn  Zn1  1  0.50362700  0.83330600  0.50064200  1
  Zn  Zn2  1  0.49631000  0.15979800  0.49992100  1
  H  H1  1  0.42734500  0.94485200  0.99466700  1
  H  H2  1  0.15779200  0.01942700  0.69703700  1
  H  H3  1  0.00502100  0.96291300  0.68038700  1
  H  H4  1  0.82380000  0.97573900  0.65811000  1
  H  H5  1  0.57206200  0.04764200  0.00660600  1
  H  H6  1  0.84132300  0.95943500  0.30050800  1
  H  H7  1  0.17703200  0.04050700  0.34036600  1
  H  H8  1  0.34091800  0.64423400  0.50201800  1
  H  H9  1  0.33948600  0.40420000  0.42215000  1
  H  H10  1  0.41365300  0.60099100  0.68805900  1
  H  H11  1  0.36471500  0.37348500  0.63109300  1
  H  H12  1  0.42848500  0.59779300  0.27228300  1
  H  H13  1  0.47664100  0.35747100  0.24921500  1
  H  H14  1  0.66208100  0.59494600  0.54460000  1
  H  H15  1  0.64856500  0.35831800  0.60298900  1
  H  H16  1  0.59308900  0.62065400  0.71770100  1
  H  H17  1  0.54882400  0.38820800  0.73583300  1
  H  H18  1  0.56587200  0.62629800  0.27753000  1
  H  H19  1  0.60574100  0.39316300  0.33811000  1
  C  C1  1  0.29498600  0.98901400  0.11175900  1
  C  C2  1  0.34631700  0.96797400  0.98118000  1
  C  C3  1  0.29739900  0.98766800  0.83426100  1
  C  C4  1  0.19171300  0.00365400  0.81544300  1
  C  C5  1  0.13487700  0.00066500  0.94670900  1
  C  C6  1  0.18855200  0.00450600  0.09518100  1
  C  C7  1  0.02646400  0.99714600  0.93339000  1
  C  C8  1  0.97340800  0.00739100  0.06796400  1
  C  C9  1  0.03016600  0.03352300  0.21208800  1
  C  C10  1  0.13598200  0.02554000  0.22556100  1
  C  C11  1  0.97011800  0.98016100  0.78795900  1
  C  C12  1  0.86429500  0.98394800  0.77410300  1
  C  C13  1  0.81134600  0.99573800  0.90533300  1
  C  C14  1  0.86495400  0.99883100  0.05407300  1
  C  C15  1  0.70457300  0.00532900  0.88913500  1
  C  C16  1  0.65321700  0.02547400  0.01983900  1
  C  C17  1  0.70232000  0.00505100  0.16649200  1
  C  C18  1  0.80788300  0.98703100  0.18446600  1
  C  C19  1  0.64141900  0.00015300  0.73809100  1
  C  C20  1  0.36095800  0.99252400  0.70210100  1
  C  C21  1  0.35817600  0.99338900  0.26275100  1
  C  C22  1  0.63896800  0.00034500  0.29890400  1
  C  C23  1  0.40910200  0.58494000  0.55887300  1
  C  C24  1  0.39578600  0.42117100  0.52633900  1
  C  C25  1  0.50382600  0.57706900  0.34049200  1
  C  C26  1  0.52250000  0.41195300  0.34876300  1
  C  C27  1  0.58867200  0.57440000  0.59745200  1
  C  C28  1  0.57274600  0.41010300  0.61665600  1
  N  N1  1  0.50314100  0.63860500  0.49848700  1
  N  N2  1  0.49448300  0.35451200  0.49814900  1
  O  O1  1  0.60249200  0.12471100  0.68227600  1
  O  O2  1  0.61134400  0.87088100  0.68070200  1
  O  O3  1  0.39853200  0.86769300  0.65537400  1
  O  O4  1  0.39003000  0.12179100  0.65218400  1
  O  O5  1  0.39642700  0.86777100  0.31892600  1
  O  O6  1  0.38796100  0.12322300  0.32006200  1
  O  O7  1  0.60104400  0.12532400  0.34510700  1
  O  O8  1  0.60937700  0.87113800  0.34802300  1
  F  F1  1  0.98603100  0.07901600  0.34101800  1
