# generated using pymatgen
data_Zn3H27C51O14
_symmetry_space_group_name_H-M   'P 1'
_cell_length_a   28.18068000
_cell_length_b   18.69893800
_cell_length_c   16.81118300
_cell_angle_alpha   90.00000000
_cell_angle_beta   62.46108000
_cell_angle_gamma   90.00000000
_symmetry_Int_Tables_number   1
_chemical_formula_structural   Zn3H27C51O14
_chemical_formula_sum   'Zn12 H108 C204 O56'
_cell_volume   7854.92261238
_cell_formula_units_Z   4
loop_
 _symmetry_equiv_pos_site_id
 _symmetry_equiv_pos_as_xyz
  1  'x, y, z'
loop_
 _atom_site_type_symbol
 _atom_site_label
 _atom_site_symmetry_multiplicity
 _atom_site_fract_x
 _atom_site_fract_y
 _atom_site_fract_z
 _atom_site_occupancy
  Zn  Zn1  1  0.78952900  0.21003800  0.51049200  1
  Zn  Zn2  1  0.20478800  0.79899700  0.50149300  1
  Zn  Zn3  1  0.20616500  0.20978000  0.50040600  1
  Zn  Zn4  1  0.78928300  0.79961000  0.51383500  1
  Zn  Zn5  1  0.28952900  0.71003800  0.51049200  1
  Zn  Zn6  1  0.70478800  0.29899700  0.50149300  1
  Zn  Zn7  1  0.70616500  0.70978000  0.50040600  1
  Zn  Zn8  1  0.28928300  0.29961000  0.51383500  1
  Zn  Zn9  1  0.50096100  0.50405400  0.09438700  1
  Zn  Zn10  1  0.49473500  0.50422500  0.91905700  1
  Zn  Zn11  1  0.00096100  0.00405400  0.09438700  1
  Zn  Zn12  1  0.99473500  0.00422500  0.91905700  1
  H  H1  1  0.77421000  0.50606500  0.46925900  1
  H  H2  1  0.21872900  0.50427500  0.54881000  1
  H  H3  1  0.27421000  0.00606500  0.46925900  1
  H  H4  1  0.71872900  0.00427500  0.54881000  1
  H  H5  1  0.07822300  0.34343600  0.61742900  1
  H  H6  1  0.91628600  0.66727400  0.39623300  1
  H  H7  1  0.85437500  0.34988900  0.58876900  1
  H  H8  1  0.14059200  0.66128700  0.42386300  1
  H  H9  1  0.57822300  0.84343600  0.61742900  1
  H  H10  1  0.41628600  0.16727400  0.39623300  1
  H  H11  1  0.35437500  0.84988900  0.58876900  1
  H  H12  1  0.64059200  0.16128700  0.42386300  1
  H  H13  1  0.63087700  0.35116400  0.02062600  1
  H  H14  1  0.36543200  0.65594900  0.99147400  1
  H  H15  1  0.36156100  0.35820200  0.99477600  1
  H  H16  1  0.63407000  0.64975700  0.01893900  1
  H  H17  1  0.13087700  0.85116400  0.02062600  1
  H  H18  1  0.86543200  0.15594900  0.99147400  1
  H  H19  1  0.86156100  0.85820200  0.99477600  1
  H  H20  1  0.13407000  0.14975700  0.01893900  1
  H  H21  1  0.61178000  0.34556800  0.78305100  1
  H  H22  1  0.38292900  0.66323500  0.23032100  1
  H  H23  1  0.37841500  0.35562400  0.23441700  1
  H  H24  1  0.61712300  0.65346600  0.77940500  1
  H  H25  1  0.11178000  0.84556800  0.78305100  1
  H  H26  1  0.88292900  0.16323500  0.23032100  1
  H  H27  1  0.87841500  0.85562400  0.23441700  1
  H  H28  1  0.11712300  0.15346600  0.77940500  1
  H  H29  1  0.73949000  0.23131000  0.79519700  1
  H  H30  1  0.25600800  0.77705500  0.21475100  1
  H  H31  1  0.25322400  0.23776600  0.21929600  1
  H  H32  1  0.74232300  0.77092800  0.79513000  1
  H  H33  1  0.23949000  0.73131000  0.79519700  1
  H  H34  1  0.75600800  0.27705500  0.21475100  1
  H  H35  1  0.75322400  0.73776600  0.21929600  1
  H  H36  1  0.24232300  0.27092800  0.79513000  1
  H  H37  1  0.64044000  0.17420300  0.99057500  1
  H  H38  1  0.35600200  0.83247200  0.01920700  1
  H  H39  1  0.36920800  0.20315300  0.99842100  1
  H  H40  1  0.62606300  0.80467700  0.01633700  1
  H  H41  1  0.14044000  0.67420300  0.99057500  1
  H  H42  1  0.85600200  0.33247200  0.01920700  1
  H  H43  1  0.86920800  0.70315300  0.99842100  1
  H  H44  1  0.12606300  0.30467700  0.01633700  1
  H  H45  1  0.62114600  0.06864000  0.08216500  1
  H  H46  1  0.37667500  0.93649200  0.92477700  1
  H  H47  1  0.40622000  0.11790800  0.87849800  1
  H  H48  1  0.58876300  0.88930100  0.13692800  1
  H  H49  1  0.12114600  0.56864000  0.08216500  1
  H  H50  1  0.87667500  0.43649300  0.92477700  1
  H  H51  1  0.90622000  0.61790800  0.87849800  1
  H  H52  1  0.08876300  0.38930100  0.13692800  1
  H  H53  1  0.67428800  0.03938600  0.15917100  1
  H  H54  1  0.32483500  0.96435100  0.84508700  1
  H  H55  1  0.35761200  0.08422000  0.79535700  1
  H  H56  1  0.63731600  0.92290700  0.22019500  1
  H  H57  1  0.17428800  0.53938600  0.15917100  1
  H  H58  1  0.82483500  0.46435100  0.84508700  1
  H  H59  1  0.85761200  0.58422000  0.79535700  1
  H  H60  1  0.13731600  0.42290700  0.22019400  1
  H  H61  1  0.74650900  0.11483800  0.14491000  1
  H  H62  1  0.25188800  0.88971400  0.86081200  1
  H  H63  1  0.27108200  0.13351200  0.83441600  1
  H  H64  1  0.72412400  0.87429500  0.18043300  1
  H  H65  1  0.24650900  0.61483800  0.14491000  1
  H  H66  1  0.75188800  0.38971400  0.86081200  1
  H  H67  1  0.77108200  0.63351200  0.83441600  1
  H  H68  1  0.22412400  0.37429500  0.18043300  1
  H  H69  1  0.06186200  0.24775700  0.52221400  1
  H  H70  1  0.00944500  0.18178400  0.57000200  1
  H  H71  1  0.03531500  0.14799400  0.68212900  1
  H  H72  1  0.09419300  0.14654000  0.57368100  1
  H  H73  1  0.08325900  0.21993800  0.65062900  1
  H  H74  1  0.00751000  0.66512100  0.25391500  1
  H  H75  1  0.05259100  0.74005300  0.22214300  1
  H  H76  1  0.97818200  0.82329800  0.25278600  1
  H  H77  1  0.98691600  0.75769500  0.16805800  1
  H  H78  1  0.93262500  0.74847100  0.28038700  1
  H  H79  1  0.96097600  0.22633900  0.50436600  1
  H  H80  1  0.89409700  0.24199300  0.52174300  1
  H  H81  1  0.85776000  0.14856700  0.63360000  1
  H  H82  1  0.91242200  0.11285300  0.53283800  1
  H  H83  1  0.92208700  0.13339300  0.62970600  1
  H  H84  1  0.11657000  0.69425000  0.25184600  1
  H  H85  1  0.16534600  0.71322100  0.28941100  1
  H  H86  1  0.15486600  0.84080100  0.28255800  1
  H  H87  1  0.16586200  0.80255300  0.17665400  1
  H  H88  1  0.09931100  0.82964900  0.25818400  1
  H  H89  1  0.56186200  0.74775700  0.52221400  1
  H  H90  1  0.50944500  0.68178400  0.57000200  1
  H  H91  1  0.53531500  0.64799400  0.68212900  1
  H  H92  1  0.59419300  0.64654000  0.57368100  1
  H  H93  1  0.58325900  0.71993800  0.65062900  1
  H  H94  1  0.50751000  0.16512100  0.25391500  1
  H  H95  1  0.55259100  0.24005300  0.22214300  1
  H  H96  1  0.47818200  0.32329800  0.25278600  1
  H  H97  1  0.48691600  0.25769500  0.16805800  1
  H  H98  1  0.43262500  0.24847100  0.28038700  1
  H  H99  1  0.46097600  0.72633900  0.50436600  1
  H  H100  1  0.39409700  0.74199300  0.52174300  1
  H  H101  1  0.35776000  0.64856700  0.63360000  1
  H  H102  1  0.41242200  0.61285300  0.53283800  1
  H  H103  1  0.42208700  0.63339300  0.62970600  1
  H  H104  1  0.61657000  0.19425000  0.25184600  1
  H  H105  1  0.66534600  0.21322100  0.28941100  1
  H  H106  1  0.65486600  0.34080100  0.28255800  1
  H  H107  1  0.66586200  0.30255300  0.17665400  1
  H  H108  1  0.59931100  0.32964900  0.25818400  1
  C  C1  1  0.69879900  0.26778200  0.68290100  1
  C  C2  1  0.29561400  0.74117300  0.32903300  1
  C  C3  1  0.29191300  0.27749300  0.33248700  1
  C  C4  1  0.70359200  0.73181000  0.68174800  1
  C  C5  1  0.19879900  0.76778200  0.68290200  1
  C  C6  1  0.79561400  0.24117300  0.32903300  1
  C  C7  1  0.79191300  0.77749300  0.33248700  1
  C  C8  1  0.20359200  0.23181000  0.68174800  1
  C  C9  1  0.69276800  0.13347700  0.52075200  1
  C  C10  1  0.30150300  0.87559000  0.49126400  1
  C  C11  1  0.30870700  0.13679400  0.47293900  1
  C  C12  1  0.68670600  0.87256400  0.54113400  1
  C  C13  1  0.19276800  0.63347700  0.52075200  1
  C  C14  1  0.80150300  0.37559000  0.49126400  1
  C  C15  1  0.80870700  0.63679400  0.47293900  1
  C  C16  1  0.18670600  0.37256400  0.54113400  1
  C  C17  1  0.56879700  0.11683900  0.43723800  1
  C  C18  1  0.43238800  0.88582600  0.55488000  1
  C  C19  1  0.47509100  0.11854100  0.42332500  1
  C  C20  1  0.52564500  0.88432300  0.57009400  1
  C  C21  1  0.06879700  0.61683900  0.43723800  1
  C  C22  1  0.93238800  0.38582600  0.55488000  1
  C  C23  1  0.97509100  0.61854100  0.42332500  1
  C  C24  1  0.02564500  0.38432300  0.57009400  1
  C  C25  1  0.55756600  0.17465000  0.39659100  1
  C  C26  1  0.44472400  0.82659200  0.59162400  1
  C  C27  1  0.51094700  0.17497100  0.38818600  1
  C  C28  1  0.49126600  0.82594400  0.59994600  1
  C  C29  1  0.05756600  0.67465000  0.39659100  1
  C  C30  1  0.94472400  0.32659200  0.59162400  1
  C  C31  1  0.01094700  0.67497100  0.38818600  1
  C  C32  1  0.99126600  0.32594400  0.59994600  1
  C  C33  1  0.48807600  0.05967300  0.45891600  1
  C  C34  1  0.51402000  0.94186800  0.53050400  1
  C  C35  1  0.53489000  0.05885800  0.46616000  1
  C  C36  1  0.46735100  0.94255900  0.52271600  1
  C  C37  1  0.98807600  0.55967300  0.45891600  1
  C  C38  1  0.01402000  0.44186800  0.53050400  1
  C  C39  1  0.03489000  0.55885800  0.46616000  1
  C  C40  1  0.96735100  0.44255900  0.52271600  1
  C  C41  1  0.95377000  0.50198500  0.48844700  1
  C  C42  1  0.04741900  0.50069600  0.50386400  1
  C  C43  1  0.45377000  0.00198500  0.48844700  1
  C  C44  1  0.54741900  0.00069600  0.50386400  1
  C  C45  1  0.87334300  0.44433000  0.50836900  1
  C  C46  1  0.12361900  0.56291400  0.49659800  1
  C  C47  1  0.10726900  0.44162000  0.54779500  1
  C  C48  1  0.88978600  0.56574600  0.45822100  1
  C  C49  1  0.37334300  0.94433000  0.50836900  1
  C  C50  1  0.62361900  0.06291400  0.49659800  1
  C  C51  1  0.60726900  0.94162000  0.54779500  1
  C  C52  1  0.38978600  0.06574600  0.45822100  1
  C  C53  1  0.82957200  0.44245300  0.49098200  1
  C  C54  1  0.16512000  0.56640300  0.52017100  1
  C  C55  1  0.15691900  0.43968400  0.54738400  1
  C  C56  1  0.83840700  0.56929800  0.46513400  1
  C  C57  1  0.32957200  0.94245300  0.49098200  1
  C  C58  1  0.66512000  0.06640300  0.52017100  1
  C  C59  1  0.65691900  0.93968400  0.54738400  1
  C  C60  1  0.33840700  0.06929800  0.46513400  1
  C  C61  1  0.81117200  0.50594200  0.47372800  1
  C  C62  1  0.18306800  0.50359700  0.54030400  1
  C  C63  1  0.31117200  0.00594200  0.47372800  1
  C  C64  1  0.68306800  0.00359700  0.54030400  1
  C  C65  1  0.90593500  0.50377100  0.48382900  1
  C  C66  1  0.09280700  0.50173700  0.51612900  1
  C  C67  1  0.40593500  0.00377100  0.48382900  1
  C  C68  1  0.59280700  0.00173700  0.51612900  1
  C  C69  1  0.07159100  0.38537000  0.58008500  1
  C  C70  1  0.92558800  0.62187500  0.42523800  1
  C  C71  1  0.88444700  0.38907700  0.55190500  1
  C  C72  1  0.11301700  0.61809000  0.45197400  1
  C  C73  1  0.57159100  0.88537000  0.58008500  1
  C  C74  1  0.42558800  0.12187500  0.42523800  1
  C  C75  1  0.38444700  0.88907700  0.55190500  1
  C  C76  1  0.61301700  0.11809000  0.45197400  1
  C  C77  1  0.64261100  0.33165000  0.95359700  1
  C  C78  1  0.35333600  0.67585000  0.05844100  1
  C  C79  1  0.34913400  0.33966200  0.06241100  1
  C  C80  1  0.64647700  0.66854500  0.95141000  1
  C  C81  1  0.14261100  0.83165000  0.95359700  1
  C  C82  1  0.85333600  0.17585000  0.05844100  1
  C  C83  1  0.84913400  0.83966200  0.06241100  1
  C  C84  1  0.14647700  0.16854500  0.95141000  1
  C  C85  1  0.61520000  0.35261900  0.90704200  1
  C  C86  1  0.38033500  0.65548000  0.10585100  1
  C  C87  1  0.37618900  0.36049300  0.10934200  1
  C  C88  1  0.61946200  0.64791100  0.90433800  1
  C  C89  1  0.11520000  0.85261900  0.90704200  1
  C  C90  1  0.88033500  0.15548000  0.10585100  1
  C  C91  1  0.87618900  0.86049300  0.10934200  1
  C  C92  1  0.11946200  0.14791100  0.90433800  1
  C  C93  1  0.63223200  0.32808400  0.82028800  1
  C  C94  1  0.36273100  0.68042300  0.19255200  1
  C  C95  1  0.35842100  0.33773100  0.19661900  1
  C  C96  1  0.63717200  0.67109100  0.81724000  1
  C  C97  1  0.13223200  0.82808400  0.82028800  1
  C  C98  1  0.86273100  0.18042300  0.19255200  1
  C  C99  1  0.85842100  0.83773100  0.19661900  1
  C  C100  1  0.13717200  0.17109100  0.81724000  1
  C  C101  1  0.67681400  0.28435600  0.77919200  1
  C  C102  1  0.31801900  0.72418100  0.23270200  1
  C  C103  1  0.31395300  0.29438800  0.23706600  1
  C  C104  1  0.68160800  0.71455600  0.77706400  1
  C  C105  1  0.17681400  0.78435600  0.77919200  1
  C  C106  1  0.81801900  0.22418100  0.23270200  1
  C  C107  1  0.81395300  0.79438800  0.23706600  1
  C  C108  1  0.18160800  0.21455600  0.77706400  1
  C  C109  1  0.70379700  0.26376800  0.82647200  1
  C  C110  1  0.29155400  0.74430100  0.18438500  1
  C  C111  1  0.28819600  0.27161700  0.18890600  1
  C  C112  1  0.70737200  0.73702500  0.82533700  1
  C  C113  1  0.20379700  0.76376800  0.82647200  1
  C  C114  1  0.79155400  0.24430100  0.18438500  1
  C  C115  1  0.78819600  0.77161700  0.18890600  1
  C  C116  1  0.20737200  0.23702500  0.82533700  1
  C  C117  1  0.68687300  0.28740500  0.91338300  1
  C  C118  1  0.30899300  0.71996200  0.09756800  1
  C  C119  1  0.30530600  0.29493500  0.10208100  1
  C  C120  1  0.69023200  0.71341600  0.91205900  1
  C  C121  1  0.18687300  0.78740500  0.91338300  1
  C  C122  1  0.80899300  0.21996200  0.09756800  1
  C  C123  1  0.80530600  0.79493500  0.10208100  1
  C  C124  1  0.19023200  0.21341600  0.91205900  1
  C  C125  1  0.66512900  0.16365900  0.02278400  1
  C  C126  1  0.33177400  0.84249800  0.98603000  1
  C  C127  1  0.34632500  0.19130600  0.96338800  1
  C  C128  1  0.64893700  0.81649700  0.05139200  1
  C  C129  1  0.16512900  0.66365900  0.02278400  1
  C  C130  1  0.83177400  0.34249900  0.98603000  1
  C  C131  1  0.84632500  0.69130600  0.96338800  1
  C  C132  1  0.14893700  0.31649700  0.05139200  1
  C  C133  1  0.65369000  0.10314300  0.07488200  1
  C  C134  1  0.34403700  0.90210400  0.93223600  1
  C  C135  1  0.36787600  0.14199300  0.89524900  1
  C  C136  1  0.62721200  0.86544600  0.11993100  1
  C  C137  1  0.15369000  0.60314300  0.07488200  1
  C  C138  1  0.84403700  0.40210400  0.93223600  1
  C  C139  1  0.86787600  0.64199300  0.89524900  1
  C  C140  1  0.12721200  0.36544600  0.11993100  1
  C  C141  1  0.68347700  0.08659400  0.11780300  1
  C  C142  1  0.31499700  0.91783900  0.88776600  1
  C  C143  1  0.34057600  0.12293000  0.84899100  1
  C  C144  1  0.65447500  0.88444700  0.16626700  1
  C  C145  1  0.18347700  0.58659400  0.11780300  1
  C  C146  1  0.81499700  0.41783900  0.88776600  1
  C  C147  1  0.84057600  0.62293000  0.84899100  1
  C  C148  1  0.15447500  0.38444700  0.16626700  1
  C  C149  1  0.72472700  0.13042400  0.10916800  1
  C  C150  1  0.27333900  0.87447300  0.89723600  1
  C  C151  1  0.29128900  0.15232100  0.87142000  1
  C  C152  1  0.70393100  0.85544300  0.14342900  1
  C  C153  1  0.22472700  0.63042400  0.10916800  1
  C  C154  1  0.77333900  0.37447300  0.89723600  1
  C  C155  1  0.79128900  0.65232100  0.87142000  1
  C  C156  1  0.20393100  0.35544300  0.14342900  1
  C  C157  1  0.73679500  0.19194700  0.05699300  1
  C  C158  1  0.26042500  0.81387000  0.95115800  1
  C  C159  1  0.26937800  0.20361800  0.93883400  1
  C  C160  1  0.72597400  0.80438300  0.07573500  1
  C  C161  1  0.23679500  0.69194700  0.05699300  1
  C  C162  1  0.76042500  0.31387000  0.95115800  1
  C  C163  1  0.76937800  0.70361800  0.93883400  1
  C  C164  1  0.22597400  0.30438300  0.07573500  1
  C  C165  1  0.70678900  0.20856900  0.01314000  1
  C  C166  1  0.29008100  0.79762500  0.99572700  1
  C  C167  1  0.29730200  0.22348100  0.98498000  1
  C  C168  1  0.69806000  0.78453000  0.02956800  1
  C  C169  1  0.20678900  0.70856900  0.01314000  1
  C  C170  1  0.79008100  0.29762500  0.99572700  1
  C  C171  1  0.79730200  0.72348100  0.98498000  1
  C  C172  1  0.19806000  0.28453000  0.02956800  1
  C  C173  1  0.77815700  0.23683600  0.04917900  1
  C  C174  1  0.21837400  0.76974900  0.96039700  1
  C  C175  1  0.21970300  0.23413800  0.96111600  1
  C  C176  1  0.77573600  0.77403500  0.05325000  1
  C  C177  1  0.27815700  0.73683600  0.04917900  1
  C  C178  1  0.71837400  0.26974900  0.96039700  1
  C  C179  1  0.71970300  0.73413800  0.96111600  1
  C  C180  1  0.27573600  0.27403500  0.05325000  1
  C  C181  1  0.07435100  0.09811800  0.94375100  1
  C  C182  1  0.92134900  0.91017200  0.06972100  1
  C  C183  1  0.92450700  0.10315700  0.06758400  1
  C  C184  1  0.07115200  0.90508000  0.94581800  1
  C  C185  1  0.57435100  0.59811800  0.94375100  1
  C  C186  1  0.42134900  0.41017200  0.06972100  1
  C  C187  1  0.42450700  0.60315700  0.06758400  1
  C  C188  1  0.57115200  0.40508000  0.94581800  1
  C  C189  1  0.03314200  0.22135000  0.58519700  1
  C  C190  1  0.06360000  0.18132600  0.62543600  1
  C  C191  1  0.01114200  0.72264100  0.26598800  1
  C  C192  1  0.97473100  0.76576500  0.24029700  1
  C  C193  1  0.91826100  0.22533700  0.55489500  1
  C  C194  1  0.90166400  0.15002100  0.59002500  1
  C  C195  1  0.12773800  0.73215500  0.29084400  1
  C  C196  1  0.13755900  0.80604400  0.24912700  1
  C  C197  1  0.53314200  0.72135000  0.58519700  1
  C  C198  1  0.56360000  0.68132600  0.62543600  1
  C  C199  1  0.51114200  0.22264100  0.26598800  1
  C  C200  1  0.47473100  0.26576500  0.24029700  1
  C  C201  1  0.41826100  0.72533700  0.55489500  1
  C  C202  1  0.40166400  0.65002100  0.59002500  1
  C  C203  1  0.62773800  0.23215500  0.29084400  1
  C  C204  1  0.63755900  0.30604400  0.24912700  1
  O  O1  1  0.74456000  0.23339000  0.64242000  1
  O  O2  1  0.24976200  0.77554700  0.36951900  1
  O  O3  1  0.24730500  0.24085600  0.37059300  1
  O  O4  1  0.74812400  0.76858200  0.64367300  1
  O  O5  1  0.24456000  0.73339000  0.64242000  1
  O  O6  1  0.74976200  0.27554700  0.36951900  1
  O  O7  1  0.74730500  0.74085600  0.37059300  1
  O  O8  1  0.24812400  0.26858200  0.64367300  1
  O  O9  1  0.67072400  0.19511600  0.52060000  1
  O  O10  1  0.32349000  0.81396100  0.49155200  1
  O  O11  1  0.32784000  0.19821800  0.48313700  1
  O  O12  1  0.66760000  0.81111900  0.53118100  1
  O  O13  1  0.17072400  0.69511600  0.52060000  1
  O  O14  1  0.82349000  0.31396100  0.49155200  1
  O  O15  1  0.82784000  0.69821800  0.48313700  1
  O  O16  1  0.16760000  0.31111900  0.53118100  1
  O  O17  1  0.73986300  0.12899900  0.51824300  1
  O  O18  1  0.25445000  0.88008100  0.49366200  1
  O  O19  1  0.26025400  0.13160600  0.48086300  1
  O  O20  1  0.73520600  0.87785100  0.53323500  1
  O  O21  1  0.23986200  0.62899900  0.51824300  1
  O  O22  1  0.75445000  0.38008100  0.49366200  1
  O  O23  1  0.76025400  0.63160600  0.48086300  1
  O  O24  1  0.23520600  0.37785100  0.53323500  1
  O  O25  1  0.67515400  0.29575200  0.63890800  1
  O  O26  1  0.31920200  0.71335100  0.37311200  1
  O  O27  1  0.31559800  0.30388800  0.37726600  1
  O  O28  1  0.67997000  0.70542600  0.63692700  1
  O  O29  1  0.17515400  0.79575200  0.63890800  1
  O  O30  1  0.81920200  0.21335100  0.37311200  1
  O  O31  1  0.81559800  0.80388800  0.37726600  1
  O  O32  1  0.17997000  0.20542600  0.63692700  1
  O  O33  1  0.05993100  0.07362200  0.02473600  1
  O  O34  1  0.93575200  0.93466900  0.98872400  1
  O  O35  1  0.93827100  0.07740700  0.98719400  1
  O  O36  1  0.05744700  0.93085600  0.02623000  1
  O  O37  1  0.55993100  0.57362200  0.02473600  1
  O  O38  1  0.43575200  0.43466900  0.98872400  1
  O  O39  1  0.43827100  0.57740700  0.98719400  1
  O  O40  1  0.55744700  0.43085600  0.02623000  1
  O  O41  1  0.94634700  0.08092800  0.11739700  1
  O  O42  1  0.04931100  0.92735000  0.89608500  1
  O  O43  1  0.05191600  0.07744700  0.89443800  1
  O  O44  1  0.94379800  0.93082200  0.11900100  1
  O  O45  1  0.44634700  0.58092800  0.11739700  1
  O  O46  1  0.54931100  0.42735000  0.89608500  1
  O  O47  1  0.55191600  0.57744700  0.89443800  1
  O  O48  1  0.44379800  0.43082200  0.11900100  1
  O  O49  1  0.99940600  0.27167000  0.64748100  1
  O  O50  1  0.99743100  0.73533700  0.35639800  1
  O  O51  1  0.90906400  0.27109500  0.62664900  1
  O  O52  1  0.08710000  0.73641200  0.37939300  1
  O  O53  1  0.49940600  0.77167000  0.64748100  1
  O  O54  1  0.49743100  0.23533700  0.35639800  1
  O  O55  1  0.40906400  0.77109500  0.62664900  1
  O  O56  1  0.58710000  0.23641200  0.37939300  1
