# generated using pymatgen
data_Cu3H15C49Cl5O12
_symmetry_space_group_name_H-M   'P 1'
_cell_length_a   27.16032300
_cell_length_b   27.52207500
_cell_length_c   27.20003300
_cell_angle_alpha   109.71543400
_cell_angle_beta   110.61270700
_cell_angle_gamma   108.30525000
_symmetry_Int_Tables_number   1
_chemical_formula_structural   Cu3H15C49Cl5O12
_chemical_formula_sum   'Cu6 H30 C98 Cl10 O24'
_cell_volume   15604.37796386
_cell_formula_units_Z   2
loop_
 _symmetry_equiv_pos_site_id
 _symmetry_equiv_pos_as_xyz
  1  'x, y, z'
loop_
 _atom_site_type_symbol
 _atom_site_label
 _atom_site_symmetry_multiplicity
 _atom_site_fract_x
 _atom_site_fract_y
 _atom_site_fract_z
 _atom_site_occupancy
  Cu  Cu1  1  0.00593900  0.04103900  0.54818100  1
  Cu  Cu2  1  0.00585700  0.95727500  0.46270500  1
  Cu  Cu3  1  0.44046800  0.96150700  0.97977300  1
  Cu  Cu4  1  0.52386300  0.03843100  0.97396600  1
  Cu  Cu5  1  0.54786400  0.49786700  0.54532600  1
  Cu  Cu6  1  0.46064500  0.49673400  0.45890400  1
  H  H1  1  0.23379900  0.24615300  0.40666200  1
  H  H2  1  0.35340400  0.32196500  0.59599700  1
  H  H3  1  0.27767100  0.24665600  0.59848000  1
  H  H4  1  0.65427900  0.90743300  0.15797600  1
  H  H5  1  0.75856000  0.09478300  0.24408200  1
  H  H6  1  0.76731000  0.66666667  0.50953000  1
  H  H7  1  0.73920200  0.83033000  0.49499800  1
  H  H8  1  0.57866600  0.83582300  0.82478300  1
  H  H9  1  0.58751300  0.75812300  0.75618600  1
  H  H10  1  0.39736200  0.64435100  0.66247100  1
  H  H11  1  0.38850300  0.72208900  0.73107700  1
  H  H12  1  0.50479700  0.27285300  0.15784600  1
  H  H13  1  0.51017300  0.34874800  0.24311500  1
  H  H14  1  0.50819600  0.24341600  0.32755100  1
  H  H15  1  0.50285200  0.16758400  0.24235400  1
  H  H16  1  0.06128500  0.01236100  0.29139000  1
  H  H17  1  0.01398400  0.14747000  0.30116900  1
  H  H18  1  0.11333700  0.22154800  0.39292200  1
  H  H19  1  0.49915000  0.69066500  0.39169300  1
  H  H20  1  0.60412900  0.83044400  0.57630500  1
  H  H21  1  0.69455300  0.82445300  0.58330800  1
  H  H22  1  0.78263400  0.79578600  0.21204800  1
  H  H23  1  0.65107100  0.79377800  0.26321400  1
  H  H24  1  0.66420400  0.88590800  0.26229500  1
  H  H25  1  0.89545800  0.23572100  0.46069700  1
  H  H26  1  0.00200800  0.18259400  0.39621300  1
  H  H27  1  0.91090300  0.08940200  0.31093700  1
  H  H28  1  0.90470500  0.66546600  0.43100200  1
  H  H29  1  0.00778200  0.81204200  0.61190600  1
  H  H30  1  0.91597700  0.81592500  0.60259200  1
  C  C1  1  0.08746100  0.07919500  0.50698400  1
  C  C2  1  0.08897200  0.99841700  0.58877000  1
  C  C3  1  0.92487200  0.91909100  0.50448500  1
  C  C4  1  0.92266000  0.99967700  0.42212700  1
  C  C5  1  0.13682400  0.99875800  0.63591400  1
  C  C6  1  0.17674500  0.99893300  0.67519100  1
  C  C7  1  0.22377000  0.99909200  0.72142100  1
  C  C8  1  0.26368100  0.99921400  0.76065900  1
  C  C9  1  0.31067400  0.99934800  0.80689600  1
  C  C10  1  0.35051600  0.99944800  0.84617700  1
  C  C11  1  0.24342400  0.24600900  0.44868600  1
  C  C12  1  0.29809200  0.28844900  0.50118500  1
  C  C13  1  0.31055200  0.28853900  0.55489200  1
  C  C14  1  0.26820200  0.24630400  0.55625800  1
  C  C15  1  0.21363200  0.20373000  0.50382600  1
  C  C16  1  0.20139500  0.20297100  0.44968500  1
  C  C17  1  0.34221100  0.33277700  0.50020700  1
  C  C18  1  0.16938100  0.16066600  0.50591900  1
  C  C19  1  0.13204100  0.12377600  0.50679600  1
  C  C20  1  0.37962000  0.37033600  0.50002300  1
  C  C21  1  0.69464200  0.94881900  0.19422200  1
  C  C22  1  0.70080300  0.00109900  0.19522200  1
  C  C23  1  0.75285400  0.05349100  0.24246800  1
  C  C24  1  0.79773200  0.05381100  0.28803300  1
  C  C25  1  0.79173900  0.00127300  0.28651300  1
  C  C26  1  0.73989200  0.94873400  0.23886500  1
  C  C27  1  0.65341800  0.00098600  0.14773600  1
  C  C28  1  0.83782900  0.00119500  0.33500800  1
  C  C29  1  0.87640900  0.00070700  0.37488400  1
  C  C30  1  0.61380200  0.00080300  0.10808100  1
  C  C31  1  0.76094400  0.70234000  0.50577700  1
  C  C32  1  0.70983200  0.70496300  0.50126800  1
  C  C33  1  0.70151000  0.75049300  0.49649800  1
  C  C34  1  0.74530800  0.79429800  0.49811000  1
  C  C35  1  0.79652800  0.79179400  0.50283700  1
  C  C36  1  0.80421800  0.74551800  0.50614100  1
  C  C37  1  0.66588300  0.66077400  0.50259700  1
  C  C38  1  0.84118000  0.83677200  0.50301300  1
  C  C39  1  0.87918300  0.87440400  0.50350700  1
  C  C40  1  0.62870800  0.62359400  0.50338400  1
  C  C41  1  0.47575000  0.91396900  0.89513300  1
  C  C42  1  0.39813500  0.99953900  0.89330000  1
  C  C43  1  0.48765300  0.08595100  0.05765700  1
  C  C44  1  0.56621300  0.00048000  0.06056700  1
  C  C45  1  0.50569300  0.41868700  0.42048600  1
  C  C46  1  0.42431800  0.41541900  0.50036900  1
  C  C47  1  0.50176200  0.57479100  0.58371200  1
  C  C48  1  0.58412500  0.57898800  0.50362400  1
  C  C49  1  0.54406100  0.75029300  0.75134900  1
  C  C50  1  0.49294500  0.69723000  0.70628100  1
  C  C51  1  0.43705800  0.68630200  0.69863900  1
  C  C52  1  0.43209300  0.72952600  0.73658600  1
  C  C53  1  0.48314700  0.78279900  0.78126700  1
  C  C54  1  0.53910000  0.79349300  0.78928700  1
  C  C55  1  0.49736300  0.65405200  0.66477000  1
  C  C56  1  0.47834400  0.82795700  0.81985300  1
  C  C57  1  0.47602600  0.86692900  0.85351400  1
  C  C58  1  0.50006000  0.61778100  0.62835100  1
  C  C59  1  0.50921800  0.30912600  0.24292700  1
  C  C60  1  0.50982900  0.29996400  0.28969800  1
  C  C61  1  0.50810900  0.24987900  0.29047400  1
  C  C62  1  0.50505600  0.20775900  0.24313200  1
  C  C63  1  0.50370900  0.21656200  0.19600300  1
  C  C64  1  0.50614700  0.26696800  0.19554200  1
  C  C65  1  0.50952200  0.34180000  0.33668300  1
  C  C66  1  0.49820900  0.17187000  0.14637300  1
  C  C67  1  0.49325400  0.13302700  0.10515900  1
  C  C68  1  0.50813400  0.37691600  0.37549300  1
  C  C69  1  0.14311700  0.15856100  0.39415600  1
  C  C70  1  0.12873900  0.09984000  0.36499100  1
  C  C71  1  0.07270200  0.05831800  0.31388300  1
  C  C72  1  0.03129700  0.07532200  0.29131300  1
  C  C73  1  0.04627700  0.13407300  0.31921000  1
  C  C74  1  0.10211300  0.17564000  0.37054800  1
  C  C75  1  0.64748900  0.75361600  0.49169700  1
  C  C76  1  0.59267800  0.71635200  0.43771300  1
  C  C77  1  0.54202900  0.71978700  0.43390100  1
  C  C78  1  0.54607600  0.76056100  0.48373100  1
  C  C79  1  0.60090000  0.79827600  0.53732300  1
  C  C80  1  0.65161100  0.79496800  0.54121000  1
  C  C81  1  0.73120500  0.89295900  0.23718000  1
  C  C82  1  0.76411200  0.86733100  0.22254900  1
  C  C83  1  0.75673800  0.81570800  0.22323000  1
  C  C84  1  0.71641600  0.78947900  0.23816600  1
  C  C85  1  0.68283600  0.81444900  0.25169900  1
  C  C86  1  0.69006900  0.86601200  0.25097900  1
  C  C87  1  0.85163900  0.10999500  0.33791200  1
  C  C88  1  0.84745100  0.15130900  0.38003200  1
  C  C89  1  0.89869800  0.20368400  0.42749500  1
  C  C90  1  0.95413500  0.21492300  0.43317600  1
  C  C91  1  0.95843400  0.17380200  0.39136800  1
  C  C92  1  0.90729400  0.12151100  0.34368000  1
  C  C93  1  0.85861000  0.74286400  0.51143800  1
  C  C94  1  0.85548200  0.70047500  0.46336100  1
  C  C95  1  0.90707800  0.69835900  0.46876900  1
  C  C96  1  0.96174100  0.73836200  0.52209600  1
  C  C97  1  0.96491300  0.78062900  0.57010400  1
  C  C98  1  0.91340900  0.78283700  0.56481400  1
  Cl  Cl1  1  0.18161400  0.07762800  0.39136300  1
  Cl  Cl2  1  0.95984000  0.02237900  0.22695900  1
  Cl  Cl3  1  0.58725200  0.66577400  0.37332700  1
  Cl  Cl4  1  0.48169100  0.76486500  0.47874100  1
  Cl  Cl5  1  0.81447800  0.89925000  0.20197100  1
  Cl  Cl6  1  0.70770500  0.72433800  0.23975700  1
  Cl  Cl7  1  0.77803600  0.13666500  0.37587800  1
  Cl  Cl8  1  0.01922900  0.28116300  0.49386300  1
  Cl  Cl9  1  0.78679900  0.65070100  0.39444300  1
  Cl  Cl10  1  0.02718900  0.73564000  0.52874900  1
  O  O1  1  0.06595400  0.09617100  0.54179700  1
  O  O2  1  0.06586000  0.02359000  0.46772300  1
  O  O3  1  0.07014800  0.03639200  0.60509300  1
  O  O4  1  0.07009100  0.96412200  0.53132300  1
  O  O5  1  0.94268400  0.97467100  0.53981300  1
  O  O6  1  0.94263400  0.90227700  0.46596700  1
  O  O7  1  0.94491700  0.03745100  0.47968000  1
  O  O8  1  0.94483300  0.96496800  0.40574400  1
  O  O9  1  0.44312800  0.90105100  0.91912900  1
  O  O10  1  0.51522300  0.96771900  0.91405100  1
  O  O11  1  0.38280700  0.96451900  0.91462400  1
  O  O12  1  0.45501800  0.03471400  0.91322900  1
  O  O13  1  0.45225700  0.03223200  0.04282600  1
  O  O14  1  0.52459500  0.09891500  0.03797500  1
  O  O15  1  0.50925800  0.96527700  0.04065500  1
  O  O16  1  0.58161800  0.03539100  0.03904300  1
  O  O17  1  0.54482700  0.43974900  0.47727800  1
  O  O18  1  0.46942000  0.43881000  0.40244500  1
  O  O19  1  0.48129800  0.43745700  0.53990900  1
  O  O20  1  0.40605600  0.43300800  0.46165200  1
  O  O21  1  0.54229200  0.55906500  0.60189700  1
  O  O22  1  0.46672100  0.55792500  0.52703200  1
  O  O23  1  0.60252000  0.56150400  0.54251400  1
  O  O24  1  0.52709700  0.55720800  0.46426000  1
