# generated using pymatgen
data_Cu3H17C30O12F19
_symmetry_space_group_name_H-M   'P 1'
_cell_length_a   18.56118100
_cell_length_b   18.47768100
_cell_length_c   18.50172500
_cell_angle_alpha   109.35108300
_cell_angle_beta   109.53417000
_cell_angle_gamma   109.55420000
_symmetry_Int_Tables_number   1
_chemical_formula_structural   Cu3H17C30O12F19
_chemical_formula_sum   'Cu6 H34 C60 O24 F38'
_cell_volume   4883.19253181
_cell_formula_units_Z   2
loop_
 _symmetry_equiv_pos_site_id
 _symmetry_equiv_pos_as_xyz
  1  'x, y, z'
loop_
 _atom_site_type_symbol
 _atom_site_label
 _atom_site_symmetry_multiplicity
 _atom_site_fract_x
 _atom_site_fract_y
 _atom_site_fract_z
 _atom_site_occupancy
  Cu  Cu1  1  0.49960300  0.56170600  0.56237500  1
  Cu  Cu2  1  0.50039700  0.43829400  0.43762500  1
  Cu  Cu3  1  0.06109000  0.99961500  0.56297800  1
  Cu  Cu4  1  0.93890900  0.00038500  0.43702200  1
  Cu  Cu5  1  0.06314700  0.56177500  0.00036600  1
  Cu  Cu6  1  0.93685200  0.43822500  0.99963400  1
  H  H1  1  0.13438800  0.39332500  0.84915200  1
  H  H2  1  0.86561200  0.60667500  0.15084800  1
  H  H3  1  0.29295000  0.39723900  0.59323700  1
  H  H4  1  0.70705000  0.60276100  0.40676300  1
  H  H5  1  0.21330400  0.33091600  0.43001400  1
  H  H6  1  0.78669600  0.66908400  0.56998600  1
  H  H7  1  0.11206800  0.23840000  0.44523200  1
  H  H8  1  0.88793200  0.76160100  0.55476800  1
  H  H9  1  0.33556000  0.20533600  0.43131800  1
  H  H10  1  0.66443900  0.79466400  0.56868200  1
  H  H11  1  0.39266800  0.25317600  0.54992100  1
  H  H12  1  0.60733200  0.74682400  0.45007900  1
  H  H13  1  0.21596800  0.10055100  0.41325600  1
  H  H14  1  0.78403200  0.89945000  0.58674300  1
  H  H15  1  0.22157500  0.24119300  0.36246200  1
  H  H16  1  0.77842400  0.75880700  0.63753800  1
  H  H17  1  0.10972700  0.14795400  0.36487200  1
  H  H18  1  0.89027300  0.85204600  0.63512800  1
  H  H19  1  0.63837500  0.51288200  0.77727700  1
  H  H20  1  0.36162400  0.48711800  0.22272300  1
  H  H21  1  0.85675700  0.21985400  0.73903900  1
  H  H22  1  0.14324200  0.78014600  0.26096100  1
  H  H23  1  0.85604200  0.11916400  0.62987700  1
  H  H24  1  0.14395800  0.88083700  0.37012300  1
  H  H25  1  0.89304500  0.29870400  0.70413900  1
  H  H26  1  0.10695500  0.70129600  0.29586100  1
  H  H27  1  0.05239700  0.39299700  0.76152400  1
  H  H28  1  0.94760200  0.60700400  0.23847600  1
  H  H29  1  0.07665300  0.17403900  0.79459000  1
  H  H30  1  0.92334700  0.82596100  0.20541000  1
  H  H31  1  0.95876700  0.10988600  0.74621900  1
  H  H32  1  0.04123300  0.89011400  0.25378100  1
  H  H33  1  0.08606000  0.28653800  0.89936900  1
  H  H34  1  0.91394000  0.71346300  0.10063100  1
  C  C1  1  0.62348200  0.50367900  0.62072800  1
  C  C2  1  0.37651800  0.49632100  0.37927200  1
  C  C3  1  0.38309400  0.37868600  0.50243000  1
  C  C4  1  0.61690600  0.62131400  0.49756900  1
  C  C5  1  0.06831100  0.35151000  0.78851500  1
  C  C6  1  0.93168900  0.64849000  0.21148400  1
  C  C7  1  0.90855500  0.25417400  0.72614400  1
  C  C8  1  0.09144500  0.74582600  0.27385600  1
  C  C9  1  0.99834700  0.19013300  0.68927200  1
  C  C10  1  0.00165300  0.80986700  0.31072800  1
  C  C11  1  0.07144300  0.28116700  0.72060100  1
  C  C12  1  0.92855600  0.71883400  0.27939900  1
  C  C13  1  0.31301500  0.34639800  0.58858500  1
  C  C14  1  0.68698500  0.65360200  0.41141500  1
  C  C15  1  0.24766100  0.27353200  0.59147700  1
  C  C16  1  0.75233800  0.72646900  0.40852200  1
  C  C17  1  0.22416300  0.27458000  0.42609100  1
  C  C18  1  0.77583700  0.72542000  0.57390900  1
  C  C19  1  0.33034200  0.23116100  0.49152500  1
  C  C20  1  0.66965800  0.76883900  0.50847500  1
  C  C21  1  0.31354100  0.30820200  0.50235400  1
  C  C22  1  0.68645900  0.69179800  0.49764600  1
  C  C23  1  0.19389900  0.18911600  0.50186900  1
  C  C24  1  0.80610100  0.81088500  0.49813100  1
  C  C25  1  0.15237500  0.20938200  0.43045500  1
  C  C26  1  0.84762400  0.79061800  0.56954500  1
  C  C27  1  0.25416900  0.15666600  0.48214100  1
  C  C28  1  0.74583100  0.84333500  0.51785800  1
  C  C29  1  0.77005400  0.59926700  0.75823500  1
  C  C30  1  0.22994600  0.40073300  0.24176500  1
  C  C31  1  0.83739600  0.59942300  0.83247000  1
  C  C32  1  0.16260400  0.40057800  0.16753000  1
  C  C33  1  0.65544800  0.46742000  0.73968100  1
  C  C34  1  0.34455200  0.53258000  0.26031900  1
  C  C35  1  0.72899300  0.44789400  0.64954600  1
  C  C36  1  0.27100600  0.55210600  0.35045400  1
  C  C37  1  0.69409400  0.50444800  0.69098200  1
  C  C38  1  0.30590500  0.49555200  0.30901800  1
  C  C39  1  0.81236400  0.50380200  0.81046000  1
  C  C40  1  0.18763500  0.49619800  0.18953900  1
  C  C41  1  0.72263300  0.45798200  0.80385600  1
  C  C42  1  0.27736600  0.54201900  0.19614300  1
  C  C43  1  0.80475200  0.45455900  0.72156100  1
  C  C44  1  0.19524800  0.54544100  0.27843900  1
  C  C45  1  0.99842500  0.30834200  0.80941100  1
  C  C46  1  0.00157500  0.69165800  0.19058900  1
  C  C47  1  0.99925300  0.12049800  0.61952200  1
  C  C48  1  0.00074700  0.87950200  0.38047800  1
  C  C49  1  0.12276600  0.11966900  0.50158200  1
  C  C50  1  0.87723400  0.88033100  0.49841800  1
  C  C51  1  0.00105000  0.62121900  0.12046000  1
  C  C52  1  0.99895000  0.37878200  0.87954000  1
  C  C53  1  0.88132300  0.50246800  0.88042900  1
  C  C54  1  0.11867700  0.49753200  0.11957000  1
  C  C55  1  0.90921300  0.18603800  0.65339900  1
  C  C56  1  0.09078700  0.81396300  0.34660000  1
  C  C57  1  0.01390800  0.17461500  0.76765700  1
  C  C58  1  0.98609100  0.82538500  0.23234300  1
  C  C59  1  0.01864700  0.24764100  0.84093300  1
  C  C60  1  0.98135300  0.75235900  0.15906700  1
  O  O1  1  0.59004300  0.55314400  0.64527700  1
  O  O2  1  0.40995700  0.44685600  0.35472300  1
  O  O3  1  0.59574900  0.45176500  0.53733100  1
  O  O4  1  0.40425100  0.54823500  0.46266900  1
  O  O5  1  0.41366000  0.46178400  0.55823600  1
  O  O6  1  0.58634000  0.53821600  0.44176400  1
  O  O7  1  0.40906100  0.35498400  0.44515100  1
  O  O8  1  0.59093900  0.64501700  0.55484900  1
  O  O9  1  0.05526400  0.09359200  0.64486900  1
  O  O10  1  0.94473600  0.90640800  0.35513100  1
  O  O11  1  0.94436800  0.08897800  0.53587800  1
  O  O12  1  0.05563200  0.91102300  0.46412200  1
  O  O13  1  0.14566100  0.09315000  0.55873200  1
  O  O14  1  0.85433900  0.90685000  0.44126800  1
  O  O15  1  0.04000400  0.08855500  0.44473000  1
  O  O16  1  0.95999600  0.91144500  0.55527000  1
  O  O17  1  0.05807500  0.64484600  0.09415300  1
  O  O18  1  0.94192500  0.35515500  0.90584700  1
  O  O19  1  0.94379400  0.53815700  0.08839700  1
  O  O20  1  0.05620600  0.46184300  0.91160300  1
  O  O21  1  0.96478300  0.55212100  0.90708600  1
  O  O22  1  0.03521600  0.44787900  0.09291400  1
  O  O23  1  0.85566900  0.45065100  0.91162900  1
  O  O24  1  0.14433100  0.54934900  0.08837100  1
  F  F1  1  0.28737100  0.12807400  0.53880700  1
  F  F2  1  0.71262900  0.87192600  0.46119200  1
  F  F3  1  0.73998200  0.65241200  0.79474400  1
  F  F4  1  0.26001800  0.34758800  0.20525500  1
  F  F5  1  0.81018500  0.63483900  0.71796600  1
  F  F6  1  0.18981400  0.36516100  0.28203400  1
  F  F7  1  0.91955600  0.64516000  0.84279800  1
  F  F8  1  0.08044300  0.35484000  0.15720200  1
  F  F9  1  0.83928000  0.64392400  0.91022400  1
  F  F10  1  0.16071900  0.35607600  0.08977600  1
  F  F11  1  0.15268100  0.28702500  0.75858300  1
  F  F12  1  0.84731800  0.71297500  0.24141700  1
  F  F13  1  0.72900800  0.49609200  0.88555200  1
  F  F14  1  0.27099100  0.50390800  0.11444700  1
  F  F15  1  0.66313800  0.35988900  0.59530700  1
  F  F16  1  0.33686200  0.64011100  0.40469300  1
  F  F17  1  0.75923100  0.47684400  0.59990700  1
  F  F18  1  0.24076900  0.52315700  0.40009300  1
  F  F19  1  0.88179400  0.49865100  0.72223600  1
  F  F20  1  0.11820600  0.50135000  0.27776400  1
  F  F21  1  0.78943600  0.37031300  0.70330000  1
  F  F22  1  0.21056300  0.62968700  0.29670000  1
  F  F23  1  0.57938400  0.38589800  0.68048900  1
  F  F24  1  0.42061600  0.61410200  0.31951100  1
  F  F25  1  0.69260100  0.36866200  0.77392400  1
  F  F26  1  0.30739900  0.63133900  0.22607600  1
  F  F27  1  0.06113000  0.29563900  0.65009400  1
  F  F28  1  0.93887000  0.70436100  0.34990600  1
  F  F29  1  0.89226300  0.20309500  0.58396200  1
  F  F30  1  0.10773600  0.79690500  0.41603700  1
  F  F31  1  0.95867500  0.20982100  0.86417500  1
  F  F32  1  0.04132500  0.79017900  0.13582500  1
  F  F33  1  0.39606700  0.38440700  0.65998000  1
  F  F34  1  0.60393300  0.61559300  0.34002000  1
  F  F35  1  0.29320300  0.25998900  0.65718300  1
  F  F36  1  0.70679600  0.74001100  0.34281700  1
  F  F37  1  0.19203200  0.29962800  0.61140600  1
  F  F38  1  0.80796700  0.70037200  0.38859400  1
