# generated using pymatgen
data_ZnH17C24NO4
_symmetry_space_group_name_H-M   'P 1'
_cell_length_a   16.60578800
_cell_length_b   17.48506100
_cell_length_c   17.77244800
_cell_angle_alpha   90.00718300
_cell_angle_beta   90.00050700
_cell_angle_gamma   86.30403000
_symmetry_Int_Tables_number   1
_chemical_formula_structural   ZnH17C24NO4
_chemical_formula_sum   'Zn2 H34 C48 N2 O8'
_cell_volume   5149.55479582
_cell_formula_units_Z   2
loop_
 _symmetry_equiv_pos_site_id
 _symmetry_equiv_pos_as_xyz
  1  'x, y, z'
loop_
 _atom_site_type_symbol
 _atom_site_label
 _atom_site_symmetry_multiplicity
 _atom_site_fract_x
 _atom_site_fract_y
 _atom_site_fract_z
 _atom_site_occupancy
  Zn  Zn1  1  0.59190200  0.49662000  0.50227200  1
  Zn  Zn2  1  0.40861400  0.49878700  0.50232900  1
  H  H1  1  0.38463700  0.25531500  0.49699700  1
  H  H2  1  0.61580300  0.74021500  0.50738000  1
  H  H3  1  0.35786200  0.74381400  0.50566800  1
  H  H4  1  0.64258500  0.25149600  0.49860500  1
  H  H5  1  0.41325000  0.00073000  0.53150100  1
  H  H6  1  0.58694800  0.99471400  0.47251000  1
  H  H7  1  0.64916500  0.11245700  0.49485200  1
  H  H8  1  0.35113000  0.88286000  0.50920900  1
  H  H9  1  0.60904800  0.87766900  0.51265400  1
  H  H10  1  0.39123700  0.11788200  0.49150900  1
  H  H11  1  0.62841900  0.49505900  0.87952300  1
  H  H12  1  0.37179500  0.50012500  0.12521000  1
  H  H13  1  0.62950800  0.49448600  0.74228900  1
  H  H14  1  0.37090500  0.50073400  0.26246300  1
  H  H15  1  0.37120600  0.49818900  0.74203000  1
  H  H16  1  0.62917000  0.49782700  0.26237900  1
  H  H17  1  0.37191300  0.49871500  0.87925800  1
  H  H18  1  0.62825400  0.49724100  0.12514800  1
  H  H19  1  0.72513300  0.39749800  0.43371100  1
  H  H20  1  0.27765100  0.57302100  0.59620100  1
  H  H21  1  0.71330500  0.59361900  0.57067700  1
  H  H22  1  0.28508700  0.42680900  0.40855200  1
  H  H23  1  0.86106300  0.59473200  0.57087800  1
  H  H24  1  0.13722100  0.42629800  0.40839100  1
  H  H25  1  0.85808200  0.42860500  0.31250600  1
  H  H26  1  0.95328100  0.45369800  0.35191500  1
  H  H27  1  0.94383300  0.35935500  0.31297100  1
  H  H28  1  0.93931200  0.35513200  0.45328100  1
  H  H29  1  0.84721400  0.32911400  0.41077800  1
  H  H30  1  0.13203000  0.69462900  0.55974100  1
  H  H31  1  0.03723000  0.65306000  0.54029000  1
  H  H32  1  0.05336600  0.69754900  0.63023100  1
  H  H33  1  0.06848800  0.55436500  0.64020100  1
  H  H34  1  0.15907300  0.59987400  0.66252900  1
  C  C1  1  0.50008400  0.49914100  0.35498600  1
  C  C2  1  0.50043600  0.49629500  0.64960900  1
  C  C3  1  0.50862900  0.34766000  0.50069700  1
  C  C4  1  0.49186000  0.64775000  0.50385100  1
  C  C5  1  0.51306400  0.26364600  0.49900400  1
  C  C6  1  0.48738600  0.73176700  0.50541600  1
  C  C7  1  0.44326800  0.22469000  0.49734000  1
  C  C8  1  0.55713900  0.77078800  0.50700300  1
  C  C9  1  0.44720000  0.14570200  0.49515500  1
  C  C10  1  0.55311800  0.84978700  0.50905200  1
  C  C11  1  0.52131900  0.10445200  0.49514400  1
  C  C12  1  0.47896000  0.89097800  0.50898200  1
  C  C13  1  0.59084700  0.14368500  0.49564900  1
  C  C14  1  0.40948000  0.85168200  0.50850600  1
  C  C15  1  0.58698000  0.22262900  0.49791500  1
  C  C16  1  0.41343600  0.77273200  0.50637900  1
  C  C17  1  0.52958300  0.02004000  0.49186800  1
  C  C18  1  0.47062200  0.97539500  0.51216400  1
  C  C19  1  0.57207800  0.49567200  0.84900100  1
  C  C20  1  0.42816600  0.49968100  0.15567000  1
  C  C21  1  0.57235300  0.49533100  0.77142800  1
  C  C22  1  0.42801100  0.50004200  0.23324700  1
  C  C23  1  0.50038200  0.49618900  0.73210000  1
  C  C24  1  0.50004200  0.49934400  0.27248300  1
  C  C25  1  0.42829600  0.49738300  0.77127700  1
  C  C26  1  0.57205100  0.49841600  0.23320600  1
  C  C27  1  0.42834800  0.49772000  0.84885000  1
  C  C28  1  0.57187600  0.49806300  0.15563300  1
  C  C29  1  0.50015900  0.49688600  0.88769600  1
  C  C30  1  0.50002100  0.49863700  0.11688100  1
  C  C31  1  0.50005800  0.49745500  0.96839800  1
  C  C32  1  0.50003500  0.49799500  0.03617500  1
  C  C33  1  0.83927800  0.43936700  0.46289500  1
  C  C34  1  0.16250600  0.54192700  0.55670500  1
  C  C35  1  0.75593400  0.44051300  0.46406500  1
  C  C36  1  0.24583700  0.54076700  0.55514500  1
  C  C37  1  0.74899900  0.55002800  0.54016700  1
  C  C38  1  0.25031900  0.45950300  0.45031800  1
  C  C39  1  0.83191000  0.55075000  0.54031800  1
  C  C40  1  0.16737000  0.45914400  0.45016100  1
  C  C41  1  0.87762700  0.49535400  0.50156000  1
  C  C42  1  0.12290400  0.50029800  0.50354900  1
  C  C43  1  0.96405100  0.49678500  0.50257700  1
  C  C44  1  0.03652000  0.49833500  0.50322900  1
  C  C45  1  0.88600700  0.37741500  0.42053300  1
  C  C46  1  0.91206400  0.40689700  0.34464000  1
  C  C47  1  0.11724600  0.58730000  0.61618100  1
  C  C48  1  0.08262400  0.66293900  0.58433700  1
  N  N1  1  0.71238200  0.49542500  0.50219000  1
  N  N2  1  0.28813900  0.49999300  0.50245400  1
  O  O1  1  0.56961500  0.49794300  0.39019200  1
  O  O2  1  0.43094200  0.49737400  0.61439700  1
  O  O3  1  0.43061000  0.49972000  0.39022200  1
  O  O4  1  0.56990400  0.49577700  0.61438100  1
  O  O5  1  0.57618900  0.38267600  0.50117700  1
  O  O6  1  0.42431000  0.61272900  0.50348500  1
  O  O7  1  0.43720500  0.38440000  0.50112100  1
  O  O8  1  0.56328200  0.61101000  0.50336100  1
