# generated using pymatgen
data_ZnH9C23I3NO4
_symmetry_space_group_name_H-M   'P 1'
_cell_length_a   11.06017100
_cell_length_b   9.89402500
_cell_length_c   15.10650500
_cell_angle_alpha   90.00000000
_cell_angle_beta   90.00640800
_cell_angle_gamma   90.00000000
_symmetry_Int_Tables_number   1
_chemical_formula_structural   ZnH9C23I3NO4
_chemical_formula_sum   'Zn2 H18 C46 I6 N2 O8'
_cell_volume   1653.09891578
_cell_formula_units_Z   2
loop_
 _symmetry_equiv_pos_site_id
 _symmetry_equiv_pos_as_xyz
  1  'x, y, z'
loop_
 _atom_site_type_symbol
 _atom_site_label
 _atom_site_symmetry_multiplicity
 _atom_site_fract_x
 _atom_site_fract_y
 _atom_site_fract_z
 _atom_site_occupancy
  Zn  Zn1  1  0.49589000  0.65383100  0.50166600  1
  Zn  Zn2  1  0.50395100  0.34632900  0.49837900  1
  H  H1  1  0.58340400  0.68488100  0.77941700  1
  H  H2  1  0.41643300  0.31528000  0.22062800  1
  H  H3  1  0.36277900  0.19335100  0.93064800  1
  H  H4  1  0.63705700  0.80681000  0.06939700  1
  H  H5  1  0.36841600  0.20309200  0.08799700  1
  H  H6  1  0.63142100  0.79707000  0.91204700  1
  H  H7  1  0.08072200  0.04305200  0.44055000  1
  H  H8  1  0.91911800  0.95711000  0.55949600  1
  H  H9  1  0.88980000  0.09073200  0.36425000  1
  H  H10  1  0.11003900  0.90942600  0.63579400  1
  H  H11  1  0.20139100  0.68920100  0.62340000  1
  H  H12  1  0.79844700  0.31095800  0.37664600  1
  H  H13  1  0.81450400  0.78216300  0.48239400  1
  H  H14  1  0.18533500  0.21799800  0.51765200  1
  H  H15  1  0.34647500  0.24414900  0.38053600  1
  H  H16  1  0.65336400  0.75601200  0.61950900  1
  H  H17  1  0.66731000  0.24216700  0.61097300  1
  H  H18  1  0.33252900  0.75799300  0.38907200  1
  C  C1  1  0.26136200  0.49438800  0.50720800  1
  C  C2  1  0.73847700  0.50577300  0.49283600  1
  C  C3  1  0.49977400  0.50447600  0.32660100  1
  C  C4  1  0.50006500  0.49568500  0.67344400  1
  C  C5  1  0.54459900  0.60144200  0.81555800  1
  C  C6  1  0.45523900  0.39871800  0.18448700  1
  C  C7  1  0.49622500  0.49317900  0.77061600  1
  C  C8  1  0.50361300  0.50698200  0.22942900  1
  C  C9  1  0.44362400  0.38737100  0.81791300  1
  C  C10  1  0.55621400  0.61279000  0.18213100  1
  C  C11  1  0.44754400  0.38887100  0.91027700  1
  C  C12  1  0.55229400  0.61129000  0.08976800  1
  C  C13  1  0.49854100  0.49797500  0.95417600  1
  C  C14  1  0.50129700  0.50218600  0.04586800  1
  C  C15  1  0.54577700  0.60391400  0.90644800  1
  C  C16  1  0.45406100  0.39624800  0.09359700  1
  C  C17  1  0.40091300  0.28284500  0.95982700  1
  C  C18  1  0.59892400  0.71731600  0.04021800  1
  C  C19  1  0.40457200  0.28700900  0.05063900  1
  C  C20  1  0.59526500  0.71315300  0.94940500  1
  C  C21  1  0.11752800  0.70654000  0.58872000  1
  C  C22  1  0.88231200  0.29362300  0.41132600  1
  C  C23  1  0.89483400  0.75329800  0.51747300  1
  C  C24  1  0.10500600  0.24686100  0.48257100  1
  C  C25  1  0.06446800  0.83074600  0.59902000  1
  C  C26  1  0.93537200  0.16941400  0.40102700  1
  C  C27  1  0.95667500  0.85643400  0.55818900  1
  C  C28  1  0.04316600  0.14372500  0.44185600  1
  C  C29  1  0.94190500  0.62271200  0.51443200  1
  C  C30  1  0.05793300  0.37744800  0.48561300  1
  C  C31  1  0.06260900  0.60619800  0.53813500  1
  C  C32  1  0.93723000  0.39396400  0.46191000  1
  C  C33  1  0.87429000  0.51131300  0.48466100  1
  C  C34  1  0.12554800  0.48884700  0.51538400  1
  C  C35  1  0.35326600  0.13767500  0.38379400  1
  C  C36  1  0.64657500  0.86248600  0.61624900  1
  C  C37  1  0.65510700  0.13617100  0.61096700  1
  C  C38  1  0.34473400  0.86398900  0.38907700  1
  C  C39  1  0.27873700  0.06948500  0.32671400  1
  C  C40  1  0.72110200  0.93067600  0.67333100  1
  C  C41  1  0.72517700  0.06789400  0.67073400  1
  C  C42  1  0.27466300  0.93226600  0.32931100  1
  C  C43  1  0.42430400  0.92968700  0.44600500  1
  C  C44  1  0.57553500  0.07047400  0.55404000  1
  C  C45  1  0.57035500  0.92886000  0.55711600  1
  C  C46  1  0.42948400  0.07130100  0.44293000  1
  I  I1  1  0.34245400  0.23524900  0.75065500  1
  I  I2  1  0.65738500  0.76491200  0.24939000  1
  I  I3  1  0.84349500  0.17421600  0.75467800  1
  I  I4  1  0.15634500  0.82594400  0.24536600  1
  I  I5  1  0.16364300  0.17586800  0.24032400  1
  I  I6  1  0.83619600  0.82429300  0.75972000  1
  N  N1  1  0.49430900  0.85748300  0.50330800  1
  N  N2  1  0.50553100  0.14267800  0.49673600  1
  O  O1  1  0.31611400  0.61293000  0.50406800  1
  O  O2  1  0.68372600  0.38723000  0.49597600  1
  O  O3  1  0.67629400  0.61830200  0.49801300  1
  O  O4  1  0.32354600  0.38186000  0.50203000  1
  O  O5  1  0.49332500  0.61890700  0.36956900  1
  O  O6  1  0.50651400  0.38125400  0.63047600  1
  O  O7  1  0.49765800  0.61319400  0.63322700  1
  O  O8  1  0.50218100  0.38696700  0.36681800  1
