# generated using pymatgen
data_Zn2H21C31N3O10
_symmetry_space_group_name_H-M   'P 1'
_cell_length_a   10.73444700
_cell_length_b   14.16763200
_cell_length_c   8.55746400
_cell_angle_alpha   90.00000000
_cell_angle_beta   89.99830000
_cell_angle_gamma   90.00000000
_symmetry_Int_Tables_number   1
_chemical_formula_structural   Zn2H21C31N3O10
_chemical_formula_sum   'Zn2 H21 C31 N3 O10'
_cell_volume   1301.43362790
_cell_formula_units_Z   1
loop_
 _symmetry_equiv_pos_site_id
 _symmetry_equiv_pos_as_xyz
  1  'x, y, z'
loop_
 _atom_site_type_symbol
 _atom_site_label
 _atom_site_symmetry_multiplicity
 _atom_site_fract_x
 _atom_site_fract_y
 _atom_site_fract_z
 _atom_site_occupancy
  Zn  Zn1  1  0.51986700  0.10197300  0.50517500  1
  Zn  Zn2  1  0.48343600  0.89408800  0.50534300  1
  H  H1  1  0.89528200  0.98773600  0.39274300  1
  H  H2  1  0.58494200  0.95056300  0.00896800  1
  H  H3  1  0.41988700  0.04526900  0.00845500  1
  H  H4  1  0.90768600  0.00944800  0.75095100  1
  H  H5  1  0.09654800  0.98752400  0.75078900  1
  H  H6  1  0.40014200  0.56019500  0.28105900  1
  H  H7  1  0.38940800  0.40087400  0.30889900  1
  H  H8  1  0.61019600  0.43892200  0.29085900  1
  H  H9  1  0.61577700  0.59356900  0.31574300  1
  H  H10  1  0.43908300  0.40573900  0.73865900  1
  H  H11  1  0.37459800  0.55529000  0.70688300  1
  H  H12  1  0.60073300  0.43737800  0.73263400  1
  H  H13  1  0.53039500  0.59052500  0.75348200  1
  H  H14  1  0.31498200  0.41033100  0.49740800  1
  H  H15  1  0.29242000  0.56615100  0.44298300  1
  H  H16  1  0.83362500  0.50675800  0.28812100  1
  H  H17  1  0.90817200  0.39422700  0.32319400  1
  H  H18  1  0.92622500  0.48895600  0.46286700  1
  H  H19  1  0.75958300  0.70564700  0.35090400  1
  H  H20  1  0.89155900  0.66237700  0.46047200  1
  H  H21  1  0.78394900  0.74417100  0.54945300  1
  C  C1  1  0.68400800  0.96252800  0.00710600  1
  C  C2  1  0.74316300  0.97619300  0.86706800  1
  C  C3  1  0.86863200  0.99407000  0.86370000  1
  C  C4  1  0.74688400  0.97494300  0.14528900  1
  C  C5  1  0.87532300  0.98748800  0.14337100  1
  C  C6  1  0.93762700  0.99343600  0.00149400  1
  C  C7  1  0.06691400  0.00284300  0.00146000  1
  C  C8  1  0.13570900  0.00254600  0.86360400  1
  C  C9  1  0.26125400  0.02008200  0.86705100  1
  C  C10  1  0.94215300  0.99267400  0.28132200  1
  C  C11  1  0.12990000  0.00822600  0.14303400  1
  C  C12  1  0.25800400  0.02077500  0.14471400  1
  C  C13  1  0.32079400  0.03341400  0.00678300  1
  C  C14  1  0.33599200  0.01274200  0.72588500  1
  C  C15  1  0.66817800  0.98345600  0.72564700  1
  C  C16  1  0.67075000  0.98290200  0.28669900  1
  C  C17  1  0.33329000  0.01295600  0.28666800  1
  C  C18  1  0.39422200  0.43523400  0.42520200  1
  C  C19  1  0.38581400  0.54143600  0.40556500  1
  C  C20  1  0.62241300  0.45610400  0.41635700  1
  C  C21  1  0.61215800  0.56255100  0.43451000  1
  C  C22  1  0.51594900  0.40977300  0.50570100  1
  C  C23  1  0.48581700  0.58696200  0.50490800  1
  C  C24  1  0.47334100  0.54921100  0.67015400  1
  C  C25  1  0.51027900  0.44606800  0.67260800  1
  C  C26  1  0.47072300  0.68961200  0.50527400  1
  C  C27  1  0.52862200  0.30684400  0.50529300  1
  C  C28  1  0.74865000  0.42143400  0.46450700  1
  C  C29  1  0.86116300  0.45516200  0.37923700  1
  C  C30  1  0.71701200  0.60297500  0.52948400  1
  C  C31  1  0.79232400  0.68355400  0.46814000  1
  N  N1  1  0.06692500  0.00254400  0.27871700  1
  N  N2  1  0.46382300  0.77111600  0.50551000  1
  N  N3  1  0.53492600  0.22531500  0.50509000  1
  O  O1  1  0.35870600  0.92800400  0.67117100  1
  O  O2  1  0.39076200  0.08921600  0.67391500  1
  O  O3  1  0.64532800  0.06829700  0.67082900  1
  O  O4  1  0.61325000  0.90684000  0.67379600  1
  O  O5  1  0.64551700  0.06771900  0.33969900  1
  O  O6  1  0.61401000  0.90703800  0.33762700  1
  O  O7  1  0.35841400  0.92796900  0.33972200  1
  O  O8  1  0.38994700  0.08908800  0.33744400  1
  O  O9  1  0.76069600  0.36405900  0.56957300  1
  O  O10  1  0.74130900  0.57135500  0.65839100  1
