# generated using pymatgen
data_FeH17C25O8
_symmetry_space_group_name_H-M   'P 1'
_cell_length_a   16.16924400
_cell_length_b   9.32791000
_cell_length_c   15.20498200
_cell_angle_alpha   87.64060400
_cell_angle_beta   85.36045600
_cell_angle_gamma   109.06621900
_symmetry_Int_Tables_number   1
_chemical_formula_structural   FeH17C25O8
_chemical_formula_sum   'Fe2 H34 C50 O16'
_cell_volume   2154.81885744
_cell_formula_units_Z   2
loop_
 _symmetry_equiv_pos_site_id
 _symmetry_equiv_pos_as_xyz
  1  'x, y, z'
loop_
 _atom_site_type_symbol
 _atom_site_label
 _atom_site_symmetry_multiplicity
 _atom_site_fract_x
 _atom_site_fract_y
 _atom_site_fract_z
 _atom_site_occupancy
  Fe  Fe1  1  0.51564400  0.96231900  0.13512600  1
  Fe  Fe2  1  0.50366900  0.95722000  0.80814700  1
  H  H1  1  0.92117900  0.88731500  0.83494400  1
  H  H2  1  0.17006100  0.87203500  0.86209700  1
  H  H3  1  0.03373000  0.88780500  0.88609700  1
  H  H4  1  0.78173900  0.86304000  0.78959700  1
  H  H5  1  0.24430000  0.06387100  0.14992100  1
  H  H6  1  0.95621700  0.17656500  0.17449700  1
  H  H7  1  0.82189500  0.14782100  0.12363700  1
  H  H8  1  0.50411600  0.81930400  0.52488500  1
  H  H9  1  0.45431100  0.74067400  0.39792500  1
  H  H10  1  0.44397800  0.08640600  0.58039900  1
  H  H11  1  0.61038500  0.79784800  0.50040900  1
  H  H12  1  0.57185200  0.82071200  0.36643700  1
  H  H13  1  0.55583800  0.17920300  0.53306800  1
  H  H14  1  0.48291700  0.08326100  0.42092800  1
  H  H15  1  0.48314300  0.48446500  0.77283400  1
  H  H16  1  0.53067800  0.42397200  0.17225200  1
  H  H17  1  0.33810800  0.97387100  0.47026800  1
  H  H18  1  0.33310800  0.10682600  0.38529000  1
  H  H19  1  0.32320400  0.16889700  0.58332900  1
  H  H20  1  0.32927300  0.34604900  0.41513200  1
  H  H21  1  0.32664500  0.40060200  0.52820400  1
  H  H22  1  0.22667600  0.30774000  0.48120800  1
  H  H23  1  0.17783700  0.03234200  0.46509800  1
  H  H24  1  0.16474200  0.08965900  0.57652700  1
  H  H25  1  0.20630300  0.93586700  0.55764300  1
  H  H26  1  0.12874200  0.04095800  0.23521500  1
  H  H27  1  0.04309700  0.10943100  0.24386100  1
  H  H28  1  0.22059200  0.29504200  0.13949200  1
  H  H29  1  0.06808000  0.38858200  0.22173900  1
  H  H30  1  0.09429600  0.37393700  0.10458700  1
  H  H31  1  0.17007400  0.51176400  0.16432800  1
  H  H32  1  0.15169300  0.29995800  0.33302000  1
  H  H33  1  0.25085100  0.43393900  0.27520000  1
  H  H34  1  0.24193300  0.23698100  0.29375700  1
  C  C1  1  0.87736800  0.91749100  0.88166200  1
  C  C2  1  0.26725000  0.92692600  0.95352000  1
  C  C3  1  0.18540000  0.91189700  0.92647900  1
  C  C4  1  0.12404000  0.95422300  0.97857400  1
  C  C5  1  0.04418500  0.93937500  0.94773200  1
  C  C6  1  0.98180800  0.98812300  0.99443600  1
  C  C7  1  0.79659400  0.90370500  0.85396700  1
  C  C8  1  0.73388200  0.93761800  0.90708000  1
  C  C9  1  0.89956000  0.97316300  0.96324700  1
  C  C10  1  0.83735700  0.01516800  0.01488300  1
  C  C11  1  0.75206300  0.98664500  0.99068400  1
  C  C12  1  0.28475700  0.97688500  0.03697100  1
  C  C13  1  0.22400700  0.02069300  0.08782100  1
  C  C14  1  0.14318900  0.01249000  0.05899400  1
  C  C15  1  0.08196300  0.06172700  0.10844800  1
  C  C16  1  0.00206300  0.05250900  0.07443400  1
  C  C17  1  0.94275800  0.11128000  0.11776600  1
  C  C18  1  0.86240300  0.09260000  0.08873000  1
  C  C19  1  0.67958000  0.98620800  0.05735000  1
  C  C20  1  0.52712500  0.69375300  0.21040500  1
  C  C21  1  0.36958000  0.00103500  0.07158600  1
  C  C22  1  0.49880500  0.16296500  0.25496700  1
  C  C23  1  0.51356000  0.74789300  0.68941500  1
  C  C24  1  0.64846400  0.91244700  0.87350500  1
  C  C25  1  0.48329200  0.21401100  0.73101000  1
  C  C26  1  0.33614500  0.90961700  0.88890400  1
  C  C27  1  0.48646400  0.47524700  0.70213700  1
  C  C28  1  0.50155800  0.60426400  0.64768400  1
  C  C29  1  0.51044300  0.59769100  0.55643800  1
  C  C30  1  0.53852000  0.74220400  0.49926400  1
  C  C31  1  0.51896100  0.72582900  0.40412000  1
  C  C32  1  0.48648500  0.34091200  0.66775700  1
  C  C33  1  0.49051900  0.33144000  0.57619600  1
  C  C34  1  0.50045700  0.45962300  0.52043400  1
  C  C35  1  0.50499900  0.45075000  0.42383200  1
  C  C36  1  0.51787400  0.57937000  0.36746900  1
  C  C37  1  0.52309100  0.56844400  0.27569300  1
  C  C38  1  0.48830800  0.18549500  0.53821000  1
  C  C39  1  0.45530700  0.16801000  0.44799800  1
  C  C40  1  0.49014200  0.31067700  0.38864000  1
  C  C41  1  0.50515500  0.30409100  0.29763100  1
  C  C42  1  0.52384400  0.43355300  0.24279200  1
  C  C43  1  0.35447100  0.09696800  0.45193200  1
  C  C44  1  0.29934300  0.15941800  0.51704900  1
  C  C45  1  0.29599700  0.31295700  0.48288000  1
  C  C46  1  0.20609300  0.04736700  0.52955400  1
  C  C47  1  0.10178800  0.11815500  0.19890100  1
  C  C48  1  0.16631800  0.28098500  0.19189100  1
  C  C49  1  0.12130500  0.39541600  0.16931000  1
  C  C50  1  0.20507300  0.31519900  0.27924700  1
  O  O1  1  0.60549600  0.99604100  0.03304300  1
  O  O2  1  0.55014800  0.68505600  0.12654800  1
  O  O3  1  0.68382900  0.95391000  0.14137100  1
  O  O4  1  0.50103200  0.80740900  0.23344900  1
  O  O5  1  0.39778200  0.88635100  0.08806600  1
  O  O6  1  0.41578900  0.13828300  0.09029500  1
  O  O7  1  0.55428500  0.16574400  0.18637100  1
  O  O8  1  0.43145500  0.03885000  0.27637700  1
  O  O9  1  0.46065000  0.75246800  0.75876200  1
  O  O10  1  0.58253400  0.86775700  0.66405100  1
  O  O11  1  0.62254200  0.02851300  0.85352900  1
  O  O12  1  0.60138300  0.77492900  0.85598900  1
  O  O13  1  0.32182600  0.89611800  0.80542100  1
  O  O14  1  0.51959700  0.11143600  0.70909800  1
  O  O15  1  0.41573000  0.93034800  0.91126900  1
  O  O16  1  0.45016800  0.21084900  0.81299100  1
