# generated using pymatgen
data_CuH14C14N2O5
_symmetry_space_group_name_H-M   'P 1'
_cell_length_a   12.98050600
_cell_length_b   11.01855800
_cell_length_c   9.53224600
_cell_angle_alpha   90.02056600
_cell_angle_beta   95.44801900
_cell_angle_gamma   90.00595700
_symmetry_Int_Tables_number   1
_chemical_formula_structural   CuH14C14N2O5
_chemical_formula_sum   'Cu2 H28 C28 N4 O10'
_cell_volume   1357.20462214
_cell_formula_units_Z   2
loop_
 _symmetry_equiv_pos_site_id
 _symmetry_equiv_pos_as_xyz
  1  'x, y, z'
loop_
 _atom_site_type_symbol
 _atom_site_label
 _atom_site_symmetry_multiplicity
 _atom_site_fract_x
 _atom_site_fract_y
 _atom_site_fract_z
 _atom_site_occupancy
  Cu  Cu1  1  0.53630000  0.45252600  0.64500600  1
  Cu  Cu2  1  0.53286200  0.44739900  0.36400100  1
  H  H1  1  0.86359100  0.37737200  0.33811900  1
  H  H2  1  0.85202800  0.54124100  0.73998700  1
  H  H3  1  0.02516200  0.34987100  0.24339100  1
  H  H4  1  0.21260100  0.36943400  0.26277600  1
  H  H5  1  0.20872400  0.52470700  0.67135800  1
  H  H6  1  0.49491300  0.84346500  0.29190900  1
  H  H7  1  0.58695800  0.85384400  0.59923500  1
  H  H8  1  0.55294100  0.06405400  0.30417000  1
  H  H9  1  0.40803500  0.55763600  0.86022600  1
  H  H10  1  0.60696500  0.43233000  0.91453500  1
  H  H11  1  0.44541900  0.59787100  0.12368400  1
  H  H12  1  0.54739400  0.36167400  0.10508800  1
  H  H13  1  0.59282200  0.09433600  0.77270600  1
  H  H14  1  0.53425500  0.95510500  0.82062300  1
  H  H15  1  0.43708200  0.20928100  0.82820300  1
  H  H16  1  0.47570800  0.10899600  0.96969100  1
  H  H17  1  0.30686100  0.16848000  0.67360000  1
  H  H18  1  0.22412900  0.04096700  0.69473400  1
  H  H19  1  0.33506700  0.01241000  0.49795300  1
  H  H20  1  0.35606500  0.89835700  0.63416200  1
  H  H21  1  0.05764500  0.44266000  0.93261900  1
  H  H22  1  0.95410600  0.55155100  0.94367500  1
  H  H23  1  0.18544000  0.59927000  0.02110900  1
  H  H24  1  0.08755500  0.57850100  0.13972100  1
  H  H25  1  0.18435600  0.76229600  0.88286600  1
  H  H26  1  0.08515800  0.87542200  0.88606300  1
  H  H27  1  0.05657500  0.74612300  0.67340300  1
  H  H28  1  0.95271700  0.73207900  0.78637200  1
  C  C1  1  0.52795100  0.21659300  0.51027900  1
  C  C2  1  0.33578200  0.45526300  0.48244700  1
  C  C3  1  0.54128200  0.68259100  0.49958300  1
  C  C4  1  0.73343700  0.44611500  0.52644400  1
  C  C5  1  0.84661700  0.45389800  0.54053600  1
  C  C6  1  0.22248500  0.44897900  0.46903900  1
  C  C7  1  0.06461100  0.38897200  0.33771800  1
  C  C8  1  0.17066500  0.40095400  0.34843700  1
  C  C9  1  0.16718200  0.48706700  0.57783900  1
  C  C10  1  0.06010300  0.47760400  0.56598500  1
  C  C11  1  0.00917100  0.42723400  0.44595400  1
  C  C12  1  0.90272500  0.41639400  0.43268700  1
  C  C13  1  0.89715800  0.50557600  0.65996000  1
  C  C14  1  0.00371900  0.51907700  0.67276000  1
  C  C15  1  0.52232600  0.88484400  0.39169200  1
  C  C16  1  0.55199500  0.81463200  0.50226000  1
  C  C17  1  0.53290700  0.01831700  0.39843100  1
  C  C18  1  0.51673700  0.08352900  0.51348000  1
  C  C19  1  0.47180300  0.51199800  0.92004400  1
  C  C20  1  0.48235400  0.52238000  0.07561800  1
  C  C21  1  0.51829700  0.04507000  0.77115100  1
  C  C22  1  0.44391600  0.11231500  0.85758800  1
  C  C23  1  0.30585300  0.07170600  0.70523000  1
  C  C24  1  0.36571400  0.99568400  0.60882800  1
  C  C25  1  0.03624500  0.53999700  0.92407800  1
  C  C26  1  0.10215600  0.61224500  0.03407400  1
  C  C27  1  0.10097200  0.77663400  0.89406400  1
  C  C28  1  0.03552600  0.71262600  0.77659900  1
  N  N1  1  0.53935400  0.45473000  0.85526600  1
  N  N2  1  0.53056800  0.44147700  0.15390700  1
  N  N3  1  0.47361700  0.02673500  0.62837400  1
  N  N4  1  0.05449000  0.58449600  0.78700600  1
  O  O1  1  0.53429100  0.27589700  0.62950600  1
  O  O2  1  0.52675300  0.27155700  0.38816200  1
  O  O3  1  0.38558700  0.45432300  0.60911200  1
  O  O4  1  0.38278400  0.45520200  0.36656100  1
  O  O5  1  0.54538800  0.62800800  0.62174800  1
  O  O6  1  0.53239700  0.62430900  0.37890300  1
  O  O7  1  0.68613700  0.44212000  0.64124600  1
  O  O8  1  0.68352100  0.44904900  0.40062600  1
  O  O9  1  0.34684600  0.05613900  0.84507200  1
  O  O10  1  0.07537900  0.73530600  0.02519800  1
