# generated using pymatgen
data_CuH11C18NO4
_symmetry_space_group_name_H-M   'P 1'
_cell_length_a   15.95947900
_cell_length_b   14.54383900
_cell_length_c   10.93377100
_cell_angle_alpha   90.00000000
_cell_angle_beta   89.99000000
_cell_angle_gamma   90.00000000
_symmetry_Int_Tables_number   1
_chemical_formula_structural   CuH11C18NO4
_chemical_formula_sum   'Cu2 H22 C36 N2 O8'
_cell_volume   2537.86043363
_cell_formula_units_Z   2
loop_
 _symmetry_equiv_pos_site_id
 _symmetry_equiv_pos_as_xyz
  1  'x, y, z'
loop_
 _atom_site_type_symbol
 _atom_site_label
 _atom_site_symmetry_multiplicity
 _atom_site_fract_x
 _atom_site_fract_y
 _atom_site_fract_z
 _atom_site_occupancy
  Cu  Cu1  1  0.50000000  0.59158800  0.50000000  1
  Cu  Cu2  1  0.50000000  0.41273500  0.50000000  1
  H  H1  1  0.56500100  0.66815500  0.20199800  1
  H  H2  1  0.43499900  0.66815500  0.79800100  1
  H  H3  1  0.53531600  0.81075900  0.09975400  1
  H  H4  1  0.46468400  0.81075900  0.90024600  1
  H  H5  1  0.07701200  0.64678400  0.49627600  1
  H  H6  1  0.92298700  0.64678400  0.50372500  1
  H  H7  1  0.92296600  0.35380900  0.50372100  1
  H  H8  1  0.07703300  0.35380900  0.49627800  1
  H  H9  1  0.59138300  0.08670900  0.64201700  1
  H  H10  1  0.40861700  0.08670900  0.35798300  1
  H  H11  1  0.59138400  0.91757100  0.64201100  1
  H  H12  1  0.40861600  0.91757100  0.35798900  1
  H  H13  1  0.56348200  0.21125800  0.11415700  1
  H  H14  1  0.61362300  0.31967200  0.15113500  1
  H  H15  1  0.55439900  0.25706300  0.26506400  1
  H  H16  1  0.43698100  0.33866200  0.20908100  1
  H  H17  1  0.44011300  0.28129700  0.07238700  1
  H  H18  1  0.43651800  0.21125800  0.88584300  1
  H  H19  1  0.38637700  0.31967200  0.84886500  1
  H  H20  1  0.44560100  0.25706300  0.73493600  1
  H  H21  1  0.56301900  0.33866200  0.79091900  1
  H  H22  1  0.55988600  0.28129700  0.92761300  1
  C  C1  1  0.34165600  0.50191000  0.49146100  1
  C  C2  1  0.65834400  0.50191000  0.50853900  1
  C  C3  1  0.50652700  0.50181300  0.26665600  1
  C  C4  1  0.49347300  0.50181300  0.73334300  1
  C  C5  1  0.53338000  0.66462000  0.11505000  1
  C  C6  1  0.46661900  0.66462000  0.88495000  1
  C  C7  1  0.51918900  0.74651300  0.05596500  1
  C  C8  1  0.48081000  0.74651300  0.94403500  1
  C  C9  1  0.48957400  0.58136200  0.93828000  1
  C  C10  1  0.51042600  0.58136200  0.06171900  1
  C  C11  1  0.50726700  0.49950500  0.12913300  1
  C  C12  1  0.49273300  0.49950500  0.87086700  1
  C  C13  1  0.49826500  0.41637400  0.06421700  1
  C  C14  1  0.50173500  0.41637400  0.93578300  1
  C  C15  1  0.95682900  0.58240700  0.50219300  1
  C  C16  1  0.04317100  0.58240700  0.49780700  1
  C  C17  1  0.91364400  0.50030600  0.50447600  1
  C  C18  1  0.08635600  0.50030600  0.49552400  1
  C  C19  1  0.95681600  0.41818000  0.50219100  1
  C  C20  1  0.04318400  0.41818000  0.49780800  1
  C  C21  1  0.82375200  0.50044900  0.50767800  1
  C  C22  1  0.17624800  0.50044900  0.49232200  1
  C  C23  1  0.25174600  0.50092300  0.49092500  1
  C  C24  1  0.74825300  0.50092300  0.50907500  1
  C  C25  1  0.55122700  0.95473600  0.57960700  1
  C  C26  1  0.44877300  0.95473600  0.42039300  1
  C  C27  1  0.50000000  0.90732700  0.50000000  1
  C  C28  1  0.44877400  0.04955300  0.42039300  1
  C  C29  1  0.55122500  0.04955300  0.57960700  1
  C  C30  1  0.50000000  0.09696200  0.50000000  1
  C  C31  1  0.50000000  0.80865600  0.50000000  1
  C  C32  1  0.50000000  0.19562900  0.50000000  1
  C  C33  1  0.47858400  0.32707200  0.12958200  1
  C  C34  1  0.55780200  0.27588200  0.16728800  1
  C  C35  1  0.52141500  0.32707200  0.87041800  1
  C  C36  1  0.44219800  0.27588200  0.83271200  1
  N  N1  1  0.50000000  0.27521100  0.50000000  1
  N  N2  1  0.50000000  0.72910400  0.50000000  1
  O  O1  1  0.37977700  0.57761900  0.52778800  1
  O  O2  1  0.62022200  0.57761900  0.47221200  1
  O  O3  1  0.38172300  0.42663500  0.45791700  1
  O  O4  1  0.61827600  0.42663500  0.54208300  1
  O  O5  1  0.48079700  0.57710100  0.32442200  1
  O  O6  1  0.51920200  0.57710100  0.67557800  1
  O  O7  1  0.52913600  0.42724900  0.32746900  1
  O  O8  1  0.47086400  0.42724900  0.67253100  1
