# generated using pymatgen
data_Fe2H20C46O19
_symmetry_space_group_name_H-M   'P 1'
_cell_length_a   14.35253300
_cell_length_b   12.26663000
_cell_length_c   13.37411200
_cell_angle_alpha   81.07852600
_cell_angle_beta   92.97739400
_cell_angle_gamma   114.67912200
_symmetry_Int_Tables_number   1
_chemical_formula_structural   Fe2H20C46O19
_chemical_formula_sum   'Fe2 H20 C46 O19'
_cell_volume   2113.44002577
_cell_formula_units_Z   1
loop_
 _symmetry_equiv_pos_site_id
 _symmetry_equiv_pos_as_xyz
  1  'x, y, z'
loop_
 _atom_site_type_symbol
 _atom_site_label
 _atom_site_symmetry_multiplicity
 _atom_site_fract_x
 _atom_site_fract_y
 _atom_site_fract_z
 _atom_site_occupancy
  Fe  Fe1  1  0.50924700  0.01200800  0.14311000  1
  Fe  Fe2  1  0.52062000  0.03490200  0.70410300  1
  H  H1  1  0.13185800  0.91670800  0.73678600  1
  H  H2  1  0.99182400  0.89343700  0.83787100  1
  H  H3  1  0.99066200  0.07702400  0.84290700  1
  H  H4  1  0.83834100  0.08382200  0.76763700  1
  H  H5  1  0.24393900  0.94055600  0.15883200  1
  H  H6  1  0.92917600  0.90150500  0.27498400  1
  H  H7  1  0.78386200  0.91810700  0.20433000  1
  H  H8  1  0.42856500  0.85850800  0.44589700  1
  H  H9  1  0.52532800  0.15200700  0.40687300  1
  H  H10  1  0.42681000  0.37097300  0.19877300  1
  H  H11  1  0.52541800  0.44719000  0.59030600  1
  H  H12  1  0.40495800  0.58657600  0.74588000  1
  H  H13  1  0.52168000  0.66240800  0.81327400  1
  H  H14  1  0.47795700  0.50361700  0.80180100  1
  H  H15  1  0.23291600  0.47700100  0.37774900  1
  H  H16  1  0.17663100  0.39778300  0.27186300  1
  H  H17  1  0.21502100  0.55960900  0.25917600  1
  H  H18  1  0.13981000  0.76150200  0.29048100  1
  H  H19  1  0.08247100  0.76910600  0.40471500  1
  H  H20  1  0.21671200  0.86363500  0.37688800  1
  C  C1  1  0.24422900  0.96353600  0.85355000  1
  C  C2  1  0.14680500  0.93200600  0.81456200  1
  C  C3  1  0.06638500  0.92297700  0.87213600  1
  C  C4  1  0.92182500  0.03667800  0.88901700  1
  C  C5  1  0.25618200  0.96927100  0.95725000  1
  C  C6  1  0.17202300  0.95452200  0.01573300  1
  C  C7  1  0.08064300  0.94795200  0.97086100  1
  C  C8  1  0.00320200  0.95420200  0.02879300  1
  C  C9  1  0.83597100  0.04694200  0.84675400  1
  C  C10  1  0.74740900  0.00688200  0.90321000  1
  C  C11  1  0.91940400  0.97816900  0.98723300  1
  C  C12  1  0.83602600  0.95758200  0.04854600  1
  C  C13  1  0.74930400  0.97157000  0.00639300  1
  C  C14  1  0.17841100  0.94489200  0.11972900  1
  C  C15  1  0.09805500  0.93164400  0.17865000  1
  C  C16  1  0.01048000  0.93696300  0.13374600  1
  C  C17  1  0.92915800  0.92205000  0.19365200  1
  C  C18  1  0.84264900  0.92926800  0.15193100  1
  C  C19  1  0.66249100  0.95862000  0.06912300  1
  C  C20  1  0.44082000  0.78625300  0.27790000  1
  C  C21  1  0.35815200  0.00460900  0.00399600  1
  C  C22  1  0.46747200  0.17602400  0.22623100  1
  C  C23  1  0.51002300  0.83863500  0.61976400  1
  C  C24  1  0.65270100  0.00056700  0.85189800  1
  C  C25  1  0.51177900  0.23382400  0.57148000  1
  C  C26  1  0.32824500  0.98201600  0.78336400  1
  C  C27  1  0.43217900  0.71187200  0.37924100  1
  C  C28  1  0.43913200  0.77528800  0.45869000  1
  C  C29  1  0.47472900  0.74682200  0.55157500  1
  C  C30  1  0.49889100  0.64848900  0.56930800  1
  C  C31  1  0.48032200  0.57334500  0.49529000  1
  C  C32  1  0.44365900  0.60125900  0.40019800  1
  C  C33  1  0.49785900  0.46939800  0.51726000  1
  C  C34  1  0.48762500  0.39670700  0.44495800  1
  C  C35  1  0.45595100  0.42575200  0.34877500  1
  C  C36  1  0.42173300  0.51863700  0.33064500  1
  C  C37  1  0.50758900  0.29368600  0.46812300  1
  C  C38  1  0.51161300  0.23309000  0.39135100  1
  C  C39  1  0.48546300  0.26389300  0.29507700  1
  C  C40  1  0.45231600  0.35545100  0.27448800  1
  C  C41  1  0.54428500  0.62641800  0.66728900  1
  C  C42  1  0.48332200  0.59282300  0.76303900  1
  C  C43  1  0.33790200  0.50451300  0.25779600  1
  C  C44  1  0.23438000  0.48374300  0.29416900  1
  C  C45  1  0.11221700  0.92065100  0.28893800  1
  C  C46  1  0.13967900  0.82262300  0.34342500  1
  O  O1  1  0.62597800  0.04233100  0.05382800  1
  O  O2  1  0.41947600  0.74150000  0.19280100  1
  O  O3  1  0.61753500  0.86070600  0.13474700  1
  O  O4  1  0.48257700  0.90472800  0.27512100  1
  O  O5  1  0.38020300  0.92624800  0.06875700  1
  O  O6  1  0.42176000  0.11972700  0.99236300  1
  O  O7  1  0.54406500  0.17969000  0.17375400  1
  O  O8  1  0.38763300  0.07241200  0.24610600  1
  O  O9  1  0.44518200  0.87415000  0.65513400  1
  O  O10  1  0.60889900  0.90268000  0.62761400  1
  O  O11  1  0.65832200  0.07460100  0.76827200  1
  O  O12  1  0.56398700  0.91186900  0.88156900  1
  O  O13  1  0.30572300  0.95976900  0.69022000  1
  O  O14  1  0.55776300  0.16014100  0.58255300  1
  O  O15  1  0.42504100  0.02496500  0.81038500  1
  O  O16  1  0.44906500  0.22710100  0.64249900  1
  O  O17  1  0.63233000  0.63559600  0.67068900  1
  O  O18  1  0.35142500  0.50895200  0.16767000  1
  O  O19  1  0.10711600  0.99575100  0.33586300  1
