# generated using pymatgen
data_Fe2H42C69(NO10)2
_symmetry_space_group_name_H-M   'P 1'
_cell_length_a   9.39346800
_cell_length_b   18.53610200
_cell_length_c   19.53204900
_cell_angle_alpha   108.57874100
_cell_angle_beta   84.54361100
_cell_angle_gamma   91.89797500
_symmetry_Int_Tables_number   1
_chemical_formula_structural   Fe2H42C69(NO10)2
_chemical_formula_sum   'Fe2 H42 C69 N2 O20'
_cell_volume   3209.03413780
_cell_formula_units_Z   1
loop_
 _symmetry_equiv_pos_site_id
 _symmetry_equiv_pos_as_xyz
  1  'x, y, z'
loop_
 _atom_site_type_symbol
 _atom_site_label
 _atom_site_symmetry_multiplicity
 _atom_site_fract_x
 _atom_site_fract_y
 _atom_site_fract_z
 _atom_site_occupancy
  Fe  Fe1  1  0.34515800  0.15020900  0.53326600  1
  Fe  Fe2  1  0.39652500  0.17184200  0.81243900  1
  H  H1  1  0.80890300  0.27231000  0.33562900  1
  H  H2  1  0.77149700  0.38884600  0.31092600  1
  H  H3  1  0.78356900  0.39159800  0.18587000  1
  H  H4  1  0.83393500  0.27797600  0.08542100  1
  H  H5  1  0.93135700  0.00087700  0.99437500  1
  H  H6  1  0.97099500  0.88484100  0.01844500  1
  H  H7  1  0.90910000  0.99596700  0.24475100  1
  H  H8  1  0.09407000  0.14051900  0.30412800  1
  H  H9  1  0.88624600  0.13096200  0.50427700  1
  H  H10  1  0.64009900  0.13234800  0.33140500  1
  H  H11  1  0.10058300  0.13930200  0.99771800  1
  H  H12  1  0.85309900  0.15441300  0.82994600  1
  H  H13  1  0.64581800  0.13862100  0.02766600  1
  H  H14  1  0.87084200  0.83115600  0.80678100  1
  H  H15  1  0.04209700  0.74494400  0.82316800  1
  H  H16  1  0.88721500  0.48783900  0.51365900  1
  H  H17  1  0.75205400  0.58280000  0.48645300  1
  H  H18  1  0.23360400  0.39738500  0.61840300  1
  H  H19  1  0.06834600  0.53063000  0.83160400  1
  H  H20  1  0.68782900  0.94412500  0.67853600  1
  H  H21  1  0.42647000  0.76548600  0.55680500  1
  H  H22  1  0.05017300  0.77313100  0.22470900  1
  H  H23  1  0.14681400  0.74331500  0.13550500  1
  H  H24  1  0.24022900  0.79083000  0.21449900  1
  H  H25  1  0.19654500  0.87805500  0.14479200  1
  H  H26  1  0.10501000  0.90847900  0.23497600  1
  H  H27  1  0.87870400  0.85213500  0.18578800  1
  H  H28  1  0.97051100  0.81370200  0.09663300  1
  H  H29  1  0.09503500  0.41268100  0.02649400  1
  H  H30  1  0.05552700  0.51227400  0.04371400  1
  H  H31  1  0.91155100  0.44394400  0.03796100  1
  H  H32  1  0.94658900  0.47822600  0.92578700  1
  H  H33  1  0.99180900  0.37989100  0.90810700  1
  H  H34  1  0.25598800  0.42685000  0.92456500  1
  H  H35  1  0.19489100  0.51676100  0.92671900  1
  H  H36  1  0.00480300  0.84694300  0.45502000  1
  H  H37  1  0.99807100  0.77542800  0.50052200  1
  H  H38  1  0.89109600  0.86054000  0.53815400  1
  H  H39  1  0.10720300  0.86552000  0.60459700  1
  H  H40  1  0.10541800  0.93949700  0.56281000  1
  H  H41  1  0.27381700  0.86407800  0.46023700  1
  H  H42  1  0.25643200  0.78570800  0.49375300  1
  C  C1  1  0.81404200  0.26993200  0.27954700  1
  C  C2  1  0.79268000  0.33709600  0.26619800  1
  C  C3  1  0.79928000  0.33861700  0.19620700  1
  C  C4  1  0.82716200  0.27297600  0.13917700  1
  C  C5  1  0.84787400  0.20443900  0.15175100  1
  C  C6  1  0.84118700  0.20293700  0.22244800  1
  C  C7  1  0.87720000  0.13804700  0.09429000  1
  C  C8  1  0.90008900  0.07018100  0.10746500  1
  C  C9  1  0.89390100  0.06871200  0.17814600  1
  C  C10  1  0.86372200  0.13502400  0.23560300  1
  C  C11  1  0.92707600  0.00321900  0.05042900  1
  C  C12  1  0.94961300  0.93612100  0.06369100  1
  C  C13  1  0.94498700  0.93456700  0.13379000  1
  C  C14  1  0.91612000  0.00036800  0.19077900  1
  C  C15  1  0.99724600  0.13718600  0.33764400  1
  C  C16  1  0.00399500  0.13478900  0.40695600  1
  C  C17  1  0.87973000  0.13061100  0.44926100  1
  C  C18  1  0.74801900  0.13148200  0.42328600  1
  C  C19  1  0.74183800  0.13250100  0.35305400  1
  C  C20  1  0.86689700  0.13441600  0.31013700  1
  C  C21  1  0.99868200  0.14101500  0.97683800  1
  C  C22  1  0.99215600  0.14510400  0.90762400  1
  C  C23  1  0.86045000  0.15005900  0.88334600  1
  C  C24  1  0.73641100  0.14745200  0.92622500  1
  C  C25  1  0.74299200  0.14033100  0.99378800  1
  C  C26  1  0.87368100  0.13900400  0.01987300  1
  C  C27  1  0.61727000  0.13430900  0.47159900  1
  C  C28  1  0.35618900  0.01309200  0.55845300  1
  C  C29  1  0.14174900  0.14267800  0.43744800  1
  C  C30  1  0.27519700  0.27335500  0.65330600  1
  C  C31  1  0.69971300  0.72477000  0.57435000  1
  C  C32  1  0.71746000  0.80471300  0.69327100  1
  C  C33  1  0.81751300  0.75669100  0.70302700  1
  C  C34  1  0.84453100  0.68762900  0.65110900  1
  C  C35  1  0.78092700  0.67018100  0.58747600  1
  C  C36  1  0.88820500  0.77660900  0.76537900  1
  C  C37  1  0.98674500  0.72768800  0.77444100  1
  C  C38  1  0.00566300  0.65599600  0.72425800  1
  C  C39  1  0.93212400  0.63576000  0.66360400  1
  C  C40  1  0.94492500  0.56306500  0.61620000  1
  C  C41  1  0.87824000  0.54433200  0.55256700  1
  C  C42  1  0.80116700  0.59856900  0.53702300  1
  C  C43  1  0.09488900  0.60386900  0.73541700  1
  C  C44  1  0.01707800  0.50882900  0.63483700  1
  C  C45  1  0.21708700  0.40783700  0.67619200  1
  C  C46  1  0.25329700  0.35111800  0.70362700  1
  C  C47  1  0.24180700  0.36415300  0.77820400  1
  C  C48  1  0.18171300  0.43202900  0.82411000  1
  C  C49  1  0.12793300  0.48272800  0.79497100  1
  C  C50  1  0.14903100  0.47352000  0.72157400  1
  C  C51  1  0.59965500  0.92361900  0.64586500  1
  C  C52  1  0.50597900  0.97632200  0.63966700  1
  C  C53  1  0.40699100  0.95518400  0.58843000  1
  C  C54  1  0.37878500  0.87765000  0.55792200  1
  C  C55  1  0.45701100  0.82472900  0.57553600  1
  C  C56  1  0.57489700  0.84651000  0.61525200  1
  C  C57  1  0.59842400  0.14983900  0.89876000  1
  C  C58  1  0.49996500  0.05085600  0.69522900  1
  C  C59  1  0.12246200  0.14666600  0.86028500  1
  C  C60  1  0.28479400  0.30436700  0.80676100  1
  C  C61  1  0.96796800  0.86161200  0.14813200  1
  C  C62  1  0.10901600  0.86433000  0.18095600  1
  C  C63  1  0.13822100  0.78781000  0.18940100  1
  C  C64  1  0.17314700  0.45480800  0.90523400  1
  C  C65  1  0.02413500  0.43941400  0.93534800  1
  C  C66  1  0.02169900  0.45300500  0.01619200  1
  C  C67  1  0.25865000  0.84870500  0.51069700  1
  C  C68  1  0.11568800  0.87748700  0.55222400  1
  C  C69  1  0.99471500  0.83734500  0.50849100  1
  N  N1  1  0.66460400  0.79090400  0.62788200  1
  N  N2  1  0.09109700  0.52943800  0.69467700  1
  O  O1  1  0.49158800  0.14443800  0.45188600  1
  O  O2  1  0.34456200  0.99438200  0.48858100  1
  O  O3  1  0.62618700  0.13061800  0.53702900  1
  O  O4  1  0.35489100  0.08591900  0.59651000  1
  O  O5  1  0.15951900  0.11514100  0.49022900  1
  O  O6  1  0.24328600  0.18310100  0.41619200  1
  O  O7  1  0.36705300  0.25875800  0.59551600  1
  O  O8  1  0.19154700  0.21861300  0.66289500  1
  O  O9  1  0.65903600  0.71194000  0.50735200  1
  O  O10  1  0.66948000  0.86363700  0.75057400  1
  O  O11  1  0.18410200  0.62767900  0.78817300  1
  O  O12  1  0.00578200  0.43527500  0.59511600  1
  O  O13  1  0.58138400  0.19381800  0.85908200  1
  O  O14  1  0.49561400  0.10396400  0.90939800  1
  O  O15  1  0.37513000  0.07569800  0.72980800  1
  O  O16  1  0.61789000  0.08515100  0.71973700  1
  O  O17  1  0.21294700  0.29453200  0.86390400  1
  O  O18  1  0.24852300  0.15683700  0.88598300  1
  O  O19  1  0.38908400  0.25729900  0.77268500  1
  O  O20  1  0.11200100  0.14537900  0.79337800  1
