# generated using pymatgen
data_CuH9C13NO5
_symmetry_space_group_name_H-M   'P 1'
_cell_length_a   10.83005600
_cell_length_b   11.01862600
_cell_length_c   9.58194900
_cell_angle_alpha   90.02041800
_cell_angle_beta   90.01100500
_cell_angle_gamma   90.00277200
_symmetry_Int_Tables_number   1
_chemical_formula_structural   CuH9C13NO5
_chemical_formula_sum   'Cu2 H18 C26 N2 O10'
_cell_volume   1143.43626853
_cell_formula_units_Z   2
loop_
 _symmetry_equiv_pos_site_id
 _symmetry_equiv_pos_as_xyz
  1  'x, y, z'
loop_
 _atom_site_type_symbol
 _atom_site_label
 _atom_site_symmetry_multiplicity
 _atom_site_fract_x
 _atom_site_fract_y
 _atom_site_fract_z
 _atom_site_occupancy
  Cu  Cu1  1  0.48665200  0.50516500  0.62827100  1
  Cu  Cu2  1  0.49085300  0.50874500  0.34873800  1
  H  H1  1  0.10053600  0.89180400  0.31521600  1
  H  H2  1  0.21238400  0.28938300  0.56240600  1
  H  H3  1  0.09741700  0.11212900  0.62860300  1
  H  H4  1  0.87207500  0.11777700  0.64351800  1
  H  H5  1  0.76037900  0.29841000  0.58444900  1
  H  H6  1  0.76295700  0.72023100  0.40548100  1
  H  H7  1  0.87491400  0.89411600  0.32578200  1
  H  H8  1  0.21502400  0.71633000  0.38938100  1
  H  H9  1  0.49775000  0.89315200  0.27896500  1
  H  H10  1  0.46491100  0.91162900  0.59715900  1
  H  H11  1  0.48329500  0.11712600  0.27508600  1
  H  H12  1  0.50484300  0.10014700  0.59189300  1
  H  H13  1  0.48223400  0.58699100  0.88038900  1
  H  H14  1  0.35450600  0.38736500  0.12615300  1
  H  H15  1  0.56625100  0.54997000  0.08615600  1
  H  H16  1  0.18970200  0.09989900  0.89203600  1
  H  H17  1  0.34874100  0.06883200  0.93399700  1
  H  H18  1  0.30497400  0.10239400  0.75549300  1
  C  C1  1  0.49301700  0.27382200  0.48572600  1
  C  C2  1  0.25180500  0.50425600  0.48360800  1
  C  C3  1  0.48437000  0.73945000  0.49137000  1
  C  C4  1  0.72562900  0.50975700  0.49336300  1
  C  C5  1  0.11346800  0.29784100  0.56829800  1
  C  C6  1  0.04890700  0.19561100  0.60682900  1
  C  C7  1  0.92255100  0.19850000  0.61423600  1
  C  C8  1  0.85992400  0.30307000  0.58030700  1
  C  C9  1  0.92387600  0.40637500  0.53773200  1
  C  C10  1  0.05182600  0.40428700  0.53278600  1
  C  C11  1  0.86069800  0.50947800  0.49487300  1
  C  C12  1  0.92499600  0.61012700  0.44579500  1
  C  C13  1  0.05296200  0.60867800  0.44164600  1
  C  C14  1  0.11650600  0.50526700  0.48424200  1
  C  C15  1  0.86207600  0.71377300  0.40359400  1
  C  C16  1  0.92524800  0.81412500  0.35790800  1
  C  C17  1  0.05166200  0.81282500  0.35270000  1
  C  C18  1  0.11569000  0.71127200  0.39477800  1
  C  C19  1  0.48911700  0.93839100  0.37860700  1
  C  C20  1  0.47915000  0.87182800  0.49544600  1
  C  C21  1  0.48784900  0.07274900  0.37561500  1
  C  C22  1  0.49580200  0.14082700  0.49027300  1
  C  C23  1  0.44120600  0.41797800  0.92028600  1
  C  C24  1  0.42198400  0.44140500  0.07037400  1
  C  C25  1  0.41867600  0.29345000  0.87421700  1
  C  C26  1  0.28662300  0.12331500  0.86675000  1
  N  N1  1  0.48150700  0.50189400  0.83716800  1
  N  N2  1  0.49442000  0.51054500  0.13982300  1
  O  O1  1  0.49533800  0.32965900  0.60542300  1
  O  O2  1  0.49492400  0.33158500  0.36590200  1
  O  O3  1  0.30785800  0.49685500  0.60413700  1
  O  O4  1  0.31106800  0.51201600  0.36431000  1
  O  O5  1  0.48547100  0.68175300  0.61062100  1
  O  O6  1  0.49354800  0.68439700  0.37096700  1
  O  O7  1  0.66635200  0.50600100  0.61257300  1
  O  O8  1  0.66991900  0.51293300  0.37232200  1
  O  O9  1  0.50633000  0.22796700  0.84728700  1
  O  O10  1  0.30572100  0.24449900  0.89096700  1
