# generated using pymatgen
data_Zn3H28(C25O8)2
_symmetry_space_group_name_H-M   'P 1'
_cell_length_a   37.78287500
_cell_length_b   21.95007700
_cell_length_c   21.90413000
_cell_angle_alpha   90.00000000
_cell_angle_beta   122.34411800
_cell_angle_gamma   90.00000000
_symmetry_Int_Tables_number   1
_chemical_formula_structural   Zn3H28(C25O8)2
_chemical_formula_sum   'Zn12 H112 C200 O64'
_cell_volume   15347.46786102
_cell_formula_units_Z   4
loop_
 _symmetry_equiv_pos_site_id
 _symmetry_equiv_pos_as_xyz
  1  'x, y, z'
loop_
 _atom_site_type_symbol
 _atom_site_label
 _atom_site_symmetry_multiplicity
 _atom_site_fract_x
 _atom_site_fract_y
 _atom_site_fract_z
 _atom_site_occupancy
  Zn  Zn1  1  0.99982500  0.93295600  0.99983200  1
  Zn  Zn2  1  0.49982500  0.43295600  0.99983200  1
  Zn  Zn3  1  0.00020400  0.07096700  0.00026500  1
  Zn  Zn4  1  0.50020400  0.57096700  0.00026500  1
  Zn  Zn5  1  0.49690100  0.99786500  0.56617600  1
  Zn  Zn6  1  0.50319200  0.99788300  0.43403600  1
  Zn  Zn7  1  0.99690100  0.49786500  0.56617600  1
  Zn  Zn8  1  0.00319200  0.49788300  0.43403600  1
  Zn  Zn9  1  0.95258900  0.99782100  0.45733100  1
  Zn  Zn10  1  0.04741000  0.99824700  0.54237100  1
  Zn  Zn11  1  0.45258900  0.49782100  0.45733100  1
  Zn  Zn12  1  0.54741000  0.49824700  0.54237100  1
  H  H1  1  0.27922800  0.93997900  0.35338200  1
  H  H2  1  0.72120800  0.94122800  0.64700500  1
  H  H3  1  0.77922800  0.43997900  0.35338200  1
  H  H4  1  0.22120800  0.44122800  0.64700500  1
  H  H5  1  0.21200500  0.93440700  0.28060900  1
  H  H6  1  0.78846500  0.93657100  0.71978300  1
  H  H7  1  0.71200500  0.43440700  0.28060900  1
  H  H8  1  0.28846500  0.43657100  0.71978300  1
  H  H9  1  0.21306900  0.09461300  0.23638400  1
  H  H10  1  0.78635900  0.09665400  0.76342600  1
  H  H11  1  0.71306900  0.59461300  0.23638400  1
  H  H12  1  0.28635900  0.59665400  0.76342600  1
  H  H13  1  0.21255900  0.04135500  0.29835900  1
  H  H14  1  0.78722100  0.04355300  0.70164700  1
  H  H15  1  0.71255900  0.54135500  0.29835900  1
  H  H16  1  0.28722100  0.54355300  0.70164700  1
  H  H17  1  0.28267800  0.04431100  0.36651200  1
  H  H18  1  0.71708500  0.04551800  0.63349200  1
  H  H19  1  0.78267800  0.54431100  0.36651200  1
  H  H20  1  0.21708500  0.54551800  0.63349200  1
  H  H21  1  0.21529500  0.98382500  0.11317500  1
  H  H22  1  0.78488000  0.98554900  0.88705800  1
  H  H23  1  0.71529500  0.48382500  0.11317500  1
  H  H24  1  0.28488000  0.48554900  0.88705800  1
  H  H25  1  0.22183100  0.06110400  0.14250700  1
  H  H26  1  0.77783100  0.06278800  0.85743300  1
  H  H27  1  0.72183100  0.56110400  0.14250700  1
  H  H28  1  0.27783100  0.56278800  0.85743300  1
  H  H29  1  0.28496000  0.96478100  0.18871200  1
  H  H30  1  0.71534300  0.96555900  0.81161400  1
  H  H31  1  0.78496000  0.46478100  0.18871200  1
  H  H32  1  0.21534300  0.46555900  0.81161400  1
  H  H33  1  0.29150800  0.04492800  0.20020600  1
  H  H34  1  0.70826500  0.04562300  0.79981200  1
  H  H35  1  0.79150800  0.54492800  0.20020600  1
  H  H36  1  0.20826500  0.54562300  0.79981200  1
  H  H37  1  0.89228800  0.86014700  0.09411000  1
  H  H38  1  0.10844700  0.86310100  0.90742400  1
  H  H39  1  0.39228800  0.36014700  0.09411000  1
  H  H40  1  0.60844700  0.36310100  0.90742400  1
  H  H41  1  0.06152200  0.06891600  0.19859800  1
  H  H42  1  0.93762000  0.06986700  0.79957100  1
  H  H43  1  0.56152200  0.56891600  0.19859800  1
  H  H44  1  0.43762000  0.56986700  0.79957100  1
  H  H45  1  0.10111000  0.14268800  0.29126200  1
  H  H46  1  0.89836200  0.14366600  0.70676900  1
  H  H47  1  0.60111000  0.64268800  0.29126200  1
  H  H48  1  0.39836200  0.64366600  0.70676900  1
  H  H49  1  0.08920800  0.15724800  0.38992600  1
  H  H50  1  0.91119100  0.15864000  0.60922700  1
  H  H51  1  0.58920800  0.65724800  0.38992600  1
  H  H52  1  0.41119100  0.65864000  0.60922700  1
  H  H53  1  0.04001600  0.09464900  0.39834300  1
  H  H54  1  0.96076900  0.09615400  0.60183600  1
  H  H55  1  0.54001600  0.59464900  0.39834300  1
  H  H56  1  0.46076900  0.59615400  0.60183600  1
  H  H57  1  0.95232600  0.90419700  0.31493700  1
  H  H58  1  0.04694900  0.90359000  0.68548200  1
  H  H59  1  0.45232600  0.40419700  0.31493700  1
  H  H60  1  0.54694900  0.40359000  0.68548200  1
  H  H61  1  0.90306000  0.84352800  0.21363900  1
  H  H62  1  0.09673200  0.84413500  0.78760300  1
  H  H63  1  0.40306000  0.34352800  0.21363900  1
  H  H64  1  0.59673200  0.34413500  0.78760300  1
  H  H65  1  0.93294400  0.93436200  0.07753800  1
  H  H66  1  0.06804100  0.93818600  0.92342200  1
  H  H67  1  0.43294400  0.43436200  0.07753800  1
  H  H68  1  0.56804100  0.43818600  0.92342200  1
  H  H69  1  0.59721200  0.80017600  0.74188700  1
  H  H70  1  0.40153200  0.80292000  0.25910000  1
  H  H71  1  0.09721200  0.30017600  0.74188700  1
  H  H72  1  0.90153200  0.30292000  0.25910000  1
  H  H73  1  0.43785400  0.85710100  0.37098600  1
  H  H74  1  0.56144100  0.85556500  0.63081600  1
  H  H75  1  0.93785400  0.35710100  0.37098600  1
  H  H76  1  0.06144100  0.35556500  0.63081600  1
  H  H77  1  0.96042100  0.13826000  0.36480900  1
  H  H78  1  0.03739000  0.13683000  0.63350900  1
  H  H79  1  0.46042100  0.63826000  0.36480900  1
  H  H80  1  0.53739000  0.63683000  0.63350900  1
  H  H81  1  0.39104100  0.19369300  0.53170800  1
  H  H82  1  0.61018400  0.19336200  0.46810500  1
  H  H83  1  0.89104100  0.69369300  0.53170800  1
  H  H84  1  0.11018400  0.69336200  0.46810500  1
  H  H85  1  0.56736500  0.13856600  0.49966400  1
  H  H86  1  0.43347600  0.13891000  0.49930000  1
  H  H87  1  0.06736500  0.63856600  0.49966400  1
  H  H88  1  0.93347600  0.63891000  0.49930000  1
  H  H89  1  0.09907500  0.80255200  0.44051800  1
  H  H90  1  0.90279500  0.80261200  0.56069300  1
  H  H91  1  0.59907500  0.30255200  0.44051800  1
  H  H92  1  0.40279500  0.30261200  0.56069300  1
  H  H93  1  0.04746500  0.85735300  0.45026100  1
  H  H94  1  0.95468000  0.85721500  0.55150900  1
  H  H95  1  0.54746500  0.35735300  0.45026100  1
  H  H96  1  0.45468000  0.35721500  0.55150900  1
  H  H97  1  0.19004600  0.85163700  0.20215400  1
  H  H98  1  0.81097200  0.85397400  0.79854200  1
  H  H99  1  0.69004600  0.35163700  0.20215400  1
  H  H100  1  0.31097200  0.35397400  0.79854200  1
  H  H101  1  0.29528800  0.87493100  0.24504600  1
  H  H102  1  0.70559100  0.87568100  0.75560300  1
  H  H103  1  0.79528800  0.37493100  0.24504600  1
  H  H104  1  0.20559100  0.37568100  0.75560300  1
  H  H105  1  0.88714700  0.21082500  0.18667000  1
  H  H106  1  0.11081000  0.20734600  0.81285500  1
  H  H107  1  0.38714700  0.71082500  0.18667000  1
  H  H108  1  0.61081000  0.70734600  0.81285500  1
  H  H109  1  0.28002900  0.12967200  0.25133900  1
  H  H110  1  0.71916300  0.13066700  0.74832200  1
  H  H111  1  0.78002900  0.62967200  0.25133900  1
  H  H112  1  0.21916300  0.63066700  0.74832200  1
  C  C1  1  0.99771800  0.00073500  0.11747500  1
  C  C2  1  0.00229900  0.00318000  0.88252800  1
  C  C3  1  0.49771800  0.50073500  0.11747500  1
  C  C4  1  0.50229900  0.50318000  0.88252800  1
  C  C5  1  0.08194200  0.00049600  0.07916000  1
  C  C6  1  0.91811800  0.00340900  0.92099200  1
  C  C7  1  0.58194200  0.50049600  0.07916000  1
  C  C8  1  0.41811800  0.50340900  0.92099200  1
  C  C9  1  0.22533100  0.93871600  0.24636600  1
  C  C10  1  0.77511700  0.94059000  0.75401800  1
  C  C11  1  0.72533100  0.43871600  0.24636600  1
  C  C12  1  0.27511700  0.44059000  0.75401800  1
  C  C13  1  0.22493500  0.04988300  0.26326100  1
  C  C14  1  0.77479200  0.05179700  0.73671700  1
  C  C15  1  0.72493500  0.54988300  0.26326100  1
  C  C16  1  0.27479200  0.55179700  0.73671700  1
  C  C17  1  0.27253500  0.05076200  0.30917700  1
  C  C18  1  0.72718500  0.05200800  0.69080200  1
  C  C19  1  0.77253500  0.55076200  0.30917700  1
  C  C20  1  0.22718500  0.55200800  0.69080200  1
  C  C21  1  0.37338600  0.99825100  0.37027700  1
  C  C22  1  0.62667600  0.99815600  0.62992500  1
  C  C23  1  0.87338600  0.49825100  0.37027700  1
  C  C24  1  0.12667600  0.49815600  0.62992500  1
  C  C25  1  0.21048000  0.99979700  0.20698400  1
  C  C26  1  0.78957800  0.00181400  0.79317800  1
  C  C27  1  0.71048000  0.49979700  0.20698400  1
  C  C28  1  0.28957800  0.50181400  0.79317800  1
  C  C29  1  0.27275900  0.93965000  0.29769400  1
  C  C30  1  0.72768600  0.94087600  0.70269800  1
  C  C31  1  0.77275900  0.43965000  0.29769400  1
  C  C32  1  0.22768600  0.44087600  0.70269800  1
  C  C33  1  0.28984200  0.99856900  0.28659100  1
  C  C34  1  0.71022000  0.99948800  0.71359100  1
  C  C35  1  0.78984200  0.49856900  0.28659100  1
  C  C36  1  0.21022000  0.49948800  0.71359100  1
  C  C37  1  0.27602800  0.00525700  0.20753800  1
  C  C38  1  0.72400200  0.00621800  0.79262500  1
  C  C39  1  0.77602800  0.50525700  0.20753800  1
  C  C40  1  0.22400200  0.50621800  0.79262500  1
  C  C41  1  0.22898800  0.01328100  0.16160200  1
  C  C42  1  0.77098800  0.01489600  0.83851900  1
  C  C43  1  0.72898800  0.51328100  0.16160200  1
  C  C44  1  0.27098800  0.51489600  0.83851900  1
  C  C45  1  0.33566700  0.99837800  0.33234900  1
  C  C46  1  0.66439600  0.99868400  0.66784700  1
  C  C47  1  0.83566700  0.49837800  0.33234900  1
  C  C48  1  0.16439600  0.49868400  0.66784700  1
  C  C49  1  0.16465500  0.00022600  0.16102500  1
  C  C50  1  0.83540200  0.00280800  0.83913000  1
  C  C51  1  0.66465500  0.50022600  0.16102500  1
  C  C52  1  0.33540200  0.50280800  0.83913000  1
  C  C53  1  0.12691600  0.00042900  0.12347200  1
  C  C54  1  0.87314100  0.00329200  0.87668000  1
  C  C55  1  0.62691600  0.50042900  0.12347200  1
  C  C56  1  0.37314100  0.50329200  0.87668000  1
  C  C57  1  0.05461100  0.07351100  0.24013700  1
  C  C58  1  0.94493600  0.07466900  0.75856100  1
  C  C59  1  0.55461100  0.57351100  0.24013700  1
  C  C60  1  0.44493600  0.57466900  0.75856100  1
  C  C61  1  0.07812600  0.11524400  0.29364900  1
  C  C62  1  0.92157200  0.11635700  0.70490300  1
  C  C63  1  0.57812600  0.61524400  0.29364900  1
  C  C64  1  0.42157200  0.61635700  0.70490300  1
  C  C65  1  0.07171100  0.12306800  0.34905200  1
  C  C66  1  0.92849000  0.12439000  0.65011600  1
  C  C67  1  0.57171100  0.62306800  0.34905200  1
  C  C68  1  0.42849000  0.62439000  0.65011600  1
  C  C69  1  0.04391400  0.08617700  0.35379900  1
  C  C70  1  0.95647200  0.08751200  0.64589900  1
  C  C71  1  0.54391400  0.58617700  0.35379900  1
  C  C72  1  0.45647200  0.58751200  0.64589900  1
  C  C73  1  0.02164800  0.04124800  0.30222600  1
  C  C74  1  0.97845300  0.04243300  0.69743200  1
  C  C75  1  0.52164800  0.54124800  0.30222600  1
  C  C76  1  0.47845300  0.54243300  0.69743200  1
  C  C77  1  0.02427600  0.03860700  0.24160100  1
  C  C78  1  0.97560400  0.04000800  0.75784200  1
  C  C79  1  0.52427600  0.53860700  0.24160100  1
  C  C80  1  0.47560400  0.54000800  0.75784200  1
  C  C81  1  0.99690400  0.99935200  0.31064000  1
  C  C82  1  0.00309400  0.00015000  0.68921400  1
  C  C83  1  0.49690400  0.49935200  0.31064000  1
  C  C84  1  0.50309400  0.50015000  0.68921400  1
  C  C85  1  0.97178100  0.95878000  0.25509300  1
  C  C86  1  0.02816700  0.95980600  0.74512000  1
  C  C87  1  0.47178100  0.45878000  0.25509300  1
  C  C88  1  0.52816700  0.45980600  0.74512000  1
  C  C89  1  0.96949200  0.96287000  0.18995800  1
  C  C90  1  0.03070000  0.96479600  0.81040000  1
  C  C91  1  0.46949200  0.46287000  0.18995800  1
  C  C92  1  0.53070000  0.46479600  0.81040000  1
  C  C93  1  0.99706400  0.00090200  0.18399700  1
  C  C94  1  0.00296300  0.00282100  0.81595400  1
  C  C95  1  0.49706400  0.50090200  0.18399700  1
  C  C96  1  0.50296300  0.50282100  0.81595400  1
  C  C97  1  0.94892400  0.91363500  0.26376700  1
  C  C98  1  0.05077700  0.91404600  0.73676200  1
  C  C99  1  0.44892400  0.41363500  0.26376700  1
  C  C100  1  0.55077700  0.41404600  0.73676200  1
  C  C101  1  0.92103800  0.87785700  0.20645900  1
  C  C102  1  0.07891500  0.87890600  0.79454300  1
  C  C103  1  0.42103800  0.37785700  0.20645900  1
  C  C104  1  0.57891500  0.37890600  0.79454300  1
  C  C105  1  0.91523300  0.88684400  0.13980000  1
  C  C106  1  0.08523300  0.88918300  0.86135800  1
  C  C107  1  0.41523300  0.38684400  0.13980000  1
  C  C108  1  0.58523300  0.38918300  0.86135800  1
  C  C109  1  0.93929800  0.92880800  0.13140200  1
  C  C110  1  0.06127600  0.93157300  0.86943500  1
  C  C111  1  0.43929800  0.42880800  0.13140200  1
  C  C112  1  0.56127600  0.43157300  0.86943500  1
  C  C113  1  0.49978100  0.87834100  0.50101300  1
  C  C114  1  0.99978100  0.37834100  0.50101300  1
  C  C115  1  0.41829700  0.99809600  0.41574000  1
  C  C116  1  0.58176300  0.99772100  0.58444900  1
  C  C117  1  0.91829700  0.49809600  0.41574000  1
  C  C118  1  0.08176300  0.49772100  0.58444900  1
  C  C119  1  0.50032700  0.11730900  0.49921200  1
  C  C120  1  0.00032700  0.61730900  0.49921200  1
  C  C121  1  0.00093000  0.87865400  0.50064200  1
  C  C122  1  0.50093000  0.37865400  0.50064200  1
  C  C123  1  0.99743100  0.99807300  0.37809500  1
  C  C124  1  0.00255500  0.99831900  0.62169800  1
  C  C125  1  0.49743100  0.49807300  0.37809500  1
  C  C126  1  0.50255500  0.49831900  0.62169800  1
  C  C127  1  0.99907700  0.11733200  0.49904500  1
  C  C128  1  0.49907700  0.61733200  0.49904500  1
  C  C129  1  0.44494600  0.80937700  0.37254400  1
  C  C130  1  0.55402500  0.80790000  0.62848700  1
  C  C131  1  0.94494600  0.30937700  0.37254400  1
  C  C132  1  0.05402500  0.30790000  0.62848700  1
  C  C133  1  0.42320800  0.77849000  0.30804100  1
  C  C134  1  0.57545000  0.77631200  0.69253100  1
  C  C135  1  0.92320800  0.27849000  0.30804100  1
  C  C136  1  0.07545000  0.27631200  0.69253100  1
  C  C137  1  0.92978600  0.21733600  0.30550600  1
  C  C138  1  0.06844500  0.21518100  0.69408100  1
  C  C139  1  0.42978600  0.71733600  0.30550600  1
  C  C140  1  0.56844500  0.71518100  0.69408100  1
  C  C141  1  0.95592200  0.18621200  0.36875800  1
  C  C142  1  0.04221600  0.18478400  0.63031100  1
  C  C143  1  0.45592200  0.68621200  0.36875800  1
  C  C144  1  0.54221600  0.68478400  0.63031100  1
  C  C145  1  0.97629500  0.21639300  0.43494800  1
  C  C146  1  0.02213000  0.21567900  0.56458100  1
  C  C147  1  0.47629500  0.71639300  0.43494800  1
  C  C148  1  0.52213000  0.71567900  0.56458100  1
  C  C149  1  0.47375900  0.77932800  0.43614400  1
  C  C150  1  0.52508100  0.77860100  0.56438000  1
  C  C151  1  0.97375900  0.27932800  0.43614400  1
  C  C152  1  0.02508100  0.27860100  0.56438000  1
  C  C153  1  0.99914600  0.18426500  0.49951000  1
  C  C154  1  0.49914600  0.68426500  0.49951000  1
  C  C155  1  0.49955400  0.81107100  0.50050100  1
  C  C156  1  0.99955400  0.31107100  0.50050100  1
  C  C157  1  0.56090700  0.18639900  0.48788700  1
  C  C158  1  0.44021900  0.18661700  0.51169000  1
  C  C159  1  0.06090700  0.68639900  0.48788700  1
  C  C160  1  0.94021900  0.68661700  0.51169000  1
  C  C161  1  0.58620400  0.21742200  0.47112900  1
  C  C162  1  0.41513800  0.21764800  0.52892900  1
  C  C163  1  0.08620400  0.71742200  0.47112900  1
  C  C164  1  0.91513800  0.71764800  0.52892900  1
  C  C165  1  0.08022200  0.77850200  0.45627700  1
  C  C166  1  0.92147900  0.77858200  0.54456100  1
  C  C167  1  0.58022200  0.27850200  0.45627700  1
  C  C168  1  0.42147900  0.27858200  0.54456100  1
  C  C169  1  0.05104000  0.80953100  0.46338300  1
  C  C170  1  0.95080700  0.80950900  0.53776200  1
  C  C171  1  0.55104000  0.30953100  0.46338300  1
  C  C172  1  0.45080700  0.30950900  0.53776200  1
  C  C173  1  0.02707100  0.77948100  0.48504100  1
  C  C174  1  0.97456900  0.77949100  0.51565200  1
  C  C175  1  0.52707100  0.27948100  0.48504100  1
  C  C176  1  0.47456900  0.27949100  0.51565200  1
  C  C177  1  0.52937500  0.21647700  0.49078500  1
  C  C178  1  0.47190400  0.21654700  0.50911200  1
  C  C179  1  0.02937500  0.71647700  0.49078500  1
  C  C180  1  0.97190400  0.71654700  0.50911200  1
  C  C181  1  0.00088600  0.81148400  0.50049900  1
  C  C182  1  0.50088600  0.31148400  0.50049900  1
  C  C183  1  0.50053300  0.18450000  0.49970100  1
  C  C184  1  0.00053300  0.68450000  0.49970100  1
  C  C185  1  0.20929600  0.88485200  0.19640400  1
  C  C186  1  0.79150900  0.88686700  0.80417900  1
  C  C187  1  0.70929600  0.38485200  0.19640400  1
  C  C188  1  0.29150900  0.38686700  0.80417900  1
  C  C189  1  0.29413100  0.88430000  0.29247300  1
  C  C190  1  0.70668700  0.88517100  0.70814000  1
  C  C191  1  0.79413100  0.38430000  0.29247300  1
  C  C192  1  0.20668700  0.38517100  0.70814000  1
  C  C193  1  0.90809600  0.18569700  0.23570700  1
  C  C194  1  0.08977100  0.18278900  0.76339400  1
  C  C195  1  0.40809600  0.68569700  0.23570700  1
  C  C196  1  0.58977100  0.68278900  0.76339400  1
  C  C197  1  0.28872900  0.11117200  0.30344300  1
  C  C198  1  0.71058800  0.11214100  0.69629200  1
  C  C199  1  0.78872900  0.61117200  0.30344300  1
  C  C200  1  0.21058800  0.61214100  0.69629200  1
  O  O1  1  0.99974200  0.94815700  0.09098400  1
  O  O2  1  0.00167200  0.95075500  0.91079700  1
  O  O3  1  0.49974200  0.44815700  0.09098400  1
  O  O4  1  0.50167200  0.45075500  0.91079700  1
  O  O5  1  0.99670900  0.05313500  0.08767500  1
  O  O6  1  0.00201100  0.05578600  0.91073500  1
  O  O7  1  0.49670900  0.55313500  0.08767500  1
  O  O8  1  0.50201100  0.55578600  0.91073500  1
  O  O9  1  0.06242300  0.94791500  0.06053800  1
  O  O10  1  0.93754400  0.95082500  0.94219800  1
  O  O11  1  0.56242300  0.44791500  0.06053800  1
  O  O12  1  0.43754400  0.45082500  0.94219800  1
  O  O13  1  0.06247400  0.05313900  0.06006100  1
  O  O14  1  0.93767500  0.05595400  0.93740200  1
  O  O15  1  0.56247400  0.55313900  0.06006100  1
  O  O16  1  0.43767500  0.55595400  0.93740200  1
  O  O17  1  0.49746900  0.90684800  0.55148200  1
  O  O18  1  0.50220800  0.90730400  0.45087700  1
  O  O19  1  0.99746900  0.40684800  0.55148200  1
  O  O20  1  0.00220800  0.40730400  0.45087700  1
  O  O21  1  0.43550500  0.99767600  0.48600200  1
  O  O22  1  0.56455800  0.00015700  0.51423400  1
  O  O23  1  0.93550500  0.49767600  0.48600200  1
  O  O24  1  0.06455800  0.50015700  0.51423400  1
  O  O25  1  0.44000900  0.99838100  0.38495100  1
  O  O26  1  0.56005600  0.99518200  0.61519200  1
  O  O27  1  0.94000900  0.49838100  0.38495100  1
  O  O28  1  0.06005600  0.49518200  0.61519200  1
  O  O29  1  0.49949500  0.08840100  0.55095000  1
  O  O30  1  0.50097300  0.08887000  0.44707000  1
  O  O31  1  0.99949500  0.58840100  0.55095000  1
  O  O32  1  0.00097300  0.58887000  0.44707000  1
  O  O33  1  0.96485200  0.90733500  0.46504400  1
  O  O34  1  0.03700600  0.90728700  0.53639700  1
  O  O35  1  0.46485200  0.40733500  0.46504400  1
  O  O36  1  0.53700600  0.40728700  0.53639700  1
  O  O37  1  0.96162000  0.00081500  0.37422600  1
  O  O38  1  0.03839800  0.99898800  0.62554500  1
  O  O39  1  0.46162000  0.50081500  0.37422600  1
  O  O40  1  0.53839800  0.49898800  0.62554500  1
  O  O41  1  0.03378400  0.99531600  0.43952600  1
  O  O42  1  0.96617800  0.99735300  0.56019600  1
  O  O43  1  0.53378400  0.49531600  0.43952600  1
  O  O44  1  0.46617800  0.49735300  0.56019600  1
  O  O45  1  0.96290400  0.08886700  0.46682200  1
  O  O46  1  0.03524100  0.08882100  0.53121000  1
  O  O47  1  0.46290400  0.58886700  0.46682200  1
  O  O48  1  0.53524100  0.58882100  0.53121000  1
  O  O49  1  0.21660900  0.87800500  0.14894500  1
  O  O50  1  0.78425000  0.87979400  0.85167400  1
  O  O51  1  0.71660900  0.37800500  0.14894500  1
  O  O52  1  0.28425000  0.37979400  0.85167400  1
  O  O53  1  0.31164400  0.84943300  0.34363100  1
  O  O54  1  0.68941700  0.85012700  0.65712800  1
  O  O55  1  0.81164400  0.34943300  0.34363100  1
  O  O56  1  0.18941700  0.35012700  0.65712800  1
  O  O57  1  0.91352400  0.13137800  0.23213400  1
  O  O58  1  0.08393100  0.12848300  0.76609100  1
  O  O59  1  0.41352400  0.63137800  0.23213400  1
  O  O60  1  0.58393100  0.62848300  0.76609100  1
  O  O61  1  0.31116100  0.14090400  0.35792100  1
  O  O62  1  0.68795800  0.14162700  0.64169500  1
  O  O63  1  0.81116100  0.64090400  0.35792100  1
  O  O64  1  0.18795800  0.64162700  0.64169500  1
