# generated using pymatgen
data_Zn3H12C36(NO3)4
_symmetry_space_group_name_H-M   'P 1'
_cell_length_a   21.80453000
_cell_length_b   21.80455800
_cell_length_c   35.53107700
_cell_angle_alpha   90.00000000
_cell_angle_beta   90.00000000
_cell_angle_gamma   90.00000000
_symmetry_Int_Tables_number   1
_chemical_formula_structural   Zn3H12C36(NO3)4
_chemical_formula_sum   'Zn12 H48 C144 N16 O48'
_cell_volume   16892.82912724
_cell_formula_units_Z   4
loop_
 _symmetry_equiv_pos_site_id
 _symmetry_equiv_pos_as_xyz
  1  'x, y, z'
loop_
 _atom_site_type_symbol
 _atom_site_label
 _atom_site_symmetry_multiplicity
 _atom_site_fract_x
 _atom_site_fract_y
 _atom_site_fract_z
 _atom_site_occupancy
  Zn  Zn1  1  0.43040600  0.99998000  0.00017700  1
  Zn  Zn2  1  0.00010900  0.43051900  0.99996000  1
  Zn  Zn3  1  0.56940900  0.00008300  0.99990100  1
  Zn  Zn4  1  0.99994200  0.56951900  0.99998300  1
  Zn  Zn5  1  0.93053600  0.50002300  0.50003100  1
  Zn  Zn6  1  0.50001400  0.93041500  0.49986000  1
  Zn  Zn7  1  0.06954000  0.50009800  0.50001300  1
  Zn  Zn8  1  0.50009800  0.06941800  0.50023100  1
  Zn  Zn9  1  0.50000400  0.50000000  0.04252800  1
  Zn  Zn10  1  0.50002400  0.50006700  0.95716400  1
  Zn  Zn11  1  0.00012500  0.00005800  0.54270200  1
  Zn  Zn12  1  0.00000600  0.00004500  0.45733800  1
  H  H1  1  0.56721200  0.69399200  0.04444300  1
  H  H2  1  0.30658000  0.56911200  0.04235400  1
  H  H3  1  0.43370000  0.30657400  0.04386500  1
  H  H4  1  0.69406600  0.43529300  0.04576800  1
  H  H5  1  0.56484300  0.30550100  0.95474500  1
  H  H6  1  0.30554600  0.43252800  0.95636400  1
  H  H7  1  0.43406200  0.69409100  0.95642300  1
  H  H8  1  0.69405700  0.56328400  0.95491900  1
  H  H9  1  0.06376900  0.19408900  0.54495800  1
  H  H10  1  0.80608500  0.06583400  0.54519300  1
  H  H11  1  0.93211800  0.80559600  0.54352000  1
  H  H12  1  0.19355500  0.93305000  0.54338900  1
  H  H13  1  0.06868400  0.80660400  0.45752000  1
  H  H14  1  0.80604800  0.93473000  0.45604900  1
  H  H15  1  0.93576800  0.19410800  0.45411300  1
  H  H16  1  0.19458400  0.06627000  0.45541300  1
  H  H17  1  0.57624200  0.93849900  0.68881600  1
  H  H18  1  0.05523300  0.58060800  0.68869600  1
  H  H19  1  0.42202600  0.05810000  0.68847000  1
  H  H20  1  0.94561400  0.41912800  0.68843800  1
  H  H21  1  0.58148000  0.05628400  0.31157400  1
  H  H22  1  0.05923200  0.42284700  0.31162500  1
  H  H23  1  0.41995200  0.94673500  0.31143200  1
  H  H24  1  0.93972300  0.57713600  0.31122400  1
  H  H25  1  0.07718300  0.43979000  0.18876700  1
  H  H26  1  0.56093000  0.07817600  0.18855900  1
  H  H27  1  0.92276800  0.55913700  0.18837100  1
  H  H28  1  0.44146600  0.92385200  0.18871800  1
  H  H29  1  0.08050600  0.55534400  0.81130300  1
  H  H30  1  0.55347900  0.91809200  0.81175100  1
  H  H31  1  0.91917700  0.44550500  0.81154900  1
  H  H32  1  0.44377800  0.07951300  0.81124600  1
  H  H33  1  0.56905000  0.80626600  0.04338700  1
  H  H34  1  0.19423900  0.57097100  0.04168800  1
  H  H35  1  0.43169800  0.19420300  0.04319400  1
  H  H36  1  0.80638000  0.43331600  0.04464400  1
  H  H37  1  0.56605100  0.19313000  0.95600000  1
  H  H38  1  0.19321800  0.43133000  0.95765200  1
  H  H39  1  0.43286800  0.80639900  0.95722000  1
  H  H40  1  0.80640200  0.56449600  0.95562900  1
  H  H41  1  0.06487300  0.30644300  0.54430500  1
  H  H42  1  0.69373400  0.06784900  0.54402600  1
  H  H43  1  0.93101200  0.69325900  0.54229700  1
  H  H44  1  0.30583500  0.93102200  0.54266900  1
  H  H45  1  0.07063700  0.69427200  0.45825200  1
  H  H46  1  0.69365800  0.93353400  0.45680800  1
  H  H47  1  0.93368500  0.30641100  0.45529400  1
  H  H48  1  0.30688600  0.06727400  0.45654700  1
  C  C1  1  0.50117100  0.88027600  0.00023400  1
  C  C2  1  0.11982100  0.50134000  0.99986900  1
  C  C3  1  0.49864800  0.11981800  0.99980300  1
  C  C4  1  0.88027800  0.49869500  0.00004000  1
  C  C5  1  0.99894900  0.38031200  0.49994500  1
  C  C6  1  0.61984500  0.00099600  0.50028100  1
  C  C7  1  0.00112300  0.61985800  0.50012600  1
  C  C8  1  0.38030000  0.99883300  0.49977700  1
  C  C9  1  0.53918900  0.78170900  0.02434600  1
  C  C10  1  0.21862000  0.54034000  0.02302600  1
  C  C11  1  0.46117000  0.21860300  0.02384900  1
  C  C12  1  0.78176800  0.46207400  0.02499900  1
  C  C13  1  0.53675500  0.21800400  0.97521700  1
  C  C14  1  0.21805000  0.46180900  0.97618400  1
  C  C15  1  0.46258400  0.78178200  0.97631800  1
  C  C16  1  0.78178100  0.53589300  0.97535500  1
  C  C17  1  0.03630200  0.28182000  0.52456200  1
  C  C18  1  0.71835300  0.03837100  0.52479100  1
  C  C19  1  0.96145800  0.71808900  0.52374500  1
  C  C20  1  0.28148000  0.96094300  0.52356600  1
  C  C21  1  0.03998000  0.71865500  0.47689700  1
  C  C22  1  0.71831000  0.96280700  0.47614500  1
  C  C23  1  0.96247700  0.28180200  0.47492100  1
  C  C24  1  0.28206600  0.03758800  0.47556300  1
  C  C25  1  0.49834700  0.99956500  0.92630100  1
  C  C26  1  0.99979500  0.50123400  0.92623000  1
  C  C27  1  0.50146400  0.00047100  0.07381100  1
  C  C28  1  0.00022500  0.49880800  0.07374500  1
  C  C29  1  0.99883300  0.50026100  0.42624900  1
  C  C30  1  0.50035500  0.00162300  0.42630800  1
  C  C31  1  0.00124600  0.49983000  0.57376400  1
  C  C32  1  0.49973000  0.99821500  0.57381600  1
  C  C33  1  0.50061700  0.68685100  0.00044100  1
  C  C34  1  0.31321700  0.50080200  0.99933800  1
  C  C35  1  0.49929900  0.31318100  0.99928700  1
  C  C36  1  0.68688600  0.49931400  0.00035800  1
  C  C37  1  0.99981500  0.18692400  0.49950900  1
  C  C38  1  0.81321100  0.00024100  0.50064300  1
  C  C39  1  0.00036400  0.81325400  0.50053000  1
  C  C40  1  0.18688100  0.99971200  0.49940000  1
  C  C41  1  0.50097000  0.81340700  0.00030200  1
  C  C42  1  0.18668100  0.50115000  0.99970200  1
  C  C43  1  0.49886300  0.18666300  0.99962300  1
  C  C44  1  0.81342400  0.49887900  0.00012200  1
  C  C45  1  0.99924200  0.31345900  0.49981900  1
  C  C46  1  0.68669100  0.00070600  0.50041200  1
  C  C47  1  0.00083300  0.68671800  0.50024700  1
  C  C48  1  0.31343300  0.99912700  0.49962900  1
  C  C49  1  0.54225300  0.96454100  0.67348900  1
  C  C50  1  0.03148700  0.54495300  0.67339000  1
  C  C51  1  0.45615300  0.03200200  0.67329600  1
  C  C52  1  0.96960000  0.45475100  0.67324500  1
  C  C53  1  0.54577000  0.03247000  0.32679200  1
  C  C54  1  0.03311400  0.45697400  0.32678700  1
  C  C55  1  0.45554100  0.97062200  0.32671300  1
  C  C56  1  0.96570500  0.54311500  0.32656200  1
  C  C57  1  0.04313100  0.46573300  0.17343000  1
  C  C58  1  0.53493400  0.04401800  0.17334500  1
  C  C59  1  0.95691900  0.53305200  0.17320800  1
  C  C60  1  0.46755000  0.95785800  0.17343300  1
  C  C61  1  0.04488200  0.53154800  0.82660600  1
  C  C62  1  0.52953900  0.95380700  0.82689000  1
  C  C63  1  0.95476500  0.46953800  0.82674400  1
  C  C64  1  0.46760700  0.04397600  0.82660700  1
  C  C65  1  0.54250200  0.96428000  0.63469500  1
  C  C66  1  0.03198800  0.54498800  0.63460000  1
  C  C67  1  0.45629000  0.03216600  0.63450300  1
  C  C68  1  0.96968800  0.45465800  0.63444900  1
  C  C69  1  0.54570000  0.03274000  0.36558600  1
  C  C70  1  0.03311200  0.45702000  0.36558000  1
  C  C71  1  0.45534400  0.97047900  0.36550700  1
  C  C72  1  0.96527700  0.54327100  0.36535500  1
  C  C73  1  0.04327900  0.46529900  0.13463700  1
  C  C74  1  0.53525500  0.04388300  0.13455000  1
  C  C75  1  0.95695600  0.53304300  0.13441500  1
  C  C76  1  0.46744600  0.95761100  0.13464000  1
  C  C77  1  0.04491200  0.53204400  0.86539600  1
  C  C78  1  0.52963100  0.95399000  0.86568300  1
  C  C79  1  0.95466700  0.46962000  0.86554100  1
  C  C80  1  0.46728500  0.04428700  0.86539900  1
  C  C81  1  0.49950000  0.99820700  0.61500500  1
  C  C82  1  0.00098700  0.49980800  0.61494200  1
  C  C83  1  0.50046000  0.00163300  0.38512900  1
  C  C84  1  0.99909300  0.50020200  0.38506000  1
  C  C85  1  0.00017000  0.49906600  0.11493400  1
  C  C86  1  0.50139800  0.00065600  0.11500100  1
  C  C87  1  0.99977300  0.50097800  0.88505100  1
  C  C88  1  0.49840600  0.99926600  0.88512300  1
  C  C89  1  0.49911100  0.99830400  0.69276800  1
  C  C90  1  0.00039400  0.49987500  0.69269300  1
  C  C91  1  0.50072900  0.00150500  0.30737600  1
  C  C92  1  0.99951800  0.49999300  0.30729900  1
  C  C93  1  0.99997700  0.49950300  0.19269400  1
  C  C94  1  0.50118100  0.00103700  0.19276600  1
  C  C95  1  0.99984900  0.50039600  0.80730000  1
  C  C96  1  0.49863600  0.99877300  0.80737300  1
  C  C97  1  0.49894400  0.99842100  0.73312300  1
  C  C98  1  0.00010300  0.49995700  0.73304900  1
  C  C99  1  0.50090400  0.00137500  0.26701900  1
  C  C100  1  0.99969900  0.49984200  0.26694400  1
  C  C101  1  0.99983800  0.49969400  0.23304900  1
  C  C102  1  0.50104100  0.00123600  0.23312300  1
  C  C103  1  0.99993700  0.50011400  0.76694400  1
  C  C104  1  0.49880200  0.99856100  0.76701800  1
  C  C105  1  0.53778500  0.71852300  0.02513800  1
  C  C106  1  0.28181700  0.53894600  0.02359800  1
  C  C107  1  0.46265900  0.28179500  0.02441200  1
  C  C108  1  0.71858400  0.46356800  0.02582000  1
  C  C109  1  0.53570600  0.28119600  0.97432100  1
  C  C110  1  0.28124000  0.46284700  0.97525200  1
  C  C111  1  0.46363200  0.71857800  0.97566700  1
  C  C112  1  0.71857800  0.53483100  0.97477000  1
  C  C113  1  0.03530600  0.21861300  0.52511300  1
  C  C114  1  0.78153500  0.03686900  0.52563600  1
  C  C115  1  0.96243800  0.78128400  0.52463700  1
  C  C116  1  0.21829200  0.96246000  0.52417400  1
  C  C117  1  0.03852700  0.78184700  0.47628500  1
  C  C118  1  0.78151500  0.96384400  0.47553100  1
  C  C119  1  0.96403800  0.21862300  0.47406500  1
  C  C120  1  0.21886700  0.03665300  0.47472600  1
  C  C121  1  0.38012400  0.50054200  0.99918800  1
  C  C122  1  0.49957100  0.38008300  0.99914400  1
  C  C123  1  0.61997200  0.49956400  0.00050000  1
  C  C124  1  0.50040700  0.61993100  0.00055500  1
  C  C125  1  0.88011500  0.00007000  0.50075300  1
  C  C126  1  0.00014800  0.88016100  0.50067700  1
  C  C127  1  0.11996300  0.99998000  0.49928400  1
  C  C128  1  0.00002500  0.12001000  0.49936700  1
  C  C129  1  0.58954000  0.93088700  0.61518700  1
  C  C130  1  0.06245500  0.59391800  0.61503900  1
  C  C131  1  0.40945300  0.06551900  0.61478900  1
  C  C132  1  0.93948600  0.40573200  0.61473000  1
  C  C133  1  0.59458100  0.06307300  0.38527100  1
  C  C134  1  0.06631200  0.41008700  0.38530700  1
  C  C135  1  0.40634900  0.94018000  0.38510600  1
  C  C136  1  0.93178400  0.59024600  0.38485600  1
  C  C137  1  0.09028600  0.43185600  0.11513400  1
  C  C138  1  0.56864000  0.09075000  0.11488300  1
  C  C139  1  0.90998600  0.56619200  0.11468800  1
  C  C140  1  0.43416800  0.91054900  0.11507900  1
  C  C141  1  0.09379800  0.56257700  0.88495900  1
  C  C142  1  0.55995000  0.90521300  0.88547500  1
  C  C143  1  0.90578000  0.43934500  0.88525400  1
  C  C144  1  0.43687800  0.09333300  0.88488600  1
  N  N1  1  0.62748500  0.90405300  0.59946900  1
  N  N2  1  0.08692500  0.63338100  0.59927400  1
  N  N3  1  0.37167100  0.09232100  0.59890200  1
  N  N4  1  0.91523200  0.36627300  0.59883600  1
  N  N5  1  0.63400400  0.08743400  0.40113600  1
  N  N6  1  0.09298800  0.37222800  0.40120400  1
  N  N7  1  0.36683700  0.91584700  0.40090400  1
  N  N8  1  0.90486900  0.62813900  0.40056900  1
  N  N9  1  0.12820400  0.40498100  0.09941800  1
  N  N10  1  0.59546700  0.12855500  0.09903300  1
  N  N11  1  0.87209800  0.59282500  0.09879100  1
  N  N12  1  0.40742900  0.87258800  0.09931400  1
  N  N13  1  0.13322800  0.58710000  0.90072400  1
  N  N14  1  0.58429800  0.86587300  0.90142500  1
  N  N15  1  0.86635100  0.41503100  0.90114100  1
  N  N16  1  0.41245700  0.13289000  0.90059000  1
  O  O1  1  0.44831400  0.90892300  0.99882400  1
  O  O2  1  0.09119100  0.44842500  0.00007900  1
  O  O3  1  0.55155500  0.09117500  0.99993600  1
  O  O4  1  0.90889900  0.55156000  0.99855200  1
  O  O5  1  0.44558400  0.09152700  0.99978800  1
  O  O6  1  0.09150000  0.55438800  0.99971900  1
  O  O7  1  0.55417500  0.90858400  0.00162300  1
  O  O8  1  0.90859600  0.44570600  0.00155800  1
  O  O9  1  0.94591300  0.40854300  0.49842900  1
  O  O10  1  0.59113300  0.94812500  0.50026900  1
  O  O11  1  0.05421800  0.59162300  0.50027600  1
  O  O12  1  0.40903000  0.05165400  0.49851000  1
  O  O13  1  0.94825300  0.59114200  0.49991600  1
  O  O14  1  0.59162400  0.05409700  0.50018700  1
  O  O15  1  0.05176700  0.40901700  0.50143900  1
  O  O16  1  0.40852400  0.94578800  0.50124000  1
  O  O17  1  0.44542900  0.00203600  0.94382400  1
  O  O18  1  0.99760400  0.44841400  0.94391500  1
  O  O19  1  0.55125200  0.99741700  0.94389100  1
  O  O20  1  0.00218200  0.55423600  0.94366000  1
  O  O21  1  0.44852600  0.00077900  0.05621300  1
  O  O22  1  0.00057800  0.55166000  0.05605100  1
  O  O23  1  0.55442000  0.99994800  0.05627200  1
  O  O24  1  0.99978500  0.44576700  0.05630400  1
  O  O25  1  0.94579100  0.49974500  0.44368800  1
  O  O26  1  0.49796000  0.94869100  0.44385500  1
  O  O27  1  0.05168400  0.50069100  0.44394300  1
  O  O28  1  0.50271000  0.05450600  0.44387600  1
  O  O29  1  0.94843200  0.49755700  0.55607700  1
  O  O30  1  0.50028500  0.05118300  0.55625500  1
  O  O31  1  0.05424500  0.50229600  0.55633500  1
  O  O32  1  0.49932300  0.94529000  0.55624100  1
  O  O33  1  0.40881400  0.50325100  0.03160900  1
  O  O34  1  0.49925400  0.40875700  0.03161000  1
  O  O35  1  0.59165600  0.49923000  0.03306800  1
  O  O36  1  0.50324500  0.59159600  0.03306700  1
  O  O37  1  0.40841500  0.49747700  0.96666600  1
  O  O38  1  0.49749700  0.59126600  0.96813100  1
  O  O39  1  0.59128500  0.50008600  0.96803800  1
  O  O40  1  0.50013800  0.40839900  0.96657900  1
  O  O41  1  0.90845400  0.00051200  0.53330900  1
  O  O42  1  0.99719300  0.90845900  0.53320200  1
  O  O43  1  0.09130500  0.99718700  0.53171200  1
  O  O44  1  0.00047500  0.09131900  0.53182800  1
  O  O45  1  0.90876600  0.99963700  0.46827900  1
  O  O46  1  0.99958000  0.09169900  0.46679900  1
  O  O47  1  0.09162300  0.00294600  0.46677600  1
  O  O48  1  0.00293100  0.90884500  0.46825800  1
