# generated using pymatgen
data_ZnH12C28N(ClO2)2
_symmetry_space_group_name_H-M   'P 1'
_cell_length_a   22.79988000
_cell_length_b   22.82546900
_cell_length_c   14.99221600
_cell_angle_alpha   90.00000000
_cell_angle_beta   90.00000000
_cell_angle_gamma   90.00000000
_symmetry_Int_Tables_number   1
_chemical_formula_structural   ZnH12C28N(ClO2)2
_chemical_formula_sum   'Zn4 H48 C112 N4 Cl8 O16'
_cell_volume   7802.21837880
_cell_formula_units_Z   4
loop_
 _symmetry_equiv_pos_site_id
 _symmetry_equiv_pos_as_xyz
  1  'x, y, z'
loop_
 _atom_site_type_symbol
 _atom_site_label
 _atom_site_symmetry_multiplicity
 _atom_site_fract_x
 _atom_site_fract_y
 _atom_site_fract_z
 _atom_site_occupancy
  Zn  Zn1  1  0.99837600  0.50000200  0.60162100  1
  Zn  Zn2  1  0.99837600  0.49999900  0.39837900  1
  Zn  Zn3  1  0.49837600  0.00000100  0.60162100  1
  Zn  Zn4  1  0.49837600  0.99999900  0.39837900  1
  H  H1  1  0.78700200  0.28763100  0.64197100  1
  H  H2  1  0.20972900  0.71237800  0.35780800  1
  H  H3  1  0.21074600  0.71137100  0.64196800  1
  H  H4  1  0.78601900  0.28862700  0.35781000  1
  H  H5  1  0.21074600  0.28863000  0.35803200  1
  H  H6  1  0.78601900  0.71137300  0.64219000  1
  H  H7  1  0.78700100  0.71236900  0.35802900  1
  H  H8  1  0.20972900  0.28762200  0.64219200  1
  H  H9  1  0.28700100  0.78763100  0.64197100  1
  H  H10  1  0.70972900  0.21237900  0.35780800  1
  H  H11  1  0.71074600  0.21137000  0.64196800  1
  H  H12  1  0.28601900  0.78862600  0.35781000  1
  H  H13  1  0.71074600  0.78862900  0.35803200  1
  H  H14  1  0.28601900  0.21137300  0.64219000  1
  H  H15  1  0.28700200  0.21236900  0.35802900  1
  H  H16  1  0.70972900  0.78762200  0.64219200  1
  H  H17  1  0.08675000  0.37088100  0.05747600  1
  H  H18  1  0.08808600  0.27805500  0.14033400  1
  H  H19  1  0.91315600  0.30911900  0.22816500  1
  H  H20  1  0.91141400  0.40169700  0.14466000  1
  H  H21  1  0.08674900  0.62911900  0.94252400  1
  H  H22  1  0.08808600  0.72194500  0.85966600  1
  H  H23  1  0.91315600  0.69088100  0.77183400  1
  H  H24  1  0.91141400  0.59830300  0.85534000  1
  H  H25  1  0.08535300  0.59828500  0.14467700  1
  H  H26  1  0.08361800  0.69085700  0.22820000  1
  H  H27  1  0.90869300  0.72194500  0.14036500  1
  H  H28  1  0.91002200  0.62912500  0.05749000  1
  H  H29  1  0.08535300  0.40171500  0.85532300  1
  H  H30  1  0.08361800  0.30914300  0.77180000  1
  H  H31  1  0.90869300  0.27805500  0.85963500  1
  H  H32  1  0.91002200  0.37087500  0.94251000  1
  H  H33  1  0.58674900  0.87088100  0.05747600  1
  H  H34  1  0.58808600  0.77805500  0.14033400  1
  H  H35  1  0.41315600  0.80911900  0.22816600  1
  H  H36  1  0.41141400  0.90169700  0.14466000  1
  H  H37  1  0.58675000  0.12911900  0.94252400  1
  H  H38  1  0.58808600  0.22194500  0.85966600  1
  H  H39  1  0.41315600  0.19088100  0.77183500  1
  H  H40  1  0.41141400  0.09830300  0.85534000  1
  H  H41  1  0.58535300  0.09828500  0.14467700  1
  H  H42  1  0.58361800  0.19085700  0.22820000  1
  H  H43  1  0.40869300  0.22194500  0.14036500  1
  H  H44  1  0.41002200  0.12912600  0.05749000  1
  H  H45  1  0.58535300  0.90171500  0.85532300  1
  H  H46  1  0.58361800  0.80914300  0.77180000  1
  H  H47  1  0.40869300  0.77805500  0.85963500  1
  H  H48  1  0.41002200  0.87087500  0.94251000  1
  C  C1  1  0.07941700  0.41906200  0.50001300  1
  C  C2  1  0.91733400  0.58093800  0.50000700  1
  C  C3  1  0.91733400  0.41906200  0.49999300  1
  C  C4  1  0.07941700  0.58093800  0.49998700  1
  C  C5  1  0.57941700  0.91906200  0.50001300  1
  C  C6  1  0.41733400  0.08093800  0.50000700  1
  C  C7  1  0.41733400  0.91906200  0.49999300  1
  C  C8  1  0.57941700  0.08093800  0.49998700  1
  C  C9  1  0.99865900  0.44746200  0.95382200  1
  C  C10  1  0.99865900  0.55253800  0.04617800  1
  C  C11  1  0.99810600  0.55254000  0.95382900  1
  C  C12  1  0.99810600  0.44746000  0.04617100  1
  C  C13  1  0.49865900  0.94746200  0.95382200  1
  C  C14  1  0.49865900  0.05253800  0.04617800  1
  C  C15  1  0.49810600  0.05254000  0.95382900  1
  C  C16  1  0.49810600  0.94746000  0.04617100  1
  C  C17  1  0.99838100  0.50000200  0.90799400  1
  C  C18  1  0.99838100  0.49999800  0.09200600  1
  C  C19  1  0.49838100  0.00000200  0.90799400  1
  C  C20  1  0.49838100  0.99999800  0.09200600  1
  C  C21  1  0.22728700  0.72835100  0.57954100  1
  C  C22  1  0.76946600  0.27165000  0.42023600  1
  C  C23  1  0.77002100  0.27109100  0.57954300  1
  C  C24  1  0.22672100  0.72891500  0.42023400  1
  C  C25  1  0.77002000  0.72890900  0.42045700  1
  C  C26  1  0.22672100  0.27108500  0.57976600  1
  C  C27  1  0.22728800  0.27164900  0.42045900  1
  C  C28  1  0.76946600  0.72835000  0.57976400  1
  C  C29  1  0.72728800  0.22835100  0.57954100  1
  C  C30  1  0.26946600  0.77165000  0.42023600  1
  C  C31  1  0.27002000  0.77109100  0.57954300  1
  C  C32  1  0.72672100  0.22891500  0.42023400  1
  C  C33  1  0.27002100  0.22890900  0.42045700  1
  C  C34  1  0.72672100  0.77108500  0.57976600  1
  C  C35  1  0.72728700  0.77164900  0.42045900  1
  C  C36  1  0.26946600  0.22835000  0.57976400  1
  C  C37  1  0.20564600  0.70726700  0.49989000  1
  C  C38  1  0.79110100  0.29273600  0.49989400  1
  C  C39  1  0.79110100  0.70726400  0.50010600  1
  C  C40  1  0.20564600  0.29273300  0.50011000  1
  C  C41  1  0.70564600  0.20726700  0.49989000  1
  C  C42  1  0.29110100  0.79273600  0.49989400  1
  C  C43  1  0.29110100  0.20726400  0.50010600  1
  C  C44  1  0.70564600  0.79273300  0.50011000  1
  C  C45  1  0.99837800  0.50000400  0.81217500  1
  C  C46  1  0.99837800  0.49999600  0.18782500  1
  C  C47  1  0.49837800  0.00000400  0.81217500  1
  C  C48  1  0.49837800  0.99999600  0.18782500  1
  C  C49  1  0.16119800  0.66278200  0.49991200  1
  C  C50  1  0.83555100  0.33722000  0.49991900  1
  C  C51  1  0.83555100  0.66278000  0.50008100  1
  C  C52  1  0.16119800  0.33721800  0.50008700  1
  C  C53  1  0.66119800  0.16278200  0.49991300  1
  C  C54  1  0.33555100  0.83722000  0.49991900  1
  C  C55  1  0.33555100  0.16278000  0.50008100  1
  C  C56  1  0.66119800  0.83721800  0.50008700  1
  C  C57  1  0.87287800  0.37458100  0.49996400  1
  C  C58  1  0.12387200  0.62542000  0.49995500  1
  C  C59  1  0.12387200  0.37458000  0.50004400  1
  C  C60  1  0.87287800  0.62541900  0.50003600  1
  C  C61  1  0.37287800  0.87458100  0.49996400  1
  C  C62  1  0.62387200  0.12542000  0.49995500  1
  C  C63  1  0.62387200  0.87458000  0.50004500  1
  C  C64  1  0.37287800  0.12541900  0.50003600  1
  C  C65  1  0.99901400  0.39221900  0.09585600  1
  C  C66  1  0.04847500  0.35731900  0.09467200  1
  C  C67  1  0.04929400  0.30526900  0.14129800  1
  C  C68  1  0.00071800  0.28796400  0.18928400  1
  C  C69  1  0.95127100  0.32270000  0.19059600  1
  C  C70  1  0.95037800  0.37472300  0.14391000  1
  C  C71  1  0.99901400  0.60778100  0.90414400  1
  C  C72  1  0.04847500  0.64268100  0.90532800  1
  C  C73  1  0.04929400  0.69473100  0.85870200  1
  C  C74  1  0.00071800  0.71203600  0.81071600  1
  C  C75  1  0.95127100  0.67730000  0.80940400  1
  C  C76  1  0.95037800  0.62527700  0.85609000  1
  C  C77  1  0.99775500  0.60777600  0.09587000  1
  C  C78  1  0.04639100  0.62526400  0.14392900  1
  C  C79  1  0.04550200  0.67728300  0.19062500  1
  C  C80  1  0.99605900  0.71202300  0.18931800  1
  C  C81  1  0.94748300  0.69472800  0.14132600  1
  C  C82  1  0.94829800  0.64268100  0.09469000  1
  C  C83  1  0.99775500  0.39222400  0.90413000  1
  C  C84  1  0.04639100  0.37473600  0.85607000  1
  C  C85  1  0.04550300  0.32271700  0.80937500  1
  C  C86  1  0.99605900  0.28797700  0.81068200  1
  C  C87  1  0.94748300  0.30527200  0.85867400  1
  C  C88  1  0.94829800  0.35731900  0.90531000  1
  C  C89  1  0.49901400  0.89221900  0.09585600  1
  C  C90  1  0.54847500  0.85731900  0.09467200  1
  C  C91  1  0.54929400  0.80526900  0.14129800  1
  C  C92  1  0.50071800  0.78796400  0.18928400  1
  C  C93  1  0.45127100  0.82270000  0.19059600  1
  C  C94  1  0.45037800  0.87472300  0.14391000  1
  C  C95  1  0.49901400  0.10778100  0.90414400  1
  C  C96  1  0.54847500  0.14268100  0.90532800  1
  C  C97  1  0.54929400  0.19473100  0.85870200  1
  C  C98  1  0.50071800  0.21203600  0.81071600  1
  C  C99  1  0.45127100  0.17730000  0.80940400  1
  C  C100  1  0.45037800  0.12527700  0.85609000  1
  C  C101  1  0.49775500  0.10777600  0.09587000  1
  C  C102  1  0.54639100  0.12526400  0.14392900  1
  C  C103  1  0.54550300  0.17728300  0.19062500  1
  C  C104  1  0.49605900  0.21202300  0.18931800  1
  C  C105  1  0.44748300  0.19472800  0.14132600  1
  C  C106  1  0.44829800  0.14268100  0.09469000  1
  C  C107  1  0.49775500  0.89222400  0.90413000  1
  C  C108  1  0.54639100  0.87473600  0.85607100  1
  C  C109  1  0.54550200  0.82271700  0.80937500  1
  C  C110  1  0.49605900  0.78797700  0.81068200  1
  C  C111  1  0.44748300  0.80527200  0.85867400  1
  C  C112  1  0.44829800  0.85731900  0.90531000  1
  N  N1  1  0.99837600  0.49999600  0.26498900  1
  N  N2  1  0.99837600  0.50000400  0.73501100  1
  N  N3  1  0.49837600  0.99999600  0.26498900  1
  N  N4  1  0.49837600  0.00000400  0.73501100  1
  Cl  Cl1  1  0.00182700  0.22188000  0.24855300  1
  Cl  Cl2  1  0.00182700  0.77812000  0.75144700  1
  Cl  Cl3  1  0.99495500  0.77810300  0.24859900  1
  Cl  Cl4  1  0.99495500  0.22189700  0.75140100  1
  Cl  Cl5  1  0.50182700  0.72188000  0.24855300  1
  Cl  Cl6  1  0.50182700  0.27812000  0.75144700  1
  Cl  Cl7  1  0.49495600  0.27810300  0.24859900  1
  Cl  Cl8  1  0.49495500  0.72189700  0.75140100  1
  O  O1  1  0.06017100  0.43828800  0.57710100  1
  O  O2  1  0.93657600  0.56170900  0.42290700  1
  O  O3  1  0.93658000  0.56171400  0.57709600  1
  O  O4  1  0.06017600  0.43828900  0.42291200  1
  O  O5  1  0.93658000  0.43828600  0.42290400  1
  O  O6  1  0.06017600  0.56171100  0.57708800  1
  O  O7  1  0.06017100  0.56171200  0.42289900  1
  O  O8  1  0.93657600  0.43829100  0.57709300  1
  O  O9  1  0.56017100  0.93828800  0.57710100  1
  O  O10  1  0.43657600  0.06170900  0.42290700  1
  O  O11  1  0.43658000  0.06171400  0.57709600  1
  O  O12  1  0.56017600  0.93828900  0.42291200  1
  O  O13  1  0.43658000  0.93828600  0.42290400  1
  O  O14  1  0.56017600  0.06171100  0.57708800  1
  O  O15  1  0.56017100  0.06171200  0.42289900  1
  O  O16  1  0.43657600  0.93829100  0.57709300  1
