# generated using pymatgen
data_ZnH24C44(NO3)2
_symmetry_space_group_name_H-M   'P 1'
_cell_length_a   14.84603700
_cell_length_b   16.03098800
_cell_length_c   27.62279600
_cell_angle_alpha   89.97454300
_cell_angle_beta   103.55247400
_cell_angle_gamma   86.04272600
_symmetry_Int_Tables_number   1
_chemical_formula_structural   ZnH24C44(NO3)2
_chemical_formula_sum   'Zn2 H48 C88 N4 O12'
_cell_volume   6374.90708289
_cell_formula_units_Z   2
loop_
 _symmetry_equiv_pos_site_id
 _symmetry_equiv_pos_as_xyz
  1  'x, y, z'
loop_
 _atom_site_type_symbol
 _atom_site_label
 _atom_site_symmetry_multiplicity
 _atom_site_fract_x
 _atom_site_fract_y
 _atom_site_fract_z
 _atom_site_occupancy
  Zn  Zn1  1  0.40741200  0.48048000  0.48878600  1
  Zn  Zn2  1  0.60923000  0.52329700  0.51409800  1
  H  H1  1  0.64159000  0.55253500  0.67262200  1
  H  H2  1  0.65520900  0.51010000  0.36548000  1
  H  H3  1  0.64071800  0.55184800  0.76080900  1
  H  H4  1  0.65392600  0.51029400  0.27703700  1
  H  H5  1  0.46655700  0.70516900  0.87483200  1
  H  H6  1  0.60242400  0.30991700  0.13466100  1
  H  H7  1  0.35992100  0.49619300  0.32867300  1
  H  H8  1  0.37630400  0.44851400  0.63897200  1
  H  H9  1  0.36014100  0.49751300  0.24045200  1
  H  H10  1  0.37751100  0.44736600  0.72737500  1
  H  H11  1  0.40851600  0.69781300  0.02132600  1
  H  H12  1  0.54865800  0.29257100  0.97400300  1
  H  H13  1  0.46357200  0.70891000  0.95939900  1
  H  H14  1  0.60257800  0.30553300  0.04974400  1
  H  H15  1  0.26176400  0.01838400  0.47122900  1
  H  H16  1  0.75483800  0.98539400  0.53028700  1
  H  H17  1  0.45601700  0.21595200  0.49516400  1
  H  H18  1  0.56062500  0.78782600  0.50800300  1
  H  H19  1  0.73758700  0.27339900  0.52831400  1
  H  H20  1  0.27903600  0.73037900  0.47401700  1
  H  H21  1  0.22953400  0.87776800  0.46776600  1
  H  H22  1  0.78707800  0.12600900  0.53411400  1
  H  H23  1  0.36386900  0.12544100  0.48322300  1
  H  H24  1  0.65273500  0.87833800  0.51823800  1
  H  H25  1  0.03324700  0.65970400  0.59282900  1
  H  H26  1  0.98333400  0.34421800  0.40996200  1
  H  H27  1  0.24211700  0.53799500  0.52181700  1
  H  H28  1  0.77450200  0.46581300  0.48104500  1
  H  H29  1  0.29756000  0.36213800  0.42014500  1
  H  H30  1  0.71908800  0.64160000  0.58276400  1
  H  H31  1  0.88069900  0.67795100  0.60367400  1
  H  H32  1  0.13592700  0.32585600  0.39919100  1
  H  H33  1  0.14628400  0.59571800  0.55545700  1
  H  H34  1  0.87027200  0.40826200  0.44729700  1
  H  H35  1  0.27223100  0.59879800  0.08587400  1
  H  H36  1  0.17613900  0.67581700  0.06929800  1
  H  H37  1  0.21415000  0.63699300  0.13259600  1
  H  H38  1  0.19005000  0.80413900  0.12942500  1
  H  H39  1  0.28419900  0.92473700  0.14976100  1
  H  H40  1  0.44660400  0.91523300  0.14276600  1
  H  H41  1  0.51509300  0.78452800  0.11612300  1
  H  H42  1  0.36846800  0.32125800  0.86971500  1
  H  H43  1  0.33587000  0.21560200  0.87028800  1
  H  H44  1  0.34309600  0.26434000  0.81260900  1
  H  H45  1  0.43029000  0.11133800  0.82366700  1
  H  H46  1  0.58867800  0.04695800  0.83494500  1
  H  H47  1  0.72175400  0.12222000  0.87895400  1
  H  H48  1  0.69624600  0.26246400  0.91102000  1
  C  C1  1  0.45466500  0.66152400  0.49517200  1
  C  C2  1  0.56197400  0.34225400  0.50769800  1
  C  C3  1  0.50879500  0.50104100  0.59630000  1
  C  C4  1  0.50784500  0.50272600  0.40658500  1
  C  C5  1  0.49361700  0.57139000  0.82322700  1
  C  C6  1  0.53972700  0.43585200  0.18175500  1
  C  C7  1  0.52409300  0.42603700  0.82676000  1
  C  C8  1  0.47277300  0.57317400  0.17360000  1
  C  C9  1  0.43544400  0.47042500  0.71520800  1
  C  C10  1  0.42486800  0.50030600  0.26802900  1
  C  C11  1  0.43492000  0.47145400  0.66524300  1
  C  C12  1  0.42511100  0.49927600  0.31796000  1
  C  C13  1  0.58309600  0.52914700  0.68404900  1
  C  C14  1  0.58978900  0.50741100  0.33847900  1
  C  C15  1  0.58275400  0.52913900  0.73392500  1
  C  C16  1  0.58943200  0.50722800  0.28851700  1
  C  C17  1  0.50915400  0.49947600  0.74960300  1
  C  C18  1  0.50698200  0.50402500  0.25321400  1
  C  C19  1  0.50765900  0.49852100  0.90054100  1
  C  C20  1  0.50528500  0.50420200  0.10185700  1
  C  C21  1  0.49229800  0.57206400  0.87298300  1
  C  C22  1  0.53917200  0.43475500  0.13176300  1
  C  C23  1  0.47648900  0.64650300  0.89528600  1
  C  C24  1  0.57340200  0.36437100  0.11179200  1
  C  C25  1  0.52349000  0.42407900  0.87732800  1
  C  C26  1  0.47105200  0.57458800  0.12274000  1
  C  C27  1  0.50896800  0.50053700  0.64939800  1
  C  C28  1  0.50759000  0.50315800  0.35347800  1
  C  C29  1  0.47755300  0.57399900  0.02216500  1
  C  C30  1  0.52834500  0.42715800  0.97934200  1
  C  C31  1  0.53506600  0.42997500  0.03069500  1
  C  C32  1  0.48534300  0.57438400  0.97265000  1
  C  C33  1  0.50589900  0.50273600  0.05149900  1
  C  C34  1  0.50706900  0.49998300  0.95090300  1
  C  C35  1  0.44022200  0.64310900  0.04286900  1
  C  C36  1  0.54077700  0.35255200  0.95548300  1
  C  C37  1  0.43555800  0.64374200  0.09192600  1
  C  C38  1  0.53737000  0.35014400  0.90540500  1
  C  C39  1  0.47281500  0.64788200  0.94437900  1
  C  C40  1  0.57132300  0.36171400  0.06197200  1
  C  C41  1  0.42441500  0.75100800  0.49150200  1
  C  C42  1  0.59221700  0.25277000  0.51116500  1
  C  C43  1  0.30298300  0.85911200  0.47665900  1
  C  C44  1  0.71363300  0.14466600  0.52543100  1
  C  C45  1  0.33107900  0.77560600  0.48020100  1
  C  C46  1  0.68554500  0.22817200  0.52216100  1
  C  C47  1  0.48915500  0.81082700  0.49923900  1
  C  C48  1  0.52747600  0.19295200  0.50344600  1
  C  C49  1  0.46159700  0.89629800  0.49567300  1
  C  C50  1  0.55502300  0.10748100  0.50659400  1
  C  C51  1  0.36728700  0.91873900  0.48426400  1
  C  C52  1  0.64932800  0.08504000  0.51779000  1
  C  C53  1  0.52481900  0.95966700  0.50309100  1
  C  C54  1  0.49179800  0.04411200  0.49902300  1
  C  C55  1  0.39614100  0.06308600  0.48739000  1
  C  C56  1  0.62046800  0.94069300  0.51443400  1
  C  C57  1  0.33555200  0.00123400  0.48021300  1
  C  C58  1  0.68105500  0.00254500  0.52155200  1
  C  C59  1  0.85946100  0.63060700  0.57631900  1
  C  C60  1  0.15716300  0.37320300  0.42654500  1
  C  C61  1  0.76880500  0.61030500  0.56467100  1
  C  C62  1  0.24783300  0.39346600  0.43821900  1
  C  C63  1  0.80242800  0.51171300  0.50757600  1
  C  C64  1  0.21419200  0.49210300  0.49528200  1
  C  C65  1  0.89566800  0.53028700  0.51812800  1
  C  C66  1  0.12093500  0.47357100  0.48470300  1
  C  C67  1  0.92265900  0.59078500  0.55313500  1
  C  C68  1  0.09394500  0.41307000  0.44969800  1
  C  C69  1  0.96219400  0.49080300  0.49505100  1
  C  C70  1  0.05439600  0.51308700  0.50775900  1
  C  C71  1  0.07781800  0.57442300  0.54327900  1
  C  C72  1  0.93875800  0.42950300  0.45950900  1
  C  C73  1  0.01271100  0.61231200  0.56540700  1
  C  C74  1  0.00387500  0.39159300  0.43739500  1
  C  C75  1  0.39173500  0.71976300  0.10840900  1
  C  C76  1  0.29928600  0.72552000  0.11150400  1
  C  C77  1  0.23774200  0.65475700  0.09902000  1
  C  C78  1  0.26164300  0.79932700  0.12664500  1
  C  C79  1  0.31438500  0.86718800  0.13802400  1
  C  C80  1  0.40532000  0.86187400  0.13411700  1
  C  C81  1  0.44364900  0.78849700  0.11915400  1
  C  C82  1  0.54879000  0.26694900  0.88481900  1
  C  C83  1  0.47326600  0.22381800  0.86067400  1
  C  C84  1  0.37493700  0.25901000  0.85312600  1
  C  C85  1  0.48855100  0.14504500  0.84271800  1
  C  C86  1  0.57747400  0.10872100  0.84907200  1
  C  C87  1  0.65199300  0.15085800  0.87370400  1
  C  C88  1  0.63757100  0.22954100  0.89168000  1
  N  N1  1  0.50904400  0.49902600  0.80113700  1
  N  N2  1  0.50656700  0.50432200  0.20160700  1
  N  N3  1  0.74197900  0.55160400  0.53075100  1
  N  N4  1  0.27465900  0.45217500  0.47213300  1
  O  O1  1  0.39096200  0.60704500  0.48715400  1
  O  O2  1  0.62568100  0.39673000  0.51592200  1
  O  O3  1  0.54398500  0.63944200  0.50617700  1
  O  O4  1  0.47265300  0.36433600  0.49650000  1
  O  O5  1  0.43222400  0.48484300  0.56402000  1
  O  O6  1  0.58455700  0.51853500  0.43887700  1
  O  O7  1  0.58517900  0.51763200  0.58321500  1
  O  O8  1  0.43133100  0.48654000  0.41965700  1
  O  O9  1  0.47814900  0.64295900  0.79628800  1
  O  O10  1  0.57218200  0.36800900  0.21083300  1
  O  O11  1  0.44344100  0.64034700  0.19622800  1
  O  O12  1  0.54178300  0.35634800  0.80263600  1
