# generated using pymatgen
data_Zn3H36C68(O3F)4
_symmetry_space_group_name_H-M   'P 1'
_cell_length_a   38.87487000
_cell_length_b   38.87495600
_cell_length_c   18.60388400
_cell_angle_alpha   90.00000000
_cell_angle_beta   90.00000000
_cell_angle_gamma   90.00000000
_symmetry_Int_Tables_number   1
_chemical_formula_structural   Zn3H36C68(O3F)4
_chemical_formula_sum   'Zn12 H144 C272 O48 F16'
_cell_volume   28115.28453947
_cell_formula_units_Z   4
loop_
 _symmetry_equiv_pos_site_id
 _symmetry_equiv_pos_as_xyz
  1  'x, y, z'
loop_
 _atom_site_type_symbol
 _atom_site_label
 _atom_site_symmetry_multiplicity
 _atom_site_fract_x
 _atom_site_fract_y
 _atom_site_fract_z
 _atom_site_occupancy
  Zn  Zn1  1  0.49999300  0.03895700  0.50019600  1
  Zn  Zn2  1  0.96099100  0.50004500  0.49994700  1
  Zn  Zn3  1  0.50011600  0.96104200  0.50003700  1
  Zn  Zn4  1  0.03890700  0.49992000  0.49997400  1
  Zn  Zn5  1  0.99990400  0.53894000  0.99987400  1
  Zn  Zn6  1  0.46109400  0.99993500  0.00013500  1
  Zn  Zn7  1  0.99999100  0.46102500  0.00003700  1
  Zn  Zn8  1  0.53901000  0.00006600  0.00009700  1
  Zn  Zn9  1  0.00015600  0.99999100  0.58153800  1
  Zn  Zn10  1  0.99995700  0.99996900  0.41860300  1
  Zn  Zn11  1  0.50007500  0.49998700  0.08133500  1
  Zn  Zn12  1  0.49981600  0.50000800  0.91840000  1
  H  H1  1  0.89037000  0.99775300  0.38674800  1
  H  H2  1  0.00518900  0.89042100  0.38661000  1
  H  H3  1  0.10990800  0.00504000  0.38393400  1
  H  H4  1  0.99757000  0.10994600  0.38406800  1
  H  H5  1  0.10973500  0.99474700  0.61298700  1
  H  H6  1  0.99507000  0.89000800  0.61569600  1
  H  H7  1  0.89021000  0.00237900  0.61660500  1
  H  H8  1  0.00237100  0.10955100  0.61390800  1
  H  H9  1  0.39022600  0.49487100  0.88711900  1
  H  H10  1  0.50484900  0.39001900  0.88424700  1
  H  H11  1  0.60975200  0.50226700  0.88315200  1
  H  H12  1  0.49767400  0.60957300  0.88603200  1
  H  H13  1  0.60967200  0.49767200  0.11301200  1
  H  H14  1  0.49478300  0.39044500  0.11334200  1
  H  H15  1  0.39013700  0.50517000  0.11617100  1
  H  H16  1  0.50250400  0.60996000  0.11587000  1
  H  H17  1  0.82818600  0.99725600  0.38667200  1
  H  H18  1  0.00586300  0.82823700  0.38632100  1
  H  H19  1  0.17209400  0.00554200  0.38431000  1
  H  H20  1  0.99686100  0.17212600  0.38466800  1
  H  H21  1  0.17191800  0.99406500  0.61298900  1
  H  H22  1  0.99455800  0.82782500  0.61503700  1
  H  H23  1  0.82802800  0.00308600  0.61628500  1
  H  H24  1  0.00286500  0.17173600  0.61426000  1
  H  H25  1  0.32804200  0.49434300  0.88718700  1
  H  H26  1  0.50536600  0.32783600  0.88492100  1
  H  H27  1  0.67193700  0.50281500  0.88336400  1
  H  H28  1  0.49717600  0.67175900  0.88569200  1
  H  H29  1  0.67185300  0.49701500  0.11298100  1
  H  H30  1  0.49411400  0.32826100  0.11364800  1
  H  H31  1  0.32795200  0.50582400  0.11586500  1
  H  H32  1  0.50320600  0.67213900  0.11528100  1
  H  H33  1  0.78112800  0.03335200  0.40936800  1
  H  H34  1  0.96942400  0.78101400  0.40508000  1
  H  H35  1  0.21913400  0.96891400  0.40345600  1
  H  H36  1  0.03278700  0.21927400  0.40776300  1
  H  H37  1  0.21910900  0.03053200  0.59413300  1
  H  H38  1  0.03116900  0.78081400  0.59557700  1
  H  H39  1  0.78084300  0.96719300  0.59328300  1
  H  H40  1  0.96675100  0.21882900  0.59187000  1
  H  H41  1  0.28099600  0.53098400  0.90608100  1
  H  H42  1  0.46877700  0.28081500  0.90442900  1
  H  H43  1  0.71899600  0.46674700  0.90631400  1
  H  H44  1  0.53328200  0.71886300  0.90808400  1
  H  H45  1  0.71903700  0.53293700  0.09018200  1
  H  H46  1  0.53055900  0.28104900  0.09487400  1
  H  H47  1  0.28076500  0.46937200  0.09676600  1
  H  H48  1  0.46725800  0.71927500  0.09220900  1
  H  H49  1  0.71856300  0.03261900  0.40844600  1
  H  H50  1  0.97042400  0.71844800  0.40400800  1
  H  H51  1  0.28170400  0.96966500  0.40306100  1
  H  H52  1  0.03174600  0.28183700  0.40744600  1
  H  H53  1  0.28167400  0.02951400  0.59497700  1
  H  H54  1  0.03039800  0.71824800  0.59575400  1
  H  H55  1  0.71827800  0.96821100  0.59380400  1
  H  H56  1  0.96745900  0.28139700  0.59298600  1
  H  H57  1  0.21843000  0.53024100  0.90532800  1
  H  H58  1  0.46956400  0.21824800  0.90427800  1
  H  H59  1  0.78156400  0.46747200  0.90576600  1
  H  H60  1  0.53256000  0.78143100  0.90699600  1
  H  H61  1  0.78160000  0.53191200  0.09107700  1
  H  H62  1  0.52957300  0.21848200  0.09597500  1
  H  H63  1  0.21819700  0.47040000  0.09725300  1
  H  H64  1  0.46828200  0.78183800  0.09255100  1
  H  H65  1  0.60936400  0.94630800  0.48494200  1
  H  H66  1  0.05532600  0.60954200  0.48927200  1
  H  H67  1  0.39077400  0.05400200  0.48947400  1
  H  H68  1  0.94487700  0.39038800  0.48487300  1
  H  H69  1  0.39047000  0.94462100  0.50953000  1
  H  H70  1  0.94595700  0.60928800  0.50960300  1
  H  H71  1  0.60961200  0.05506700  0.51649800  1
  H  H72  1  0.05365500  0.39071000  0.51615300  1
  H  H73  1  0.10923600  0.44593100  0.99086200  1
  H  H74  1  0.55403300  0.10931000  0.99042600  1
  H  H75  1  0.89071100  0.55372300  0.98318300  1
  H  H76  1  0.44635600  0.89072400  0.98390700  1
  H  H77  1  0.89031900  0.44497000  0.01482200  1
  H  H78  1  0.44466800  0.10955500  0.01083600  1
  H  H79  1  0.10952500  0.55531200  0.01090100  1
  H  H80  1  0.55513400  0.89041000  0.01517600  1
  H  H81  1  0.65323500  0.91232400  0.56866700  1
  H  H82  1  0.68196200  0.85718600  0.54601300  1
  H  H83  1  0.73060900  0.89970800  0.36117200  1
  H  H84  1  0.70153300  0.95469400  0.38268600  1
  H  H85  1  0.08714000  0.65356200  0.57613300  1
  H  H86  1  0.14260100  0.68254800  0.55904200  1
  H  H87  1  0.10415100  0.73102400  0.37015500  1
  H  H88  1  0.04887000  0.70168900  0.38611900  1
  H  H89  1  0.34672900  0.08596300  0.57617400  1
  H  H90  1  0.31804900  0.14157700  0.55899700  1
  H  H91  1  0.26977900  0.10349800  0.36955200  1
  H  H92  1  0.29881100  0.04806300  0.38560900  1
  H  H93  1  0.91119500  0.34618300  0.56850200  1
  H  H94  1  0.85620500  0.31718100  0.54579500  1
  H  H95  1  0.89887700  0.26909700  0.36046200  1
  H  H96  1  0.95371200  0.29844900  0.38203500  1
  H  H97  1  0.34642900  0.91289400  0.42240100  1
  H  H98  1  0.31742400  0.85743000  0.43931100  1
  H  H99  1  0.26898700  0.89574600  0.62836100  1
  H  H100  1  0.29834100  0.95102800  0.61257400  1
  H  H101  1  0.91397900  0.65335200  0.42280200  1
  H  H102  1  0.85838200  0.68205200  0.44008300  1
  H  H103  1  0.89655000  0.73028300  0.62949300  1
  H  H104  1  0.95196800  0.70123200  0.61333000  1
  H  H105  1  0.65380200  0.08883900  0.43317700  1
  H  H106  1  0.68277200  0.14382600  0.45608700  1
  H  H107  1  0.73087800  0.10102800  0.64126800  1
  H  H108  1  0.70155800  0.04619400  0.61949400  1
  H  H109  1  0.08762900  0.34685200  0.43255500  1
  H  H110  1  0.14279100  0.31815800  0.45512600  1
  H  H111  1  0.10036300  0.26949100  0.64003800  1
  H  H112  1  0.04535200  0.29853500  0.61860800  1
  H  H113  1  0.15311800  0.41397600  0.07804400  1
  H  H114  1  0.18181400  0.35835100  0.06114100  1
  H  H115  1  0.23042600  0.39637700  0.87203200  1
  H  H116  1  0.20138000  0.45182300  0.88781400  1
  H  H117  1  0.58602100  0.15338600  0.07718300  1
  H  H118  1  0.64161300  0.18208800  0.05984800  1
  H  H119  1  0.60341100  0.23029500  0.87044200  1
  H  H120  1  0.54799800  0.20124300  0.88665800  1
  H  H121  1  0.84669800  0.58776600  0.06636400  1
  H  H122  1  0.81805700  0.64291600  0.04337100  1
  H  H123  1  0.76973800  0.60035600  0.85819300  1
  H  H124  1  0.79873100  0.54535700  0.88004700  1
  H  H125  1  0.41238700  0.84685200  0.06747900  1
  H  H126  1  0.35722700  0.81815800  0.04489000  1
  H  H127  1  0.39965800  0.76951900  0.85994900  1
  H  H128  1  0.45466700  0.79856300  0.88139800  1
  H  H129  1  0.84626800  0.41122400  0.93102000  1
  H  H130  1  0.81721400  0.35625800  0.95368700  1
  H  H131  1  0.76878300  0.39909200  0.13846100  1
  H  H132  1  0.79818400  0.45390500  0.11693100  1
  H  H133  1  0.41283400  0.15356200  0.92398000  1
  H  H134  1  0.35737400  0.18254600  0.94109600  1
  H  H135  1  0.39585400  0.23104900  0.12992700  1
  H  H136  1  0.45113400  0.20171600  0.11393700  1
  H  H137  1  0.15372800  0.58703900  0.92424300  1
  H  H138  1  0.18271600  0.64249300  0.94140700  1
  H  H139  1  0.23081200  0.60414100  0.13080500  1
  H  H140  1  0.20147300  0.54886700  0.11476200  1
  H  H141  1  0.58882000  0.84621600  0.93152100  1
  H  H142  1  0.64381200  0.81721500  0.95421100  1
  H  H143  1  0.60114700  0.76910800  0.13952400  1
  H  H144  1  0.54630900  0.79845800  0.11796800  1
  C  C1  1  0.56743200  0.00079700  0.50052400  1
  C  C2  1  0.00074700  0.56736200  0.49955000  1
  C  C3  1  0.43267500  0.99920300  0.49970500  1
  C  C4  1  0.99915300  0.43260500  0.50037700  1
  C  C5  1  0.06732700  0.50074800  0.00055600  1
  C  C6  1  0.49925000  0.06737900  0.00052900  1
  C  C7  1  0.93257000  0.49921700  0.99935000  1
  C  C8  1  0.50085400  0.93262300  0.99969300  1
  C  C9  1  0.49979700  0.00058500  0.64063600  1
  C  C10  1  0.00059200  0.50012800  0.64047500  1
  C  C11  1  0.50031200  0.99941400  0.35960200  1
  C  C12  1  0.99930700  0.49983700  0.35944100  1
  C  C13  1  0.99971600  0.49939800  0.14047500  1
  C  C14  1  0.50072500  0.99985300  0.14063500  1
  C  C15  1  0.00017900  0.50056700  0.85944000  1
  C  C16  1  0.49938000  0.00014700  0.85960200  1
  C  C17  1  0.49964400  0.00040700  0.71773900  1
  C  C18  1  0.00043900  0.50025500  0.71757800  1
  C  C19  1  0.50046300  0.99959200  0.28249800  1
  C  C20  1  0.99945900  0.49971000  0.28233700  1
  C  C21  1  0.99958100  0.49957700  0.21757800  1
  C  C22  1  0.50058600  0.99972500  0.21773900  1
  C  C23  1  0.00031600  0.50038800  0.78233700  1
  C  C24  1  0.49952000  0.00027400  0.78249800  1
  C  C25  1  0.87698200  0.99893300  0.43757600  1
  C  C26  1  0.00283000  0.87697700  0.43719400  1
  C  C27  1  0.12322200  0.00261000  0.43465300  1
  C  C28  1  0.99874800  0.12321200  0.43503700  1
  C  C29  1  0.12312600  0.99714200  0.56235000  1
  C  C30  1  0.99746100  0.87674700  0.56490700  1
  C  C31  1  0.87689200  0.00124000  0.56569200  1
  C  C32  1  0.00115300  0.12299100  0.56314400  1
  C  C33  1  0.37685400  0.49729500  0.93777200  1
  C  C34  1  0.50246900  0.37676100  0.93504000  1
  C  C35  1  0.62308700  0.50110700  0.93404300  1
  C  C36  1  0.49889900  0.62301200  0.93679800  1
  C  C37  1  0.62304300  0.49881700  0.06216000  1
  C  C38  1  0.49712900  0.37699800  0.06275900  1
  C  C39  1  0.37680300  0.50276600  0.06546900  1
  C  C40  1  0.50132000  0.62322700  0.06490300  1
  C  C41  1  0.84152400  0.99896100  0.43749000  1
  C  C42  1  0.00290500  0.84151900  0.43695200  1
  C  C43  1  0.15868000  0.00258600  0.43479000  1
  C  C44  1  0.99865500  0.15866800  0.43533500  1
  C  C45  1  0.15858300  0.99706300  0.56242800  1
  C  C46  1  0.99747800  0.84129000  0.56460800  1
  C  C47  1  0.84143500  0.00133200  0.56555300  1
  C  C48  1  0.00112300  0.15844900  0.56339000  1
  C  C49  1  0.34139600  0.49730400  0.93773400  1
  C  C50  1  0.50245500  0.34130400  0.93534900  1
  C  C51  1  0.65854500  0.50110700  0.93412100  1
  C  C52  1  0.49892600  0.65846900  0.93655900  1
  C  C53  1  0.65850000  0.49875400  0.06218600  1
  C  C54  1  0.49705800  0.34154000  0.06301000  1
  C  C55  1  0.34134500  0.50283000  0.06537200  1
  C  C56  1  0.50140800  0.65868300  0.06461200  1
  C  C57  1  0.82346200  0.00018000  0.50146300  1
  C  C58  1  0.00021800  0.82338800  0.50064400  1
  C  C59  1  0.17664800  0.99979800  0.49866400  1
  C  C60  1  0.99985700  0.17657600  0.49950000  1
  C  C61  1  0.32335400  0.50009200  0.00151600  1
  C  C62  1  0.49973400  0.32340600  0.99932100  1
  C  C63  1  0.67654000  0.49991100  0.99817900  1
  C  C64  1  0.50019500  0.67659400  0.00045200  1
  C  C65  1  0.89489100  0.00005900  0.50169100  1
  C  C66  1  0.00012500  0.89481600  0.50118800  1
  C  C67  1  0.10522000  0.99990100  0.49844700  1
  C  C68  1  0.99997900  0.10514800  0.49895300  1
  C  C69  1  0.39478300  0.50001900  0.00165300  1
  C  C70  1  0.49982000  0.39483300  0.99875800  1
  C  C71  1  0.60511100  0.49997200  0.99807600  1
  C  C72  1  0.50008000  0.60516500  0.00098500  1
  C  C73  1  0.76771000  0.01842500  0.44952100  1
  C  C74  1  0.98343800  0.76761400  0.44667000  1
  C  C75  1  0.23248700  0.98285000  0.44522900  1
  C  C76  1  0.01782500  0.23253100  0.44809400  1
  C  C77  1  0.23247100  0.01654300  0.55245000  1
  C  C78  1  0.01720200  0.76750100  0.55379400  1
  C  C79  1  0.76755100  0.98217900  0.55304300  1
  C  C80  1  0.98164800  0.23228300  0.55172100  1
  C  C81  1  0.26758800  0.51705100  0.94778000  1
  C  C82  1  0.48275500  0.26750900  0.94620500  1
  C  C83  1  0.73236100  0.48168300  0.94653000  1
  C  C84  1  0.51838400  0.73231000  0.94824300  1
  C  C85  1  0.73238300  0.51794600  0.05002600  1
  C  C86  1  0.51654000  0.26764100  0.05330100  1
  C  C87  1  0.26745900  0.48336100  0.05500700  1
  C  C88  1  0.48221300  0.73253900  0.05187900  1
  C  C89  1  0.73227200  0.01845100  0.44940800  1
  C  C90  1  0.98355700  0.73217600  0.44642500  1
  C  C91  1  0.26792500  0.98282700  0.44536600  1
  C  C92  1  0.01767800  0.26796800  0.44832400  1
  C  C93  1  0.26790800  0.01641600  0.55256700  1
  C  C94  1  0.01721600  0.73206400  0.55353000  1
  C  C95  1  0.73211300  0.98231500  0.55292800  1
  C  C96  1  0.98161000  0.26772200  0.55194700  1
  C  C97  1  0.23215100  0.51708000  0.94771600  1
  C  C98  1  0.48275100  0.23207200  0.94648400  1
  C  C99  1  0.76779900  0.48165300  0.94662800  1
  C  C100  1  0.51841400  0.76774800  0.94803200  1
  C  C101  1  0.76782000  0.51780700  0.05012200  1
  C  C102  1  0.51643000  0.23220300  0.05356200  1
  C  C103  1  0.23202100  0.48349500  0.05492200  1
  C  C104  1  0.48235200  0.76797600  0.05166300  1
  C  C105  1  0.71431800  0.00042500  0.50111200  1
  C  C106  1  0.00042100  0.71424600  0.49985000  1
  C  C107  1  0.28579000  0.99958100  0.49903400  1
  C  C108  1  0.99959300  0.28571900  0.50024300  1
  C  C109  1  0.21421200  0.50033100  0.00128300  1
  C  C110  1  0.49956000  0.21426400  0.00016000  1
  C  C111  1  0.78568400  0.49968100  0.99843300  1
  C  C112  1  0.50043000  0.78573600  0.99974800  1
  C  C113  1  0.78564100  0.00026100  0.50133900  1
  C  C114  1  0.00028600  0.78556700  0.50036400  1
  C  C115  1  0.21446900  0.99973200  0.49877900  1
  C  C116  1  0.99978000  0.21439700  0.49978300  1
  C  C117  1  0.28553300  0.50016600  0.00143100  1
  C  C118  1  0.49967700  0.28558500  0.99961500  1
  C  C119  1  0.71436100  0.49985200  0.99823700  1
  C  C120  1  0.50026100  0.71441400  0.00017900  1
  C  C121  1  0.65846700  0.97004500  0.49155300  1
  C  C122  1  0.03123200  0.65853600  0.49330200  1
  C  C123  1  0.34165800  0.03014200  0.49312400  1
  C  C124  1  0.96889100  0.34141200  0.49118200  1
  C  C125  1  0.34148700  0.96873400  0.50542500  1
  C  C126  1  0.96983200  0.65839200  0.50575900  1
  C  C127  1  0.65860500  0.03107900  0.51029200  1
  C  C128  1  0.02993600  0.34159000  0.50976500  1
  C  C129  1  0.15834900  0.46977700  0.99498500  1
  C  C130  1  0.53015500  0.15841200  0.99426200  1
  C  C131  1  0.84157600  0.53001700  0.98929900  1
  C  C132  1  0.47008000  0.84160600  0.99026400  1
  C  C133  1  0.84135700  0.46898700  0.00808600  1
  C  C134  1  0.46875600  0.15855100  0.00676300  1
  C  C135  1  0.15851000  0.53118500  0.00727700  1
  C  C136  1  0.53112500  0.84143200  0.00884100  1
  C  C137  1  0.62298500  0.97023600  0.49278300  1
  C  C138  1  0.03118000  0.62305500  0.49460300  1
  C  C139  1  0.37713600  0.02991800  0.49466800  1
  C  C140  1  0.96888500  0.37689200  0.49259900  1
  C  C141  1  0.37696900  0.96877500  0.50420800  1
  C  C142  1  0.97004300  0.62291300  0.50429600  1
  C  C143  1  0.62312600  0.03107000  0.50877000  1
  C  C144  1  0.02972800  0.37707100  0.50843200  1
  C  C145  1  0.12286800  0.47001100  0.99619200  1
  C  C146  1  0.52994800  0.12293300  0.99574400  1
  C  C147  1  0.87705500  0.52980400  0.99089400  1
  C  C148  1  0.47028400  0.87708600  0.99161800  1
  C  C149  1  0.87683900  0.46897400  0.00692700  1
  C  C150  1  0.46881200  0.12307000  0.00548100  1
  C  C151  1  0.12303100  0.53115400  0.00572300  1
  C  C152  1  0.53112700  0.87691200  0.00744500  1
  C  C153  1  0.60515500  0.00069900  0.50069700  1
  C  C154  1  0.00065200  0.60508400  0.49944100  1
  C  C155  1  0.39495300  0.99930000  0.49952200  1
  C  C156  1  0.99925400  0.39488200  0.50050800  1
  C  C157  1  0.10504900  0.50063400  0.00084900  1
  C  C158  1  0.49934100  0.10510100  0.00062900  1
  C  C159  1  0.89484700  0.49933300  0.99903400  1
  C  C160  1  0.50075600  0.89490000  0.99954800  1
  C  C161  1  0.67657100  0.00051700  0.50099100  1
  C  C162  1  0.00049300  0.67649900  0.49960200  1
  C  C163  1  0.32353700  0.99948400  0.49919200  1
  C  C164  1  0.99947000  0.32346600  0.50043000  1
  C  C165  1  0.17646500  0.50043100  0.00120000  1
  C  C166  1  0.49949200  0.17651700  0.00043000  1
  C  C167  1  0.82343100  0.49956000  0.99859200  1
  C  C168  1  0.50054900  0.82348300  0.99958500  1
  C  C169  1  0.00008600  0.93253300  0.50147900  1
  C  C170  1  0.06750200  0.99994600  0.49833300  1
  C  C171  1  0.00002800  0.06743000  0.49866200  1
  C  C172  1  0.93260800  0.00001200  0.50180600  1
  C  C173  1  0.49987000  0.43255100  0.99846200  1
  C  C174  1  0.56739300  0.49998100  0.99802100  1
  C  C175  1  0.50002100  0.56744800  0.00127300  1
  C  C176  1  0.43250100  0.50001200  0.00171300  1
  C  C177  1  0.67607400  0.93734200  0.47810200  1
  C  C178  1  0.67018400  0.90966800  0.52294400  1
  C  C179  1  0.68638800  0.87870600  0.51040900  1
  C  C180  1  0.70824800  0.87517600  0.45256600  1
  C  C181  1  0.71372300  0.90255600  0.40693900  1
  C  C182  1  0.69753400  0.93352600  0.41939800  1
  C  C183  1  0.06412700  0.67629600  0.48316100  1
  C  C184  1  0.09076500  0.67052900  0.53072900  1
  C  C185  1  0.12190400  0.68687900  0.52132000  1
  C  C186  1  0.12665700  0.70876300  0.46390100  1
  C  C187  1  0.10033200  0.71411800  0.41558100  1
  C  C188  1  0.06918800  0.69778400  0.42491400  1
  C  C189  1  0.32407400  0.06312700  0.48293100  1
  C  C190  1  0.32987300  0.08970300  0.53063300  1
  C  C191  1  0.31369500  0.12092800  0.52117200  1
  C  C192  1  0.29195300  0.12582800  0.46357100  1
  C  C193  1  0.28657100  0.09956400  0.41512000  1
  C  C194  1  0.30273300  0.06833400  0.42450400  1
  C  C195  1  0.93628000  0.32364100  0.47769500  1
  C  C196  1  0.90860400  0.32929700  0.52266100  1
  C  C197  1  0.87772500  0.31293900  0.51009500  1
  C  C198  1  0.87428100  0.29115900  0.45209800  1
  C  C199  1  0.90166100  0.28592000  0.40634900  1
  C  C200  1  0.93254600  0.30226300  0.41883900  1
  C  C201  1  0.32371300  0.93584000  0.51546100  1
  C  C202  1  0.32946500  0.90923800  0.46779800  1
  C  C203  1  0.31310500  0.87809800  0.47710800  1
  C  C204  1  0.29122600  0.87330700  0.53452200  1
  C  C205  1  0.28588800  0.89959500  0.58293800  1
  C  C206  1  0.30223300  0.93074100  0.57370400  1
  C  C207  1  0.93685900  0.67598900  0.51601600  1
  C  C208  1  0.91026300  0.67020500  0.46835600  1
  C  C209  1  0.87904700  0.68639400  0.47787600  1
  C  C210  1  0.87417600  0.70813000  0.53549700  1
  C  C211  1  0.90046000  0.71349600  0.58390900  1
  C  C212  1  0.93168100  0.69732300  0.57446500  1
  C  C213  1  0.67635400  0.06369100  0.52389900  1
  C  C214  1  0.67068400  0.09140200  0.47903100  1
  C  C215  1  0.68702500  0.12227900  0.49171000  1
  C  C216  1  0.70880300  0.12568700  0.54972200  1
  C  C217  1  0.71405700  0.09827300  0.59537100  1
  C  C218  1  0.69773200  0.06738800  0.58276700  1
  C  C219  1  0.06265600  0.32400400  0.52316500  1
  C  C220  1  0.09031100  0.32990800  0.47827800  1
  C  C221  1  0.12128700  0.31372100  0.49076600  1
  C  C222  1  0.12484900  0.29186400  0.54860500  1
  C  C223  1  0.09748900  0.28637500  0.59427400  1
  C  C224  1  0.06650500  0.30254500  0.58186200  1
  C  C225  1  0.17594400  0.43678700  0.98495700  1
  C  C226  1  0.17005400  0.41022200  0.03263800  1
  C  C227  1  0.18624000  0.37899100  0.02333100  1
  C  C228  1  0.20808200  0.37407300  0.96590100  1
  C  C229  1  0.21355500  0.40032500  0.91746700  1
  C  C230  1  0.19738400  0.43156200  0.92669800  1
  C  C231  1  0.56312500  0.17601100  0.98397300  1
  C  C232  1  0.58972900  0.17023500  0.03161800  1
  C  C233  1  0.62094200  0.18642400  0.02206800  1
  C  C234  1  0.62580200  0.20815400  0.96443200  1
  C  C235  1  0.59950900  0.21351300  0.91603600  1
  C  C236  1  0.56829100  0.19733900  0.92551100  1
  C  C237  1  0.82401900  0.56272900  0.97564700  1
  C  C238  1  0.82984100  0.59041600  0.02049200  1
  C  C239  1  0.81368400  0.62138500  0.00776700  1
  C  C240  1  0.79193900  0.62490700  0.94973200  1
  C  C241  1  0.78653300  0.59751300  0.90410800  1
  C  C242  1  0.80267400  0.56653700  0.91675700  1
  C  C243  1  0.43736100  0.82401700  0.97685600  1
  C  C244  1  0.40970600  0.82991400  0.02174600  1
  C  C245  1  0.37873100  0.81372700  0.00924800  1
  C  C246  1  0.37517000  0.79187800  0.95139500  1
  C  C247  1  0.40253100  0.78639700  0.90572300  1
  C  C248  1  0.43351400  0.80256700  0.91814600  1
  C  C249  1  0.82355800  0.43638800  0.02154700  1
  C  C250  1  0.82929500  0.40867300  0.97673000  1
  C  C251  1  0.81290700  0.37780800  0.98927300  1
  C  C252  1  0.79101600  0.37441600  0.04710100  1
  C  C253  1  0.78569400  0.40183500  0.09270500  1
  C  C254  1  0.80206600  0.43270700  0.08023700  1
  C  C255  1  0.43586200  0.17630900  0.01692100  1
  C  C256  1  0.40921600  0.17053400  0.96937700  1
  C  C257  1  0.37807700  0.18688300  0.97880100  1
  C  C258  1  0.37333300  0.20877500  0.03621100  1
  C  C259  1  0.39966600  0.21413700  0.08450800  1
  C  C260  1  0.43081000  0.19780400  0.07516000  1
  C  C261  1  0.17627300  0.56407400  0.01746600  1
  C  C262  1  0.17061100  0.59068400  0.96977300  1
  C  C263  1  0.18696300  0.62181900  0.97922600  1
  C  C264  1  0.20874300  0.62659700  0.03681000  1
  C  C265  1  0.21398900  0.60030200  0.08525100  1
  C  C266  1  0.19765300  0.56916100  0.07587500  1
  C  C267  1  0.56373800  0.82366300  0.02231800  1
  C  C268  1  0.59141300  0.82932500  0.97735400  1
  C  C269  1  0.62229300  0.81296800  0.98991000  1
  C  C270  1  0.62573900  0.79118200  0.04789700  1
  C  C271  1  0.59836100  0.78593600  0.09364500  1
  C  C272  1  0.56747400  0.80227800  0.08116400  1
  O  O1  1  0.55139600  0.03048500  0.50230900  1
  O  O2  1  0.97112000  0.55116600  0.49812000  1
  O  O3  1  0.44870900  0.96951100  0.49816200  1
  O  O4  1  0.02877500  0.44880200  0.50203300  1
  O  O5  1  0.44886800  0.02882800  0.50137600  1
  O  O6  1  0.03043900  0.55133000  0.50122900  1
  O  O7  1  0.55123800  0.97117500  0.49862500  1
  O  O8  1  0.96946400  0.44863600  0.49845400  1
  O  O9  1  0.05131100  0.53044700  0.99877500  1
  O  O10  1  0.46955800  0.05134500  0.99887200  1
  O  O11  1  0.94858600  0.46952200  0.00137300  1
  O  O12  1  0.53054300  0.94865600  0.00159600  1
  O  O13  1  0.94878200  0.52883200  0.99769100  1
  O  O14  1  0.52887800  0.05118600  0.00193600  1
  O  O15  1  0.05111600  0.47113000  0.00198700  1
  O  O16  1  0.47123000  0.94881700  0.99806100  1
  O  O17  1  0.50061800  0.03035800  0.60757700  1
  O  O18  1  0.97094900  0.49927500  0.60683900  1
  O  O19  1  0.49913100  0.97095400  0.60694000  1
  O  O20  1  0.03035000  0.50094300  0.60735500  1
  O  O21  1  0.50106700  0.02904400  0.39329700  1
  O  O22  1  0.02895200  0.50060000  0.39307700  1
  O  O23  1  0.49939700  0.96964300  0.39266000  1
  O  O24  1  0.96954700  0.49911500  0.39256100  1
  O  O25  1  0.00051300  0.52903000  0.10679000  1
  O  O26  1  0.47107400  0.00061400  0.10702100  1
  O  O27  1  0.99899900  0.46962600  0.10740500  1
  O  O28  1  0.53047900  0.99913400  0.10749100  1
  O  O29  1  0.00099000  0.53033800  0.89251100  1
  O  O30  1  0.52902900  0.99929600  0.89321400  1
  O  O31  1  0.99929200  0.47093700  0.89312400  1
  O  O32  1  0.46962700  0.00096000  0.89274500  1
  O  O33  1  0.99926700  0.94853200  0.56353300  1
  O  O34  1  0.05134200  0.99911300  0.56024200  1
  O  O35  1  0.99940200  0.05120300  0.56050500  1
  O  O36  1  0.94867400  0.99927400  0.56378800  1
  O  O37  1  0.00085500  0.94876000  0.43964300  1
  O  O38  1  0.94876900  0.00070300  0.43989000  1
  O  O39  1  0.00069900  0.05143100  0.43660100  1
  O  O40  1  0.05143700  0.00083400  0.43636000  1
  O  O41  1  0.49913300  0.44877900  0.06029800  1
  O  O42  1  0.55125600  0.50068500  0.05996300  1
  O  O43  1  0.49936200  0.55144900  0.06333500  1
  O  O44  1  0.44858900  0.50088800  0.06366100  1
  O  O45  1  0.50067700  0.44854800  0.93640600  1
  O  O46  1  0.44863800  0.49916700  0.93977900  1
  O  O47  1  0.50061500  0.55122000  0.93942900  1
  O  O48  1  0.55130400  0.49925500  0.93606500  1
  F  F1  1  0.72414900  0.84472700  0.44025600  1
  F  F2  1  0.15728000  0.72480700  0.45466400  1
  F  F3  1  0.27608000  0.15653600  0.45428200  1
  F  F4  1  0.84391500  0.27510600  0.43975700  1
  F  F5  1  0.27517200  0.84268300  0.54366200  1
  F  F6  1  0.84347800  0.72401400  0.54484500  1
  F  F7  1  0.72483800  0.15605200  0.56217300  1
  F  F8  1  0.15531200  0.27598100  0.56086800  1
  F  F9  1  0.22396400  0.34335900  0.95676300  1
  F  F10  1  0.65649800  0.22403900  0.95505500  1
  F  F11  1  0.77608500  0.65536400  0.93723500  1
  F  F12  1  0.34470800  0.77599500  0.93912100  1
  F  F13  1  0.77493500  0.34406300  0.05941900  1
  F  F14  1  0.34271100  0.22481900  0.04546200  1
  F  F15  1  0.22478800  0.65721600  0.04609000  1
  F  F16  1  0.65610700  0.77513000  0.06022900  1
