# generated using pymatgen
data_ZnH8C16(NO)4
_symmetry_space_group_name_H-M   'P 1'
_cell_length_a   25.82309900
_cell_length_b   25.78435000
_cell_length_c   34.18318500
_cell_angle_alpha   99.94549300
_cell_angle_beta   110.80398000
_cell_angle_gamma   82.65059700
_symmetry_Int_Tables_number   1
_chemical_formula_structural   ZnH8C16(NO)4
_chemical_formula_sum   'Zn8 H64 C128 N32 O32'
_cell_volume   20901.72054342
_cell_formula_units_Z   8
loop_
 _symmetry_equiv_pos_site_id
 _symmetry_equiv_pos_as_xyz
  1  'x, y, z'
loop_
 _atom_site_type_symbol
 _atom_site_label
 _atom_site_symmetry_multiplicity
 _atom_site_fract_x
 _atom_site_fract_y
 _atom_site_fract_z
 _atom_site_occupancy
  Zn  Zn1  1  0.97202700  0.54117200  0.61114600  1
  Zn  Zn2  1  0.06822200  0.47504200  0.59887200  1
  Zn  Zn3  1  0.49803700  0.79460100  0.47511800  1
  Zn  Zn4  1  0.42355300  0.74063900  0.39566500  1
  Zn  Zn5  1  0.37778300  0.06457700  0.75830300  1
  Zn  Zn6  1  0.41720700  0.02208400  0.83978200  1
  Zn  Zn7  1  0.08509100  0.16606100  0.13351300  1
  Zn  Zn8  1  0.06213700  0.28150600  0.13017600  1
  H  H1  1  0.94146100  0.38991300  0.49652700  1
  H  H2  1  0.19891100  0.77883800  0.44793500  1
  H  H3  1  0.31031700  0.84508200  0.56706000  1
  H  H4  1  0.37707300  0.85262900  0.53428800  1
  H  H5  1  0.05940600  0.73880700  0.55942100  1
  H  H6  1  0.02134900  0.67440900  0.58398300  1
  H  H7  1  0.18532700  0.61095300  0.64723000  1
  H  H8  1  0.22352800  0.67796300  0.62503200  1
  H  H9  1  0.98038200  0.44330500  0.70655600  1
  H  H10  1  0.00514400  0.37451700  0.75215900  1
  H  H11  1  0.17626800  0.40382400  0.78907600  1
  H  H12  1  0.84938500  0.40596300  0.44718100  1
  H  H13  1  0.15127700  0.46985500  0.74152200  1
  H  H14  1  0.23240900  0.20370900  0.87668700  1
  H  H15  1  0.29533500  0.12591700  0.87387500  1
  H  H16  1  0.19398100  0.07666100  0.74695700  1
  H  H17  1  0.12941700  0.15290200  0.75023800  1
  H  H18  1  0.91323300  0.28624500  0.16844200  1
  H  H19  1  0.88377200  0.33227000  0.22596000  1
  H  H20  1  0.01434200  0.24637400  0.31235100  1
  H  H21  1  0.04207500  0.19917200  0.25410700  1
  H  H22  1  0.86348400  0.45901100  0.39967400  1
  H  H23  1  0.78292600  0.41344300  0.54610100  1
  H  H24  1  0.88170300  0.50936200  0.47014400  1
  H  H25  1  0.04858400  0.52220400  0.47868700  1
  H  H26  1  0.03137800  0.47061400  0.41005800  1
  H  H27  1  0.53236400  0.65649300  0.54564900  1
  H  H28  1  0.50679800  0.64771000  0.60521700  1
  H  H29  1  0.33623100  0.64525500  0.52516500  1
  H  H30  1  0.36285800  0.65260900  0.46565700  1
  H  H31  1  0.42967000  0.76931100  0.74890000  1
  H  H32  1  0.42824800  0.85672900  0.78964100  1
  H  H33  1  0.31522500  0.91716000  0.67921700  1
  H  H34  1  0.87478500  0.39677300  0.59468700  1
  H  H35  1  0.31566100  0.83056600  0.63926100  1
  H  H36  1  0.25845500  0.22650900  0.19130200  1
  H  H37  1  0.33652100  0.17609600  0.23527900  1
  H  H38  1  0.25904100  0.19574900  0.32892300  1
  H  H39  1  0.18029200  0.24432100  0.28357700  1
  H  H40  1  0.38624000  0.95086900  0.28828800  1
  H  H41  1  0.41375700  0.86633200  0.31539000  1
  H  H42  1  0.47429400  0.94780300  0.44110500  1
  H  H43  1  0.44496700  0.03155100  0.41430600  1
  H  H44  1  0.34036000  0.21908100  0.82009800  1
  H  H45  1  0.61589700  0.55204500  0.37261300  1
  H  H46  1  0.30623100  0.27088800  0.87272600  1
  H  H47  1  0.45253600  0.22064700  0.97000100  1
  H  H48  1  0.48615300  0.16903900  0.91700400  1
  H  H49  1  0.18502000  0.30164000  0.99652500  1
  H  H50  1  0.12353900  0.28947800  0.03272100  1
  H  H51  1  0.22911100  0.15829200  0.08411000  1
  H  H52  1  0.29204900  0.17074900  0.04803400  1
  H  H53  1  0.90247300  0.26650100  0.01478400  1
  H  H54  1  0.82635100  0.23549400  0.95136400  1
  H  H55  1  0.90586600  0.07913500  0.95411600  1
  H  H56  1  0.55069500  0.63018700  0.36088900  1
  H  H57  1  0.97973200  0.10947900  0.01613200  1
  H  H58  1  0.63275700  0.13512600  0.80033200  1
  H  H59  1  0.53831400  0.10825100  0.77277400  1
  H  H60  1  0.59048300  0.97601700  0.84110100  1
  H  H61  1  0.68515900  0.00125500  0.86725000  1
  H  H62  1  0.64762800  0.70837900  0.48100500  1
  H  H63  1  0.70985100  0.63010700  0.49298900  1
  H  H64  1  0.26619900  0.78620700  0.41507300  1
  C  C1  1  0.98625100  0.52356800  0.52512400  1
  C  C2  1  0.41794700  0.13915300  0.83973600  1
  C  C3  1  0.41360000  0.99727700  0.34942500  1
  C  C4  1  0.36746800  0.22290600  0.85271300  1
  C  C5  1  0.34772100  0.25197100  0.88292700  1
  C  C6  1  0.37613700  0.24782400  0.92513000  1
  C  C7  1  0.42902300  0.22343500  0.93714100  1
  C  C8  1  0.44855800  0.19448800  0.90699100  1
  C  C9  1  0.41521500  0.19006600  0.86512300  1
  C  C10  1  0.28043400  0.24567700  0.99829900  1
  C  C11  1  0.34556700  0.25460900  0.95451500  1
  C  C12  1  0.19521500  0.26977600  0.01538500  1
  C  C13  1  0.37747000  0.94661800  0.75937200  1
  C  C14  1  0.16029600  0.26288700  0.03605800  1
  C  C15  1  0.17208100  0.22285900  0.06069400  1
  C  C16  1  0.21905500  0.18923800  0.06436500  1
  C  C17  1  0.25497000  0.19693600  0.04442200  1
  C  C18  1  0.24325000  0.23751800  0.02007700  1
  C  C19  1  0.90354000  0.22552300  0.00105300  1
  C  C20  1  0.86058500  0.20787900  0.96504100  1
  C  C21  1  0.86025400  0.15491000  0.94833200  1
  C  C22  1  0.90427900  0.12051700  0.96661800  1
  C  C23  1  0.94655900  0.13794100  0.00233200  1
  C  C24  1  0.50049700  0.03363700  0.79906900  1
  C  C25  1  0.94586200  0.19008800  0.02043800  1
  C  C26  1  0.71907800  0.09206900  0.85988900  1
  C  C27  1  0.81180500  0.13324000  0.91449800  1
  C  C28  1  0.62427700  0.09894000  0.80808900  1
  C  C29  1  0.57080600  0.08332300  0.79207000  1
  C  C30  1  0.55813000  0.04011600  0.80496000  1
  C  C31  1  0.59996400  0.00963500  0.83050500  1
  C  C32  1  0.65375000  0.02406600  0.84524600  1
  C  C33  1  0.66554100  0.07028600  0.83583800  1
  C  C34  1  0.13700900  0.22102300  0.08561300  1
  C  C35  1  0.16153000  0.23831700  0.20108100  1
  C  C36  1  0.98956900  0.20492500  0.06065800  1
  C  C37  1  0.00893800  0.23008200  0.17773400  1
  C  C38  1  0.90642600  0.38934500  0.50670900  1
  C  C39  1  0.85379000  0.40001500  0.47870500  1
  C  C40  1  0.81007700  0.41384200  0.49368300  1
  C  C41  1  0.95762400  0.42684300  0.57772900  1
  C  C42  1  0.81675700  0.40453500  0.53382300  1
  C  C43  1  0.86912400  0.39357500  0.56148800  1
  C  C44  1  0.91459000  0.39329600  0.54930200  1
  C  C45  1  0.69908200  0.53657000  0.44621600  1
  C  C46  1  0.76494900  0.45198300  0.47400100  1
  C  C47  1  0.62386600  0.58708600  0.39572000  1
  C  C48  1  0.58706400  0.63145700  0.38912800  1
  C  C49  1  0.59438200  0.67517300  0.42000100  1
  C  C50  1  0.64078000  0.67522400  0.45610900  1
  C  C51  1  0.67602900  0.63048300  0.46322100  1
  C  C52  1  0.07712100  0.59257500  0.62247100  1
  C  C53  1  0.66687100  0.58574100  0.43378800  1
  C  C54  1  0.27534000  0.80130200  0.44815000  1
  C  C55  1  0.23693200  0.79713500  0.46688200  1
  C  C56  1  0.24991700  0.81077300  0.51002100  1
  C  C57  1  0.29922600  0.83356400  0.53336400  1
  C  C58  1  0.33726300  0.83825200  0.51459100  1
  C  C59  1  0.32669800  0.81968000  0.47231700  1
  C  C60  1  0.16689000  0.74593900  0.57109600  1
  C  C61  1  0.21707000  0.79332500  0.53200800  1
  C  C62  1  0.08729900  0.71219500  0.58008700  1
  C  C63  1  0.05201200  0.48586100  0.68344200  1
  C  C64  1  0.06588800  0.67611000  0.59452900  1
  C  C65  1  0.10085300  0.63884400  0.61803000  1
  C  C66  1  0.15756600  0.64050600  0.62964600  1
  C  C67  1  0.17905600  0.67846800  0.61706600  1
  C  C68  1  0.14392100  0.71301800  0.59082600  1
  C  C69  1  0.02307700  0.43700100  0.72664400  1
  C  C70  1  0.03727000  0.39747700  0.75202000  1
  C  C71  1  0.09241000  0.38455600  0.77415800  1
  C  C72  1  0.13280400  0.41400000  0.77296300  1
  C  C73  1  0.11875900  0.45162000  0.74604800  1
  C  C74  1  0.54847800  0.71523800  0.41991000  1
  C  C75  1  0.06408400  0.46221500  0.72189200  1
  C  C76  1  0.14910400  0.23720900  0.81027200  1
  C  C77  1  0.10905000  0.33427200  0.79136700  1
  C  C78  1  0.22177400  0.17439100  0.84894900  1
  C  C79  1  0.25702800  0.12964200  0.84760900  1
  C  C80  1  0.24825600  0.09513000  0.81049800  1
  C  C81  1  0.20048400  0.10239900  0.77656100  1
  C  C82  1  0.16393900  0.14591800  0.77849100  1
  C  C83  1  0.17637900  0.18385000  0.81375000  1
  C  C84  1  0.93299300  0.27471700  0.19961600  1
  C  C85  1  0.45648400  0.85097200  0.39778700  1
  C  C86  1  0.91636700  0.30087700  0.23230700  1
  C  C87  1  0.94715800  0.29277600  0.27321800  1
  C  C88  1  0.98966100  0.25317700  0.28047900  1
  C  C89  1  0.00493600  0.22563900  0.24744800  1
  C  C90  1  0.97878300  0.23888600  0.20736000  1
  C  C91  1  0.94411800  0.41544700  0.36756200  1
  C  C92  1  0.94340900  0.33280900  0.30826900  1
  C  C93  1  0.90334300  0.47521600  0.41605600  1
  C  C94  1  0.91340200  0.50443100  0.45570600  1
  C  C95  1  0.96652400  0.51895400  0.47921100  1
  C  C96  1  0.45990300  0.68861400  0.47528400  1
  C  C97  1  0.00690300  0.51091800  0.46075000  1
  C  C98  1  0.99731800  0.48102700  0.42197800  1
  C  C99  1  0.94677300  0.46002600  0.40087600  1
  C  C100  1  0.48974700  0.64989400  0.54036100  1
  C  C101  1  0.47492800  0.64507300  0.57437000  1
  C  C102  1  0.41937100  0.64767500  0.56984300  1
  C  C103  1  0.37997100  0.64380600  0.52969700  1
  C  C104  1  0.39512200  0.64727500  0.49547900  1
  C  C105  1  0.44936700  0.65553900  0.50175800  1
  C  C106  1  0.37951700  0.74447600  0.66456200  1
  C  C107  1  0.37291800  0.80923100  0.45595900  1
  C  C108  1  0.40233300  0.67171500  0.60585300  1
  C  C109  1  0.40298600  0.80124200  0.73380100  1
  C  C110  1  0.40200600  0.85071100  0.75683700  1
  C  C111  1  0.37143700  0.89285400  0.73714600  1
  C  C112  1  0.33909700  0.88461400  0.69515000  1
  C  C113  1  0.33864600  0.83502300  0.67259800  1
  C  C114  1  0.37163800  0.79336100  0.69140000  1
  C  C115  1  0.26072300  0.22391700  0.22311000  1
  C  C116  1  0.30433800  0.19400000  0.24768000  1
  C  C117  1  0.30332600  0.18202300  0.28519800  1
  C  C118  1  0.29619600  0.06439200  0.80289600  1
  C  C119  1  0.26141400  0.20539900  0.30010600  1
  C  C120  1  0.21694800  0.23400300  0.27474900  1
  C  C121  1  0.21500000  0.24092900  0.23508400  1
  C  C122  1  0.39029600  0.04792900  0.33395900  1
  C  C123  1  0.33906000  0.13728200  0.30401000  1
  C  C124  1  0.40666200  0.95049800  0.32185900  1
  C  C125  1  0.42205200  0.90248500  0.33719100  1
  C  C126  1  0.44635200  0.90089100  0.38012100  1
  C  C127  1  0.45602900  0.94779100  0.40735100  1
  C  C128  1  0.43893400  0.99556500  0.39219100  1
  N  N1  1  0.74113800  0.48435700  0.49906500  1
  N  N2  1  0.17883800  0.27909600  0.83052100  1
  N  N3  1  0.09842700  0.24464500  0.78130200  1
  N  N4  1  0.07847900  0.29263500  0.77220300  1
  N  N5  1  0.89708000  0.36512500  0.30494100  1
  N  N6  1  0.89711600  0.40561100  0.33467900  1
  N  N7  1  0.99004900  0.38294200  0.37087800  1
  N  N8  1  0.98972900  0.34214600  0.34166400  1
  N  N9  1  0.35121900  0.69610200  0.59803100  1
  N  N10  1  0.34005200  0.73206000  0.62700200  1
  N  N11  1  0.42976400  0.71795900  0.67343800  1
  N  N12  1  0.70882900  0.52609300  0.48544200  1
  N  N13  1  0.44111600  0.68222300  0.64428200  1
  N  N14  1  0.34795100  0.13145100  0.34430500  1
  N  N15  1  0.37376000  0.08752300  0.35919400  1
  N  N16  1  0.38164600  0.05385400  0.29374400  1
  N  N17  1  0.35657700  0.09807300  0.27905000  1
  N  N18  1  0.36450100  0.22727600  0.98760500  1
  N  N19  1  0.33239100  0.22291100  0.00933400  1
  N  N20  1  0.26192600  0.27425100  0.96594000  1
  N  N21  1  0.29392000  0.27822900  0.94398500  1
  N  N22  1  0.80783700  0.08072400  0.90716300  1
  N  N23  1  0.72160600  0.50359600  0.42043400  1
  N  N24  1  0.76197400  0.06037300  0.88039000  1
  N  N25  1  0.72335300  0.14461900  0.86638700  1
  N  N26  1  0.76920700  0.16506200  0.89351500  1
  N  N27  1  0.75488500  0.46212900  0.43443100  1
  N  N28  1  0.24097000  0.78897100  0.57326500  1
  N  N29  1  0.21649100  0.76531400  0.59258100  1
  N  N30  1  0.14180900  0.75166200  0.53000500  1
  N  N31  1  0.16682800  0.77473600  0.51055200  1
  N  N32  1  0.15924300  0.32698000  0.82097100  1
  O  O1  1  0.95395900  0.54134300  0.54759500  1
  O  O2  1  0.43058800  0.80907500  0.37569900  1
  O  O3  1  0.48527300  0.85083400  0.43793100  1
  O  O4  1  0.49822400  0.70658100  0.39342900  1
  O  O5  1  0.42855400  0.68822400  0.43541600  1
  O  O6  1  0.42335700  0.81880700  0.48172000  1
  O  O7  1  0.36573200  0.77998100  0.41924100  1
  O  O8  1  0.49099000  0.72794800  0.49494200  1
  O  O9  1  0.30534300  0.07055100  0.76872000  1
  O  O10  1  0.43197200  0.09806600  0.86006000  1
  O  O11  1  0.39297100  0.13307900  0.79860600  1
  O  O12  1  0.00816900  0.42165000  0.57600900  1
  O  O13  1  0.33674100  0.04588800  0.83433000  1
  O  O14  1  0.39579600  0.95455300  0.80068500  1
  O  O15  1  0.46042600  0.05524500  0.76926500  1
  O  O16  1  0.48963400  0.01603100  0.82889400  1
  O  O17  1  0.36898300  0.98638500  0.73794200  1
  O  O18  1  0.13238200  0.17738000  0.09885600  1
  O  O19  1  0.13296400  0.27957400  0.18351700  1
  O  O20  1  0.14671400  0.19078600  0.18438900  1
  O  O21  1  0.11071600  0.26523100  0.09536500  1
  O  O22  1  0.99976400  0.25435100  0.07637200  1
  O  O23  1  0.93886100  0.47190900  0.59368600  1
  O  O24  1  0.03484500  0.18434700  0.16966400  1
  O  O25  1  0.01606100  0.27185600  0.16391800  1
  O  O26  1  0.01986300  0.16662900  0.08057100  1
  O  O27  1  0.03434800  0.49869300  0.54235000  1
  O  O28  1  0.10215400  0.54572500  0.61685000  1
  O  O29  1  0.00763000  0.51793700  0.66975300  1
  O  O30  1  0.08011300  0.46567400  0.65855700  1
  O  O31  1  0.02534900  0.59684200  0.62096400  1
  O  O32  1  0.55518200  0.75146600  0.45301100  1
