# generated using pymatgen
data_Fe2H17C46Br(NO4)4
_symmetry_space_group_name_H-M   'P 1'
_cell_length_a   14.41297700
_cell_length_b   9.50916200
_cell_length_c   19.45316900
_cell_angle_alpha   85.61395300
_cell_angle_beta   90.44325200
_cell_angle_gamma   110.03087700
_symmetry_Int_Tables_number   1
_chemical_formula_structural   Fe2H17C46Br(NO4)4
_chemical_formula_sum   'Fe2 H17 C46 Br1 N4 O16'
_cell_volume   2497.05890585
_cell_formula_units_Z   1
loop_
 _symmetry_equiv_pos_site_id
 _symmetry_equiv_pos_as_xyz
  1  'x, y, z'
loop_
 _atom_site_type_symbol
 _atom_site_label
 _atom_site_symmetry_multiplicity
 _atom_site_fract_x
 _atom_site_fract_y
 _atom_site_fract_z
 _atom_site_occupancy
  Fe  Fe1  1  0.47373800  0.97353800  0.09286700  1
  Fe  Fe2  1  0.49047400  0.96686500  0.80884300  1
  H  H1  1  0.15262900  0.02600200  0.81120100  1
  H  H2  1  0.02444100  0.05487000  0.87768700  1
  H  H3  1  0.90797000  0.82916800  0.90955000  1
  H  H4  1  0.75897000  0.83304400  0.85475400  1
  H  H5  1  0.23281500  0.99675100  0.10677600  1
  H  H6  1  0.10798300  0.04991300  0.16846000  1
  H  H7  1  0.96006600  0.10509500  0.17094100  1
  H  H8  1  0.81188900  0.11540300  0.11791000  1
  H  H9  1  0.50997200  0.51699900  0.78941700  1
  H  H10  1  0.51565700  0.27148100  0.61557500  1
  H  H11  1  0.52573800  0.72778500  0.58832700  1
  H  H12  1  0.48086800  0.23656800  0.31185900  1
  H  H13  1  0.48979000  0.69185300  0.28461300  1
  H  H14  1  0.27830400  0.35347200  0.12148900  1
  H  H15  1  0.22496000  0.32675500  0.00146800  1
  H  H16  1  0.52493300  0.44876600  0.93446800  1
  H  H17  1  0.57818700  0.47176000  0.05485800  1
  C  C1  1  0.23343200  0.98134700  0.89793400  1
  C  C2  1  0.15453400  0.00790000  0.86661700  1
  C  C3  1  0.07794500  0.01711100  0.90509700  1
  C  C4  1  0.86671800  0.88972400  0.93254200  1
  C  C5  1  0.23794900  0.97300300  0.96948600  1
  C  C6  1  0.15915700  0.98153700  0.00852900  1
  C  C7  1  0.07440000  0.98992000  0.97626300  1
  C  C8  1  0.99417500  0.99374100  0.01584000  1
  C  C9  1  0.77981100  0.88587100  0.90248800  1
  C  C10  1  0.71708200  0.94291900  0.93379400  1
  C  C11  1  0.89877200  0.96861100  0.99024300  1
  C  C12  1  0.83018400  0.00878300  0.02693800  1
  C  C13  1  0.73612700  0.98849700  0.00017200  1
  C  C14  1  0.16790800  0.99639800  0.07887900  1
  C  C15  1  0.09650200  0.02716400  0.11486600  1
  C  C16  1  0.01081300  0.02762500  0.08352600  1
  C  C17  1  0.94345900  0.06765000  0.11973700  1
  C  C18  1  0.85697100  0.06830300  0.08996700  1
  C  C19  1  0.65349400  0.99039000  0.04464400  1
  C  C20  1  0.46670300  0.70409100  0.14762900  1
  C  C21  1  0.33263200  0.98707900  0.00209700  1
  C  C22  1  0.45823500  0.17798000  0.18200200  1
  C  C23  1  0.51786100  0.77210200  0.71950400  1
  C  C24  1  0.62510200  0.93021300  0.89906700  1
  C  C25  1  0.51048600  0.24879200  0.75489000  1
  C  C26  1  0.31478800  0.97809200  0.85376900  1
  C  C27  1  0.51420900  0.37965600  0.70766800  1
  C  C28  1  0.51696000  0.37387800  0.63674300  1
  C  C29  1  0.51989900  0.49826300  0.59322000  1
  C  C30  1  0.52261600  0.62905800  0.62095700  1
  C  C31  1  0.51647200  0.63359100  0.69110800  1
  C  C32  1  0.51192000  0.50939800  0.73440000  1
  C  C33  1  0.49848300  0.47650000  0.38152000  1
  C  C34  1  0.51577600  0.49144000  0.51809100  1
  C  C35  1  0.47805900  0.33249400  0.27951800  1
  C  C36  1  0.46715000  0.31987800  0.20988300  1
  C  C37  1  0.46161100  0.43868300  0.16668000  1
  C  C38  1  0.46975700  0.57405300  0.19331700  1
  C  C39  1  0.48281200  0.58687500  0.26361100  1
  C  C40  1  0.48653100  0.46588900  0.30687900  1
  C  C41  1  0.43121900  0.41143800  0.09568000  1
  C  C42  1  0.33238800  0.37189300  0.08051000  1
  C  C43  1  0.30251100  0.35795300  0.01319000  1
  C  C44  1  0.37161000  0.38599800  0.96071000  1
  C  C45  1  0.47069200  0.42645300  0.97565700  1
  C  C46  1  0.50050500  0.43786400  0.04322800  1
  Br  Br1  1  0.32933300  0.36699900  0.86776800  1
  N  N1  1  0.51461600  0.61171300  0.47724700  1
  N  N2  1  0.50618500  0.60455800  0.40978300  1
  N  N3  1  0.50019700  0.35649700  0.42232400  1
  N  N4  1  0.50859200  0.36363600  0.48978600  1
  O  O1  1  0.57368500  0.00874100  0.01834300  1
  O  O2  1  0.47612900  0.70551400  0.08055600  1
  O  O3  1  0.65164700  0.94758300  0.11050100  1
  O  O4  1  0.46204600  0.82579200  0.17267000  1
  O  O5  1  0.34054900  0.88832100  0.05069200  1
  O  O6  1  0.41010700  0.10591400  0.98504300  1
  O  O7  1  0.51437800  0.17709400  0.12942100  1
  O  O8  1  0.39438700  0.05202000  0.20941600  1
  O  O9  1  0.45358800  0.76813800  0.76773700  1
  O  O10  1  0.58589300  0.89994800  0.69843000  1
  O  O11  1  0.61788500  0.04376100  0.85911700  1
  O  O12  1  0.55623800  0.79771600  0.89776100  1
  O  O13  1  0.31919200  0.02685800  0.78854100  1
  O  O14  1  0.51218500  0.12335500  0.73146800  1
  O  O15  1  0.38270200  0.92583100  0.87806800  1
  O  O16  1  0.50083900  0.25457000  0.82153700  1
