# generated using pymatgen
data_Zn3H32C36(NO3)4
_symmetry_space_group_name_H-M   'P 1'
_cell_length_a   18.60511900
_cell_length_b   18.60512300
_cell_length_c   38.64073000
_cell_angle_alpha   90.00000000
_cell_angle_beta   90.00000000
_cell_angle_gamma   90.00000000
_symmetry_Int_Tables_number   1
_chemical_formula_structural   Zn3H32C36(NO3)4
_chemical_formula_sum   'Zn12 H128 C144 N16 O48'
_cell_volume   13375.50906957
_cell_formula_units_Z   4
loop_
 _symmetry_equiv_pos_site_id
 _symmetry_equiv_pos_as_xyz
  1  'x, y, z'
loop_
 _atom_site_type_symbol
 _atom_site_label
 _atom_site_symmetry_multiplicity
 _atom_site_fract_x
 _atom_site_fract_y
 _atom_site_fract_z
 _atom_site_occupancy
  Zn  Zn1  1  0.58146600  0.99999800  0.50012200  1
  Zn  Zn2  1  0.00020500  0.58133300  0.50011900  1
  Zn  Zn3  1  0.41861700  0.99983500  0.49993900  1
  Zn  Zn4  1  0.99987400  0.41849000  0.49994000  1
  Zn  Zn5  1  0.08134900  0.50006400  0.00007100  1
  Zn  Zn6  1  0.49980400  0.08144200  0.99994600  1
  Zn  Zn7  1  0.91850800  0.49999200  0.99998700  1
  Zn  Zn8  1  0.50005400  0.91859600  0.00013000  1
  Zn  Zn9  1  0.50011200  0.49992800  0.46078900  1
  Zn  Zn10  1  0.49997300  0.49989900  0.53927100  1
  Zn  Zn11  1  0.99991700  0.00001300  0.96079500  1
  Zn  Zn12  1  0.99993600  0.00003500  0.03927700  1
  H  H1  1  0.39206000  0.03253200  0.39073400  1
  H  H2  1  0.96513700  0.39281900  0.39068200  1
  H  H3  1  0.61120900  0.96845400  0.39047300  1
  H  H4  1  0.03522500  0.61017600  0.39045700  1
  H  H5  1  0.38921100  0.96607500  0.60957900  1
  H  H6  1  0.96949500  0.60839800  0.60939000  1
  H  H7  1  0.60766900  0.03274900  0.60944800  1
  H  H8  1  0.03015100  0.38824700  0.60957100  1
  H  H9  1  0.89254500  0.53450500  0.89069500  1
  H  H10  1  0.46609700  0.88918700  0.89049300  1
  H  H11  1  0.10993500  0.46453100  0.89044700  1
  H  H12  1  0.53277100  0.10764100  0.89062500  1
  H  H13  1  0.88856200  0.47019100  0.10967300  1
  H  H14  1  0.46844500  0.11118900  0.10959900  1
  H  H15  1  0.10868600  0.53095700  0.10929400  1
  H  H16  1  0.53255000  0.89204400  0.10934000  1
  H  H17  1  0.28903900  0.11037300  0.27503500  1
  H  H18  1  0.26847500  0.14703500  0.31735600  1
  H  H19  1  0.31494400  0.20140800  0.28573800  1
  H  H20  1  0.39875100  0.15503800  0.33047500  1
  H  H21  1  0.41935100  0.12084800  0.28787000  1
  H  H22  1  0.35547400  0.00590600  0.30240600  1
  H  H23  1  0.32731100  0.04359800  0.34230000  1
  H  H24  1  0.88502700  0.29139400  0.27519500  1
  H  H25  1  0.84772900  0.27217300  0.31753200  1
  H  H26  1  0.79466900  0.31976100  0.28578500  1
  H  H27  1  0.84316800  0.40266800  0.33041900  1
  H  H28  1  0.87782600  0.42208600  0.28777000  1
  H  H29  1  0.99115600  0.35566400  0.30234400  1
  H  H30  1  0.95283400  0.32832500  0.34223500  1
  H  H31  1  0.71332200  0.89158000  0.27443900  1
  H  H32  1  0.73422500  0.85458100  0.31665300  1
  H  H33  1  0.68750800  0.80045900  0.28502000  1
  H  H34  1  0.60405400  0.84646200  0.32999700  1
  H  H35  1  0.58311500  0.88099600  0.28749500  1
  H  H36  1  0.64710200  0.99582400  0.30212900  1
  H  H37  1  0.67558200  0.95780900  0.34190000  1
  H  H38  1  0.11439700  0.71072400  0.27459600  1
  H  H39  1  0.15212700  0.73029800  0.31680600  1
  H  H40  1  0.20486000  0.68243900  0.28502600  1
  H  H41  1  0.15680800  0.59991400  0.32993900  1
  H  H42  1  0.12172600  0.58013800  0.28741000  1
  H  H43  1  0.00855800  0.64675000  0.30212100  1
  H  H44  1  0.04727900  0.67431900  0.34188700  1
  H  H45  1  0.28692700  0.88780500  0.72505200  1
  H  H46  1  0.26723400  0.85059900  0.68274800  1
  H  H47  1  0.31395400  0.79697900  0.71457500  1
  H  H48  1  0.39760800  0.84409600  0.66988600  1
  H  H49  1  0.41755700  0.87847400  0.71253400  1
  H  H50  1  0.35316000  0.99285300  0.69797600  1
  H  H51  1  0.32485300  0.95497200  0.65813900  1
  H  H52  1  0.89434200  0.71305500  0.72503900  1
  H  H53  1  0.85749500  0.73381500  0.68278000  1
  H  H54  1  0.80279900  0.68844200  0.71463600  1
  H  H55  1  0.84744600  0.60362600  0.66989900  1
  H  H56  1  0.88163700  0.58277800  0.71247800  1
  H  H57  1  0.99748300  0.64451500  0.69767200  1
  H  H58  1  0.95997200  0.67334600  0.65784400  1
  H  H59  1  0.71076900  0.11019700  0.72489100  1
  H  H60  1  0.73019400  0.14769300  0.68261700  1
  H  H61  1  0.68369100  0.20110100  0.71460100  1
  H  H62  1  0.59973800  0.15431000  0.66996200  1
  H  H63  1  0.58006100  0.11963700  0.71258400  1
  H  H64  1  0.64436300  0.00535300  0.69774100  1
  H  H65  1  0.67238300  0.04350900  0.65791800  1
  H  H66  1  0.10607900  0.28444200  0.72522300  1
  H  H67  1  0.14255300  0.26343300  0.68291700  1
  H  H68  1  0.19752800  0.30899700  0.71459600  1
  H  H69  1  0.15248200  0.39354700  0.66983900  1
  H  H70  1  0.11865600  0.41464500  0.71245700  1
  H  H71  1  0.00267400  0.35289400  0.69797600  1
  H  H72  1  0.03983700  0.32369000  0.65813700  1
  H  H73  1  0.79092000  0.61360100  0.77502300  1
  H  H74  1  0.77161300  0.65125100  0.81727800  1
  H  H75  1  0.81918200  0.70408000  0.78543300  1
  H  H76  1  0.90209900  0.65607100  0.83018300  1
  H  H77  1  0.92158400  0.62103300  0.78761400  1
  H  H78  1  0.85514500  0.50779900  0.80243500  1
  H  H79  1  0.82792100  0.54647500  0.84226600  1
  H  H80  1  0.38777500  0.78691300  0.77502900  1
  H  H81  1  0.35056000  0.76724800  0.81733400  1
  H  H82  1  0.29695800  0.81397700  0.78550300  1
  H  H83  1  0.34410800  0.89762600  0.83018700  1
  H  H84  1  0.37848500  0.91755200  0.78753700  1
  H  H85  1  0.49284900  0.85313100  0.80209400  1
  H  H86  1  0.45496400  0.82483300  0.84193200  1
  H  H87  1  0.21027800  0.38439500  0.77473800  1
  H  H88  1  0.22987300  0.34706300  0.81702700  1
  H  H89  1  0.18199900  0.29403100  0.78536900  1
  H  H90  1  0.09949400  0.34250300  0.83018400  1
  H  H91  1  0.07969800  0.37719200  0.78758100  1
  H  H92  1  0.14625200  0.49050900  0.80203500  1
  H  H93  1  0.17395200  0.45215600  0.84186200  1
  H  H94  1  0.61029200  0.21073000  0.77519500  1
  H  H95  1  0.64779200  0.23011800  0.81747200  1
  H  H96  1  0.70118200  0.18360700  0.78548400  1
  H  H97  1  0.65434800  0.09965500  0.83011300  1
  H  H98  1  0.61967900  0.08001000  0.78748800  1
  H  H99  1  0.50541300  0.14433600  0.80232800  1
  H  H100  1  0.54356900  0.17234700  0.84215400  1
  H  H101  1  0.78501100  0.39498500  0.22547900  1
  H  H102  1  0.76400000  0.35814800  0.18324600  1
  H  H103  1  0.80964100  0.30347300  0.21502100  1
  H  H104  1  0.89410200  0.34824400  0.17015500  1
  H  H105  1  0.91522000  0.38240500  0.21270900  1
  H  H106  1  0.85338800  0.49823000  0.19804800  1
  H  H107  1  0.82412600  0.46075200  0.15828700  1
  H  H108  1  0.39162500  0.21330800  0.22564300  1
  H  H109  1  0.35462500  0.23423600  0.18343200  1
  H  H110  1  0.30049500  0.18752100  0.21506200  1
  H  H111  1  0.34646900  0.10406900  0.17007900  1
  H  H112  1  0.38100900  0.08310900  0.21257700  1
  H  H113  1  0.49584500  0.14708700  0.19793900  1
  H  H114  1  0.45782600  0.17556900  0.15817000  1
  H  H115  1  0.21361200  0.60688900  0.22474800  1
  H  H116  1  0.23425300  0.64342100  0.18241100  1
  H  H117  1  0.18895700  0.69835000  0.21420000  1
  H  H118  1  0.10402900  0.65335300  0.16959400  1
  H  H119  1  0.08329800  0.61947900  0.21224500  1
  H  H120  1  0.14499200  0.50352800  0.19760600  1
  H  H121  1  0.17374900  0.54074000  0.15770200  1
  H  H122  1  0.61034400  0.78902800  0.22505000  1
  H  H123  1  0.64700200  0.76843400  0.18273200  1
  H  H124  1  0.70138600  0.81490300  0.21434500  1
  H  H125  1  0.65504300  0.89870500  0.16960000  1
  H  H126  1  0.62085000  0.91933000  0.21220200  1
  H  H127  1  0.50589800  0.85546300  0.19766600  1
  H  H128  1  0.54359200  0.82729300  0.15777400  1
  C  C1  1  0.50119700  0.14030800  0.50026500  1
  C  C2  1  0.85964700  0.49887200  0.49986800  1
  C  C3  1  0.49888600  0.85951900  0.49979000  1
  C  C4  1  0.14043900  0.50095000  0.50019700  1
  C  C5  1  0.99851700  0.64041800  0.99979600  1
  C  C6  1  0.35953400  0.99847800  0.00027900  1
  C  C7  1  0.00133800  0.35963100  0.00026800  1
  C  C8  1  0.64031800  0.00156100  0.99980300  1
  C  C9  1  0.50179200  0.00030200  0.43239000  1
  C  C10  1  0.00023000  0.50165800  0.43239400  1
  C  C11  1  0.49828800  0.99956300  0.56766900  1
  C  C12  1  0.99981700  0.49816600  0.56767400  1
  C  C13  1  0.00150100  0.49968100  0.93239300  1
  C  C14  1  0.49958200  0.99826200  0.93240000  1
  C  C15  1  0.99835800  0.50040400  0.06767400  1
  C  C16  1  0.50030800  0.00177300  0.06768000  1
  C  C17  1  0.50081900  0.21740700  0.50041700  1
  C  C18  1  0.78254900  0.49931600  0.49972200  1
  C  C19  1  0.49926500  0.78241900  0.49964000  1
  C  C20  1  0.21753700  0.50050700  0.50034000  1
  C  C21  1  0.99878800  0.71751800  0.99964700  1
  C  C22  1  0.28243300  0.99868200  0.00042700  1
  C  C23  1  0.00106700  0.28253100  0.00042000  1
  C  C24  1  0.71741800  0.00135800  0.99965000  1
  C  C25  1  0.50051000  0.28216200  0.50054600  1
  C  C26  1  0.71779400  0.49963200  0.49958400  1
  C  C27  1  0.49957400  0.71766400  0.49951300  1
  C  C28  1  0.28229200  0.50019200  0.50047600  1
  C  C29  1  0.99902700  0.78227400  0.99951900  1
  C  C30  1  0.21767600  0.99892600  0.00055300  1
  C  C31  1  0.00082700  0.21777500  0.00055100  1
  C  C32  1  0.78217500  0.00111700  0.99952000  1
  C  C33  1  0.43990300  0.01767600  0.37661100  1
  C  C34  1  0.98130800  0.44026900  0.37658900  1
  C  C35  1  0.56325800  0.98343300  0.37646700  1
  C  C36  1  0.01898300  0.56262300  0.37646300  1
  C  C37  1  0.43703000  0.98147100  0.62358300  1
  C  C38  1  0.98367500  0.56031400  0.62348300  1
  C  C39  1  0.55995400  0.01725300  0.62350800  1
  C  C40  1  0.01601800  0.43644400  0.62358400  1
  C  C41  1  0.93996500  0.51826700  0.87659700  1
  C  C42  1  0.48149600  0.93700200  0.87648700  1
  C  C43  1  0.06234000  0.48065900  0.87645600  1
  C  C44  1  0.51727300  0.05992800  0.87656200  1
  C  C45  1  0.93678800  0.48442400  0.12364100  1
  C  C46  1  0.48342800  0.06323800  0.12360400  1
  C  C47  1  0.06064000  0.51683200  0.12342900  1
  C  C48  1  0.51769100  0.93988800  0.12346000  1
  C  C49  1  0.43939100  0.01910800  0.34086300  1
  C  C50  1  0.97998500  0.43978800  0.34084000  1
  C  C51  1  0.56349100  0.98230500  0.34071500  1
  C  C52  1  0.02005900  0.56285900  0.34071100  1
  C  C53  1  0.43677500  0.98019900  0.65933400  1
  C  C54  1  0.98254200  0.56086300  0.65923400  1
  C  C55  1  0.56047000  0.01827600  0.65926000  1
  C  C56  1  0.01733900  0.43619300  0.65933400  1
  C  C57  1  0.93938600  0.51932700  0.84084500  1
  C  C58  1  0.48021900  0.93674900  0.84073700  1
  C  C59  1  0.06247600  0.47931000  0.84070600  1
  C  C60  1  0.51830500  0.06044100  0.84081100  1
  C  C61  1  0.93661800  0.48332900  0.15939200  1
  C  C62  1  0.48230800  0.06347500  0.15935600  1
  C  C63  1  0.06127000  0.51818100  0.15917800  1
  C  C64  1  0.51911600  0.93937600  0.15920900  1
  C  C65  1  0.50137000  0.00078100  0.32259300  1
  C  C66  1  0.99994400  0.50126600  0.32258300  1
  C  C67  1  0.49868900  0.99917400  0.67748700  1
  C  C68  1  0.00000500  0.49860900  0.67747700  1
  C  C69  1  0.00081900  0.49924400  0.82258300  1
  C  C70  1  0.49920000  0.99866100  0.82258400  1
  C  C71  1  0.99906200  0.50081700  0.17747800  1
  C  C72  1  0.50078800  0.00135500  0.17747800  1
  C  C73  1  0.35939200  0.49992200  0.50065300  1
  C  C74  1  0.50020200  0.35926300  0.50070100  1
  C  C75  1  0.64069400  0.49990500  0.49940700  1
  C  C76  1  0.49988300  0.64056300  0.49935800  1
  C  C77  1  0.85927600  0.00076000  0.99936400  1
  C  C78  1  0.99932000  0.85937500  0.99936500  1
  C  C79  1  0.14057500  0.99928700  0.00070800  1
  C  C80  1  0.00053300  0.14067400  0.00070600  1
  C  C81  1  0.50165000  0.00047700  0.39446400  1
  C  C82  1  0.00019300  0.50151100  0.39445900  1
  C  C83  1  0.49842700  0.99942500  0.60560800  1
  C  C84  1  0.99981600  0.49830700  0.60560400  1
  C  C85  1  0.00126400  0.49953400  0.89445900  1
  C  C86  1  0.49944600  0.99840000  0.89446200  1
  C  C87  1  0.99859900  0.50056200  0.10560500  1
  C  C88  1  0.50048200  0.00163200  0.10560600  1
  C  C89  1  0.50094100  0.00120600  0.21545400  1
  C  C90  1  0.99930600  0.50094400  0.21545100  1
  C  C91  1  0.49906900  0.99879800  0.78461400  1
  C  C92  1  0.00058700  0.49909100  0.78461000  1
  C  C93  1  0.00019300  0.49879200  0.71545000  1
  C  C94  1  0.49882600  0.99904300  0.71545700  1
  C  C95  1  0.99973300  0.50116200  0.28461000  1
  C  C96  1  0.50121800  0.00093300  0.28461700  1
  C  C97  1  0.37175000  0.04330100  0.32322300  1
  C  C98  1  0.38003100  0.11930600  0.30935100  1
  C  C99  1  0.30832700  0.14616900  0.29602100  1
  C  C100  1  0.95417200  0.37277900  0.32317700  1
  C  C101  1  0.87838400  0.38289500  0.30931600  1
  C  C102  1  0.84969000  0.31179800  0.29611600  1
  C  C103  1  0.63099300  0.95825900  0.32290500  1
  C  C104  1  0.62260500  0.88236700  0.30890500  1
  C  C105  1  0.69420400  0.85561500  0.29539400  1
  C  C106  1  0.04573400  0.62974800  0.32289600  1
  C  C107  1  0.12138300  0.61951100  0.30888000  1
  C  C108  1  0.14994600  0.69049300  0.29547300  1
  C  C109  1  0.36946700  0.95556100  0.67711900  1
  C  C110  1  0.37838600  0.87962900  0.69098400  1
  C  C111  1  0.30684100  0.85206500  0.70418100  1
  C  C112  1  0.95965200  0.62890200  0.67691900  1
  C  C113  1  0.88363000  0.62192100  0.69093100  1
  C  C114  1  0.85801000  0.69413400  0.70419100  1
  C  C115  1  0.62790700  0.04279000  0.67697200  1
  C  C116  1  0.61909100  0.11862600  0.69097300  1
  C  C117  1  0.69072600  0.14608500  0.70410700  1
  C  C118  1  0.04034000  0.36830400  0.67711800  1
  C  C119  1  0.11648200  0.37537400  0.69096800  1
  C  C120  1  0.14222500  0.30324000  0.70427400  1
  C  C121  1  0.87231700  0.54497200  0.82317800  1
  C  C122  1  0.88237500  0.62063900  0.80915300  1
  C  C123  1  0.81126400  0.64914200  0.79587600  1
  C  C124  1  0.45556300  0.86944700  0.82295200  1
  C  C125  1  0.37963100  0.87838600  0.80908900  1
  C  C126  1  0.35204200  0.80684700  0.79589800  1
  C  C127  1  0.12932500  0.45351100  0.82289700  1
  C  C128  1  0.11908100  0.37773300  0.80904600  1
  C  C129  1  0.19005800  0.34904400  0.79569400  1
  C  C130  1  0.54284100  0.12787100  0.82310000  1
  C  C131  1  0.61867800  0.11903200  0.80910200  1
  C  C132  1  0.64616900  0.19066100  0.79597800  1
  C  C133  1  0.86877800  0.46042000  0.17724800  1
  C  C134  1  0.87592400  0.38438700  0.19122700  1
  C  C135  1  0.80382500  0.35868600  0.20459500  1
  C  C136  1  0.45827300  0.13098000  0.17716500  1
  C  C137  1  0.38238300  0.12260500  0.19116900  1
  C  C138  1  0.35565200  0.19420600  0.20468800  1
  C  C139  1  0.12934100  0.54120400  0.17679400  1
  C  C140  1  0.12238500  0.61733000  0.19067800  1
  C  C141  1  0.19463000  0.64306100  0.20384800  1
  C  C142  1  0.54329800  0.87173300  0.17685000  1
  C  C143  1  0.61930300  0.88000200  0.19072500  1
  C  C144  1  0.64614600  0.80829600  0.20406200  1
  N  N1  1  0.54524100  0.04530500  0.26712800  1
  N  N2  1  0.04301900  0.45611400  0.26709400  1
  N  N3  1  0.45705600  0.95669900  0.26712800  1
  N  N4  1  0.95623500  0.54610100  0.26715200  1
  N  N5  1  0.45479200  0.04328900  0.73301500  1
  N  N6  1  0.95509500  0.45568900  0.73304100  1
  N  N7  1  0.54298300  0.95467500  0.73287000  1
  N  N8  1  0.04548800  0.54204800  0.73283500  1
  N  N9  1  0.95549400  0.45562400  0.76722600  1
  N  N10  1  0.45471200  0.04296700  0.76720100  1
  N  N11  1  0.04547700  0.54240900  0.76702000  1
  N  N12  1  0.54330500  0.95475400  0.76705600  1
  N  N13  1  0.04259500  0.45580300  0.23290900  1
  N  N14  1  0.54532000  0.04522300  0.23294200  1
  N  N15  1  0.95623600  0.54619700  0.23296700  1
  N  N16  1  0.45670200  0.95705000  0.23294400  1
  O  O1  1  0.56340800  0.10724600  0.49935300  1
  O  O2  1  0.89339400  0.56075600  0.49908200  1
  O  O3  1  0.43666700  0.89258200  0.50054400  1
  O  O4  1  0.10669200  0.43905900  0.50082200  1
  O  O5  1  0.56081300  0.89320000  0.49918400  1
  O  O6  1  0.89264300  0.43662900  0.50076700  1
  O  O7  1  0.43927800  0.10662600  0.50103300  1
  O  O8  1  0.10744200  0.56320200  0.49945500  1
  O  O9  1  0.06048000  0.60681600  0.99899200  1
  O  O10  1  0.39306400  0.06048700  0.00088500  1
  O  O11  1  0.93936800  0.39323200  0.00091300  1
  O  O12  1  0.60678700  0.93955900  0.99903600  1
  O  O13  1  0.06350800  0.39277600  0.99947400  1
  O  O14  1  0.39275000  0.93634100  0.99952500  1
  O  O15  1  0.93635700  0.60727400  0.00074700  1
  O  O16  1  0.60710300  0.06368900  0.00071600  1
  O  O17  1  0.56383500  0.00135400  0.44852700  1
  O  O18  1  0.00250000  0.56366800  0.44853400  1
  O  O19  1  0.43983700  0.99910500  0.44864000  1
  O  O20  1  0.99798300  0.43973900  0.44865100  1
  O  O21  1  0.56020900  0.00176300  0.55141200  1
  O  O22  1  0.99862800  0.43612600  0.55153600  1
  O  O23  1  0.43628200  0.99742800  0.55152300  1
  O  O24  1  0.00106400  0.56011500  0.55141800  1
  O  O25  1  0.06355500  0.49759800  0.94849800  1
  O  O26  1  0.50163700  0.06018900  0.94865600  1
  O  O27  1  0.93961600  0.50182700  0.94868400  1
  O  O28  1  0.49759000  0.93625100  0.94854600  1
  O  O29  1  0.06026900  0.49925800  0.05138300  1
  O  O30  1  0.49925400  0.93981500  0.05142900  1
  O  O31  1  0.93627400  0.50141000  0.05157100  1
  O  O32  1  0.50121800  0.06381800  0.05154100  1
  O  O33  1  0.39306800  0.50162000  0.47082600  1
  O  O34  1  0.50185900  0.39290000  0.47086400  1
  O  O35  1  0.60764500  0.50166100  0.46943900  1
  O  O36  1  0.50176000  0.60747500  0.46940200  1
  O  O37  1  0.39244100  0.49812200  0.53062000  1
  O  O38  1  0.49818300  0.60692600  0.52919500  1
  O  O39  1  0.60701800  0.49824900  0.52923400  1
  O  O40  1  0.49836800  0.39235100  0.53065800  1
  O  O41  1  0.89236200  0.99884600  0.96940800  1
  O  O42  1  0.99768400  0.89247600  0.96940900  1
  O  O43  1  0.10693600  0.99776000  0.97086900  1
  O  O44  1  0.99872400  0.10704900  0.97086800  1
  O  O45  1  0.89291600  0.00224400  0.02920300  1
  O  O46  1  0.00212500  0.10757300  0.03066300  1
  O  O47  1  0.10748900  0.00124400  0.03066300  1
  O  O48  1  0.00117100  0.89299900  0.02920300  1
