# generated using pymatgen
data_CuH15C19NO15
_symmetry_space_group_name_H-M   'P 1'
_cell_length_a   15.93948700
_cell_length_b   15.87295000
_cell_length_c   14.45564600
_cell_angle_alpha   89.92544500
_cell_angle_beta   89.93080300
_cell_angle_gamma   90.00533800
_symmetry_Int_Tables_number   1
_chemical_formula_structural   CuH15C19NO15
_chemical_formula_sum   'Cu2 H30 C38 N2 O30'
_cell_volume   3657.36922424
_cell_formula_units_Z   2
loop_
 _symmetry_equiv_pos_site_id
 _symmetry_equiv_pos_as_xyz
  1  'x, y, z'
loop_
 _atom_site_type_symbol
 _atom_site_label
 _atom_site_symmetry_multiplicity
 _atom_site_fract_x
 _atom_site_fract_y
 _atom_site_fract_z
 _atom_site_occupancy
  Cu  Cu1  1  0.50081800  0.50103300  0.59405800  1
  Cu  Cu2  1  0.50176600  0.50158200  0.40891200  1
  H  H1  1  0.04884800  0.37376400  0.42064400  1
  H  H2  1  0.94905200  0.50614800  0.34195800  1
  H  H3  1  0.95393600  0.62878000  0.58161600  1
  H  H4  1  0.61215300  0.06704200  0.41779800  1
  H  H5  1  0.60479400  0.92682600  0.40892700  1
  H  H6  1  0.50602700  0.93256600  0.35285200  1
  H  H7  1  0.37185500  0.53940400  0.92978000  1
  H  H8  1  0.53626400  0.37120400  0.92948600  1
  H  H9  1  0.37782100  0.05213700  0.63667000  1
  H  H10  1  0.31984900  0.11078100  0.44792800  1
  H  H11  1  0.34323900  0.86287500  0.55737800  1
  H  H12  1  0.54085700  0.13876300  0.67762600  1
  H  H13  1  0.46710000  0.94446400  0.68638100  1
  H  H14  1  0.30739300  0.93499300  0.43127200  1
  H  H15  1  0.50110900  0.69118100  0.88260900  1
  H  H16  1  0.99111400  0.33103000  0.60330200  1
  H  H17  1  0.49377900  0.70580300  0.07613000  1
  H  H18  1  0.36149000  0.40679800  0.14416700  1
  H  H19  1  0.29882300  0.51681800  0.06586400  1
  H  H20  1  0.40415000  0.36367300  0.92683900  1
  H  H21  1  0.67645500  0.48863000  0.04851700  1
  H  H22  1  0.59511300  0.32702900  0.09960000  1
  H  H23  1  0.65092400  0.38040400  0.88441700  1
  H  H24  1  0.59336900  0.63642400  0.15330400  1
  H  H25  1  0.65004200  0.58369300  0.94101600  1
  H  H26  1  0.01167600  0.66824200  0.39195100  1
  H  H27  1  0.00810300  0.49971800  0.71438300  1
  H  H28  1  0.64485800  0.89273600  0.63111500  1
  H  H29  1  0.65879900  0.06853200  0.64276100  1
  H  H30  1  0.55780600  0.10525700  0.30250000  1
  C  C1  1  0.50203800  0.33963900  0.50073900  1
  C  C2  1  0.34029900  0.50055500  0.50027900  1
  C  C3  1  0.50049900  0.66297700  0.50225400  1
  C  C4  1  0.66228600  0.50205200  0.50268000  1
  C  C5  1  0.97313000  0.43537400  0.54176600  1
  C  C6  1  0.02725800  0.43197800  0.45567200  1
  C  C7  1  0.25028700  0.49996000  0.49998400  1
  C  C8  1  0.75229900  0.50263700  0.50284100  1
  C  C9  1  0.02847400  0.50040100  0.58479200  1
  C  C10  1  0.08295200  0.49864700  0.49989200  1
  C  C11  1  0.97495700  0.57086900  0.54558100  1
  C  C12  1  0.91962900  0.50386100  0.50116200  1
  C  C13  1  0.02909600  0.56690400  0.45941000  1
  C  C14  1  0.97297700  0.50227700  0.41383300  1
  C  C15  1  0.17470200  0.49939400  0.49990900  1
  C  C16  1  0.82788400  0.50317500  0.50236300  1
  C  C17  1  0.55070700  0.04933600  0.58828700  1
  C  C18  1  0.54525500  0.04827300  0.41746500  1
  C  C19  1  0.54059000  0.95295200  0.41536800  1
  C  C20  1  0.49980700  0.75335500  0.50243200  1
  C  C21  1  0.50068400  0.08115100  0.50425200  1
  C  C22  1  0.54982400  0.95276300  0.58659900  1
  C  C23  1  0.49810300  0.92147800  0.50356400  1
  C  C24  1  0.40705500  0.95364000  0.50306200  1
  C  C25  1  0.40883700  0.05032600  0.50505100  1
  C  C26  1  0.49906600  0.82926100  0.50280100  1
  C  C27  1  0.50147600  0.17335600  0.50202800  1
  C  C28  1  0.50187600  0.24926100  0.50093100  1
  C  C29  1  0.52615600  0.59097300  0.05440400  1
  C  C30  1  0.41251000  0.47939700  0.05411800  1
  C  C31  1  0.41232100  0.48545300  0.94851300  1
  C  C32  1  0.50148000  0.50185900  0.08930600  1
  C  C33  1  0.52725500  0.59056300  0.94811700  1
  C  C34  1  0.50181600  0.50249600  0.91356000  1
  C  C35  1  0.56133300  0.43345800  0.94897200  1
  C  C36  1  0.56491400  0.43547700  0.05479800  1
  C  C37  1  0.50188200  0.50223200  0.81236100  1
  C  C38  1  0.50095600  0.50104700  0.19060500  1
  N  N1  1  0.50180500  0.50197700  0.73233000  1
  N  N2  1  0.50076900  0.50067600  0.27063900  1
  O  O1  1  0.50444400  0.37870800  0.58037400  1
  O  O2  1  0.49927600  0.37905900  0.42118600  1
  O  O3  1  0.37899800  0.50349200  0.58003100  1
  O  O4  1  0.37976400  0.49797100  0.42086100  1
  O  O5  1  0.50329400  0.62354500  0.58177200  1
  O  O6  1  0.49812900  0.62391800  0.42259900  1
  O  O7  1  0.62282500  0.50464400  0.58210500  1
  O  O8  1  0.62358100  0.49912100  0.42294300  1
  O  O9  1  0.36424800  0.08409900  0.58022600  1
  O  O10  1  0.36943500  0.07948200  0.42511700  1
  O  O11  1  0.36112500  0.91988500  0.57692600  1
  O  O12  1  0.51818700  0.08097900  0.67118600  1
  O  O13  1  0.52102000  0.91804800  0.67012900  1
  O  O14  1  0.36851100  0.92820700  0.42087200  1
  O  O15  1  0.46797800  0.64876900  0.91716900  1
  O  O16  1  0.94112500  0.36539900  0.58826900  1
  O  O17  1  0.46684100  0.64994800  0.08398600  1
  O  O18  1  0.38885600  0.39881400  0.08326600  1
  O  O19  1  0.35386200  0.53635700  0.08933600  1
  O  O20  1  0.37540000  0.41522800  0.90579000  1
  O  O21  1  0.64537500  0.45109000  0.09051200  1
  O  O22  1  0.54138900  0.35601100  0.08671300  1
  O  O23  1  0.63987200  0.43835400  0.90651900  1
  O  O24  1  0.60409400  0.61532400  0.08993600  1
  O  O25  1  0.60480800  0.61596300  0.91134000  1
  O  O26  1  0.06167700  0.63719900  0.41400800  1
  O  O27  1  0.05886300  0.49620300  0.67505500  1
  O  O28  1  0.63221700  0.92530500  0.57436600  1
  O  O29  1  0.63383300  0.07657000  0.58059300  1
  O  O30  1  0.50973600  0.08145100  0.33719200  1
