# generated using pymatgen
data_CuH7C13NO10
_symmetry_space_group_name_H-M   'P 1'
_cell_length_a   12.98428000
_cell_length_b   11.06317700
_cell_length_c   9.59364400
_cell_angle_alpha   90.02052200
_cell_angle_beta   95.41462800
_cell_angle_gamma   90.00593500
_symmetry_Int_Tables_number   1
_chemical_formula_structural   CuH7C13NO10
_chemical_formula_sum   'Cu2 H14 C26 N2 O20'
_cell_volume   1371.95257889
_cell_formula_units_Z   2
loop_
 _symmetry_equiv_pos_site_id
 _symmetry_equiv_pos_as_xyz
  1  'x, y, z'
loop_
 _atom_site_type_symbol
 _atom_site_label
 _atom_site_symmetry_multiplicity
 _atom_site_fract_x
 _atom_site_fract_y
 _atom_site_fract_z
 _atom_site_occupancy
  Cu  Cu1  1  0.48819800  0.46256600  0.62460200  1
  Cu  Cu2  1  0.49092200  0.46693000  0.34610200  1
  H  H1  1  0.81928100  0.36575100  0.71626700  1
  H  H2  1  0.00660500  0.35560300  0.72490200  1
  H  H3  1  0.16064100  0.39440900  0.62834000  1
  H  H4  1  0.48714700  0.85227500  0.28034200  1
  H  H5  1  0.53547600  0.86932100  0.59844900  1
  H  H6  1  0.50970700  0.53651100  0.88155800  1
  H  H7  1  0.36557100  0.36447700  0.11059700  1
  H  H8  1  0.56093500  0.49314100  0.09479300  1
  H  H9  1  0.75098500  0.58907800  0.10134200  1
  H  H10  1  0.28125700  0.94271700  0.59610400  1
  H  H11  1  0.27023600  0.20981000  0.71392700  1
  H  H12  1  0.94229400  0.75847100  0.06281400  1
  H  H13  1  0.29901200  0.75588900  0.22644200  1
  H  H14  1  0.65898600  0.05269300  0.11401000  1
  C  C1  1  0.48204100  0.23227500  0.47812700  1
  C  C2  1  0.29091100  0.48009500  0.45533600  1
  C  C3  1  0.50123500  0.69651700  0.49258100  1
  C  C4  1  0.68849600  0.45869300  0.51472500  1
  C  C5  1  0.80245500  0.46710600  0.52599500  1
  C  C6  1  0.17771500  0.49464600  0.44255700  1
  C  C7  1  0.02104600  0.58379100  0.33509200  1
  C  C8  1  0.12716100  0.56540800  0.33882100  1
  C  C9  1  0.12183200  0.44528700  0.54354600  1
  C  C10  1  0.01594500  0.45729400  0.53685400  1
  C  C11  1  0.96298000  0.52281600  0.43011600  1
  C  C12  1  0.85433600  0.52538500  0.42322900  1
  C  C13  1  0.85837100  0.41092500  0.63638300  1
  C  C14  1  0.96420400  0.40436600  0.64032800  1
  C  C15  1  0.50129600  0.89594200  0.38141700  1
  C  C16  1  0.51331100  0.82825600  0.49760500  1
  C  C17  1  0.51791200  0.02824900  0.38437200  1
  C  C18  1  0.47288300  0.09920900  0.47585000  1
  C  C19  1  0.43361800  0.38613700  0.90978200  1
  C  C20  1  0.42763800  0.40781400  0.06154300  1
  C  C21  1  0.79284700  0.58309000  0.30520700  1
  C  C22  1  0.40318900  0.04517100  0.57043200  1
  C  C23  1  0.37436200  0.28048100  0.85425400  1
  C  C24  1  0.97877600  0.68579900  0.24964100  1
  C  C25  1  0.18761400  0.63675100  0.24653000  1
  C  C26  1  0.58963700  0.07591100  0.28728000  1
  N  N1  1  0.48322300  0.45837200  0.83276400  1
  N  N2  1  0.49412700  0.47048800  0.13797400  1
  O  O1  1  0.48502700  0.28728400  0.59962900  1
  O  O2  1  0.47881900  0.29137800  0.35919200  1
  O  O3  1  0.33867100  0.47654200  0.58158800  1
  O  O4  1  0.34025100  0.47262600  0.34225000  1
  O  O5  1  0.49963600  0.63813400  0.61113500  1
  O  O6  1  0.49547400  0.64208700  0.37107000  1
  O  O7  1  0.63907700  0.45903900  0.62856600  1
  O  O8  1  0.64018800  0.45292100  0.38929700  1
  O  O9  1  0.73468300  0.66637200  0.32611500  1
  O  O10  1  0.79835200  0.54025600  0.16968700  1
  O  O11  1  0.42120400  0.05707500  0.69658300  1
  O  O12  1  0.31967200  0.97492700  0.51694700  1
  O  O13  1  0.36519800  0.19406900  0.93097600  1
  O  O14  1  0.31574300  0.28404000  0.72597800  1
  O  O15  1  0.94560900  0.77426400  0.30671900  1
  O  O16  1  0.97419600  0.68147200  0.10420500  1
  O  O17  1  0.17447200  0.62374800  0.11991200  1
  O  O18  1  0.26388200  0.71538500  0.30381500  1
  O  O19  1  0.64419500  0.16331600  0.31862100  1
  O  O20  1  0.60436600  0.01173600  0.16602100  1
