# generated using pymatgen
data_Fe2H12C39(NO9)2
_symmetry_space_group_name_H-M   'P 1'
_cell_length_a   15.80493300
_cell_length_b   11.97118800
_cell_length_c   13.45276200
_cell_angle_alpha   91.44577300
_cell_angle_beta   87.10235700
_cell_angle_gamma   107.28045700
_symmetry_Int_Tables_number   1
_chemical_formula_structural   Fe2H12C39(NO9)2
_chemical_formula_sum   'Fe2 H12 C39 N2 O18'
_cell_volume   2427.17739000
_cell_formula_units_Z   1
loop_
 _symmetry_equiv_pos_site_id
 _symmetry_equiv_pos_as_xyz
  1  'x, y, z'
loop_
 _atom_site_type_symbol
 _atom_site_label
 _atom_site_symmetry_multiplicity
 _atom_site_fract_x
 _atom_site_fract_y
 _atom_site_fract_z
 _atom_site_occupancy
  Fe  Fe1  1  0.50484300  0.99408900  0.17571700  1
  Fe  Fe2  1  0.50461500  0.97147800  0.74385600  1
  H  H1  1  0.92688600  0.04423600  0.80607000  1
  H  H2  1  0.02764600  0.97704200  0.84262100  1
  H  H3  1  0.78247800  0.03575600  0.76267100  1
  H  H4  1  0.23404900  0.99037400  0.15633100  1
  H  H5  1  0.08952800  0.00154600  0.19603200  1
  H  H6  1  0.94850100  0.02149600  0.23882000  1
  H  H7  1  0.80586200  0.02682600  0.19583500  1
  H  H8  1  0.45951200  0.54291300  0.21683300  1
  H  H9  1  0.49192400  0.09682300  0.45874100  1
  H  H10  1  0.52717900  0.86902100  0.44853600  1
  H  H11  1  0.52273600  0.41114100  0.62350800  1
  H  H12  1  0.52173300  0.58271300  0.61887500  1
  C  C1  1  0.87684100  0.02686000  0.86558100  1
  C  C2  1  0.27503500  0.98625200  0.90794700  1
  C  C3  1  0.19134300  0.98414000  0.87770200  1
  C  C4  1  0.12477900  0.98927200  0.94814500  1
  C  C5  1  0.04172400  0.99035900  0.91980800  1
  C  C6  1  0.97690600  0.00285600  0.98992800  1
  C  C7  1  0.79408100  0.02644000  0.84009200  1
  C  C8  1  0.72476500  0.00427900  0.90951900  1
  C  C9  1  0.89368300  0.00983700  0.96344700  1
  C  C10  1  0.82694300  0.00479700  0.03681500  1
  C  C11  1  0.73994500  0.99475400  0.00977500  1
  C  C12  1  0.28911700  0.98617300  0.00931800  1
  C  C13  1  0.22157200  0.98684500  0.07788600  1
  C  C14  1  0.14091500  0.99182000  0.04771500  1
  C  C15  1  0.07631200  0.99942000  0.11784500  1
  C  C16  1  0.99522600  0.00537200  0.08927900  1
  C  C17  1  0.93294500  0.01505600  0.16116200  1
  C  C18  1  0.84983500  0.01451300  0.13573700  1
  C  C19  1  0.66450200  0.97625700  0.08440800  1
  C  C20  1  0.49663700  0.77598500  0.27194900  1
  C  C21  1  0.37671700  0.00062500  0.04790100  1
  C  C22  1  0.46769400  0.16666000  0.28925900  1
  C  C23  1  0.54205700  0.80847400  0.62340300  1
  C  C24  1  0.63616400  0.98156800  0.87112000  1
  C  C25  1  0.51586000  0.18535400  0.64092100  1
  C  C26  1  0.34798700  0.99083700  0.83328400  1
  C  C27  1  0.49493400  0.18808800  0.46335000  1
  C  C28  1  0.50834700  0.24977700  0.55148700  1
  C  C29  1  0.51153300  0.36690200  0.55281100  1
  C  C30  1  0.48403400  0.24024400  0.37802000  1
  C  C31  1  0.48616300  0.35592400  0.37817600  1
  C  C32  1  0.50038200  0.42215000  0.46519500  1
  C  C33  1  0.50337500  0.54083500  0.46087500  1
  C  C34  1  0.51579000  0.61236500  0.54563300  1
  C  C35  1  0.52373100  0.72883300  0.53822000  1
  C  C36  1  0.47433500  0.51459000  0.28708400  1
  C  C37  1  0.49356200  0.58880000  0.36914400  1
  C  C38  1  0.50181200  0.70915400  0.36262800  1
  C  C39  1  0.51843000  0.77618100  0.44850500  1
  N  N1  1  0.47207800  0.40216700  0.29313800  1
  N  N2  1  0.17350700  0.97583900  0.77437100  1
  O  O1  1  0.59714100  0.01509600  0.06692300  1
  O  O2  1  0.50562000  0.73781000  0.18097400  1
  O  O3  1  0.66219500  0.91718000  0.16567200  1
  O  O4  1  0.49426700  0.88425800  0.28656500  1
  O  O5  1  0.38698500  0.92766600  0.11438100  1
  O  O6  1  0.44121600  0.09674500  0.02844000  1
  O  O7  1  0.53666200  0.15530400  0.23612800  1
  O  O8  1  0.39329800  0.08093100  0.28801200  1
  O  O9  1  0.47795400  0.80755700  0.68964300  1
  O  O10  1  0.60902300  0.90416200  0.61415200  1
  O  O11  1  0.62265300  0.04883900  0.80168300  1
  O  O12  1  0.57506500  0.88277100  0.89239500  1
  O  O13  1  0.34869100  0.03729800  0.74595800  1
  O  O14  1  0.50866100  0.07352600  0.62903900  1
  O  O15  1  0.41375600  0.95066200  0.85422500  1
  O  O16  1  0.52309300  0.23440700  0.72968800  1
  O  O17  1  0.17430900  0.88205800  0.72381700  1
  O  O18  1  0.16301000  0.06514500  0.72892300  1
