# generated using pymatgen
data_Cd4H5C44Br7O16
_symmetry_space_group_name_H-M   'P 1'
_cell_length_a   15.79627300
_cell_length_b   17.53930300
_cell_length_c   17.35801600
_cell_angle_alpha   84.98955600
_cell_angle_beta   62.96300300
_cell_angle_gamma   115.67342500
_symmetry_Int_Tables_number   1
_chemical_formula_structural   Cd4H5C44Br7O16
_chemical_formula_sum   'Cd4 H5 C44 Br7 O16'
_cell_volume   3610.51938866
_cell_formula_units_Z   1
loop_
 _symmetry_equiv_pos_site_id
 _symmetry_equiv_pos_as_xyz
  1  'x, y, z'
loop_
 _atom_site_type_symbol
 _atom_site_label
 _atom_site_symmetry_multiplicity
 _atom_site_fract_x
 _atom_site_fract_y
 _atom_site_fract_z
 _atom_site_occupancy
  Cd  Cd1  1  0.80150700  0.36041800  0.04665500  1
  Cd  Cd2  1  0.20367100  0.63679800  0.95488600  1
  Cd  Cd3  1  0.89785200  0.54008300  0.14721300  1
  Cd  Cd4  1  0.10724500  0.45709200  0.85428300  1
  H  H1  1  0.14808900  0.55843600  0.53689100  1
  H  H2  1  0.61955200  0.03030200  0.33425100  1
  H  H3  1  0.38559000  0.96681000  0.66712300  1
  H  H4  1  0.15897500  0.15672200  0.91545000  1
  H  H5  1  0.19622800  0.03471800  0.92289800  1
  C  C1  1  0.88347300  0.41272100  0.85540600  1
  C  C2  1  0.10540800  0.74269100  0.99588400  1
  C  C3  1  0.73778200  0.51138800  0.09924500  1
  C  C4  1  0.25005900  0.64772900  0.74753200  1
  C  C5  1  0.12180400  0.58433700  0.14624400  1
  C  C6  1  0.89976900  0.25449100  0.00575100  1
  C  C7  1  0.26736900  0.48575000  0.90217700  1
  C  C8  1  0.75498700  0.34941200  0.25393200  1
  C  C9  1  0.66098800  0.50698200  0.07370200  1
  C  C10  1  0.60027300  0.50368100  0.04803400  1
  C  C11  1  0.53156500  0.50008400  0.01505500  1
  C  C12  1  0.47367900  0.49708600  0.98626900  1
  C  C13  1  0.40495300  0.49348200  0.95330700  1
  C  C14  1  0.34421200  0.49017000  0.92766600  1
  C  C15  1  0.11508100  0.55566400  0.43061900  1
  C  C16  1  0.03338000  0.52176900  0.41131400  1
  C  C17  1  0.92189900  0.46439700  0.48120900  1
  C  C18  1  0.89177800  0.44080300  0.57113200  1
  C  C19  1  0.97335700  0.47467000  0.59035500  1
  C  C20  1  0.08482400  0.53202400  0.52072500  1
  C  C21  1  0.06466700  0.54513000  0.31802300  1
  C  C22  1  0.94170700  0.45149200  0.68358000  1
  C  C23  1  0.91486100  0.43296100  0.76223300  1
  C  C24  1  0.09093600  0.56379100  0.23942600  1
  C  C25  1  0.50649600  0.92949600  0.47015300  1
  C  C26  1  0.44031700  0.91044400  0.56418900  1
  C  C27  1  0.43693800  0.98032400  0.59405200  1
  C  C28  1  0.49864700  0.06761900  0.53122600  1
  C  C29  1  0.56484200  0.08667700  0.43719600  1
  C  C30  1  0.56821700  0.01679500  0.40732500  1
  C  C31  1  0.37436100  0.81854400  0.63017900  1
  C  C32  1  0.63077500  0.17858700  0.37123200  1
  C  C33  1  0.68666600  0.25587100  0.31693000  1
  C  C34  1  0.31843000  0.74127100  0.68451800  1
  C  C35  1  0.11079900  0.01892800  0.95776500  1
  C  C36  1  0.02230300  0.93042700  0.00654400  1
  C  C37  1  0.91312900  0.90907800  0.05077400  1
  C  C38  1  0.89238200  0.97710100  0.04631800  1
  C  C39  1  0.98097000  0.06565600  0.99739700  1
  C  C40  1  0.09009700  0.08696900  0.95324800  1
  C  C41  1  0.04519600  0.86066400  0.00819000  1
  C  C42  1  0.95872000  0.13576700  0.99502900  1
  C  C43  1  0.93536800  0.19226300  0.99697200  1
  C  C44  1  0.06949100  0.80471900  0.00535400  1
  Br  Br1  1  0.79141200  0.78614800  0.11736900  1
  Br  Br2  1  0.74144200  0.94866200  0.10802200  1
  Br  Br3  1  0.26925300  0.63484500  0.33319800  1
  Br  Br4  1  0.80902900  0.41738400  0.45445500  1
  Br  Br5  1  0.73758100  0.36180900  0.66859900  1
  Br  Br6  1  0.51309100  0.83511200  0.42610400  1
  Br  Br7  1  0.49197700  0.16199300  0.57525500  1
  O  O1  1  0.95350000  0.45814600  0.87725200  1
  O  O2  1  0.77785900  0.36391600  0.92507000  1
  O  O3  1  0.03903700  0.65872100  0.01072900  1
  O  O4  1  0.21281500  0.77228700  0.94426900  1
  O  O5  1  0.81424000  0.49447400  0.05122400  1
  O  O6  1  0.75876300  0.55690200  0.15161600  1
  O  O7  1  0.17858600  0.62284500  0.83593800  1
  O  O8  1  0.23140000  0.57946000  0.71722900  1
  O  O9  1  0.05167600  0.53906500  0.12433800  1
  O  O10  1  0.22734600  0.63326300  0.07646000  1
  O  O11  1  0.96615900  0.33849100  0.99083400  1
  O  O12  1  0.79238300  0.22494200  0.05729400  1
  O  O13  1  0.19089500  0.50262400  0.95026800  1
  O  O14  1  0.24634500  0.44024100  0.84981300  1
  O  O15  1  0.82658700  0.37432800  0.16559300  1
  O  O16  1  0.77358800  0.41767100  0.28420500  1
