# generated using pymatgen
data_Zn3H44(C23O6)2
_symmetry_space_group_name_H-M   'P 1'
_cell_length_a   27.62930200
_cell_length_b   27.61185900
_cell_length_c   27.61053000
_cell_angle_alpha   109.45953200
_cell_angle_beta   109.48511600
_cell_angle_gamma   109.48323000
_symmetry_Int_Tables_number   1
_chemical_formula_structural   Zn3H44(C23O6)2
_chemical_formula_sum   'Zn6 H88 C92 O24'
_cell_volume   16212.20827079
_cell_formula_units_Z   2
loop_
 _symmetry_equiv_pos_site_id
 _symmetry_equiv_pos_as_xyz
  1  'x, y, z'
loop_
 _atom_site_type_symbol
 _atom_site_label
 _atom_site_symmetry_multiplicity
 _atom_site_fract_x
 _atom_site_fract_y
 _atom_site_fract_z
 _atom_site_occupancy
  Zn  Zn1  1  0.49958100  0.45249200  0.45216700  1
  Zn  Zn2  1  0.50039400  0.54791800  0.54774400  1
  Zn  Zn3  1  0.95166700  0.45277400  0.99943900  1
  Zn  Zn4  1  0.04806400  0.54739200  0.00047900  1
  Zn  Zn5  1  0.95177300  0.99975000  0.45255900  1
  Zn  Zn6  1  0.04804600  0.00066200  0.54720300  1
  H  H1  1  0.75091700  0.40762900  0.73277900  1
  H  H2  1  0.24822700  0.59241400  0.26753800  1
  H  H3  1  0.67261600  0.40661200  0.67056900  1
  H  H4  1  0.32667800  0.59367600  0.32982200  1
  H  H5  1  0.70064200  0.54764300  0.78122200  1
  H  H6  1  0.29992000  0.45357900  0.21886300  1
  H  H7  1  0.65359400  0.46807900  0.74054600  1
  H  H8  1  0.34652300  0.53321400  0.25997900  1
  H  H9  1  0.72151300  0.45720000  0.80221600  1
  H  H10  1  0.27843500  0.54396300  0.19834900  1
  H  H11  1  0.76288200  0.53696900  0.84892500  1
  H  H12  1  0.23757300  0.46425600  0.15125400  1
  H  H13  1  0.76812600  0.59588000  0.75365000  1
  H  H14  1  0.23226200  0.40428600  0.24571100  1
  H  H15  1  0.85753500  0.56234300  0.78035600  1
  H  H16  1  0.14225400  0.43703900  0.21886300  1
  H  H17  1  0.71823900  0.43743000  0.64326100  1
  H  H18  1  0.28088800  0.56204800  0.35660600  1
  H  H19  1  0.80059300  0.45227000  0.71645800  1
  H  H20  1  0.19850100  0.54703800  0.28329500  1
  H  H21  1  0.83432700  0.59727600  0.82845600  1
  H  H22  1  0.16604400  0.40292200  0.17094800  1
  H  H23  1  0.16128200  0.16822700  0.40323700  1
  H  H24  1  0.83727100  0.83360900  0.59664000  1
  H  H25  1  0.22706200  0.24493700  0.40495800  1
  H  H26  1  0.77169400  0.75705400  0.59527300  1
  H  H27  1  0.27436400  0.35129100  0.55897900  1
  H  H28  1  0.72746400  0.64934800  0.44302200  1
  H  H29  1  0.22945200  0.32646000  0.48156200  1
  H  H30  1  0.77156800  0.67561200  0.52098900  1
  H  H31  1  0.15541100  0.24922900  0.47106300  1
  H  H32  1  0.84536800  0.75292900  0.53132400  1
  H  H33  1  0.19639500  0.27984700  0.55036400  1
  H  H34  1  0.80534500  0.72101200  0.45175700  1
  H  H35  1  0.34299700  0.25699000  0.53313100  1
  H  H36  1  0.65609500  0.74159300  0.46415000  1
  H  H37  1  0.34632400  0.31724300  0.58928800  1
  H  H38  1  0.65441800  0.68138700  0.40966400  1
  H  H39  1  0.27568600  0.19354200  0.54310900  1
  H  H40  1  0.72357900  0.80498000  0.45428300  1
  H  H41  1  0.28004100  0.22085100  0.42618700  1
  H  H42  1  0.71791400  0.77969300  0.57182400  1
  H  H43  1  0.21734700  0.15047400  0.43390600  1
  H  H44  1  0.78059700  0.84984800  0.56387800  1
  H  H45  1  0.27197100  0.25330500  0.59172900  1
  H  H46  1  0.72890900  0.74546900  0.40749500  1
  H  H47  1  0.01119800  0.17046800  0.76668200  1
  H  H48  1  0.98854200  0.82975600  0.23304300  1
  H  H49  1  0.02151600  0.24720100  0.84110700  1
  H  H50  1  0.97820000  0.75295800  0.15866600  1
  H  H51  1  0.06905100  0.35018400  0.78609900  1
  H  H52  1  0.93069600  0.65011700  0.21382600  1
  H  H53  1  0.09481000  0.32909200  0.84070600  1
  H  H54  1  0.90492100  0.67114000  0.15916200  1
  H  H55  1  0.09289300  0.25241200  0.77467600  1
  H  H56  1  0.90686000  0.74787900  0.22513800  1
  H  H57  1  0.07683200  0.27970300  0.72363200  1
  H  H58  1  0.92293800  0.72066000  0.27624500  1
  H  H59  1  0.90852400  0.25049200  0.72420800  1
  H  H60  1  0.09121600  0.74976400  0.27564000  1
  H  H61  1  0.96113500  0.31090800  0.72444800  1
  H  H62  1  0.03861500  0.68940100  0.27547100  1
  H  H63  1  0.91219400  0.18721600  0.65041300  1
  H  H64  1  0.08757300  0.81311700  0.34940200  1
  H  H65  1  0.94308500  0.21932700  0.79772200  1
  H  H66  1  0.05663300  0.78083600  0.20204600  1
  H  H67  1  0.93533300  0.14874900  0.71973100  1
  H  H68  1  0.06441200  0.85148800  0.27999800  1
  H  H69  1  0.97193600  0.24767700  0.65778000  1
  H  H70  1  0.02783900  0.75270500  0.34210100  1
  H  H71  1  0.75186100  0.54049300  0.64615100  1
  H  H72  1  0.80998000  0.52761800  0.68097900  1
  H  H73  1  0.87488200  0.63773800  0.75242200  1
  H  H74  1  0.81470000  0.64775800  0.71468700  1
  H  H75  1  0.81417200  0.60008500  0.62010900  1
  H  H76  1  0.87565100  0.59210900  0.65897000  1
  H  H77  1  0.87481800  0.70919600  0.68634700  1
  H  H78  1  0.91025700  0.68130000  0.64891600  1
  H  H79  1  0.93640100  0.70161100  0.72596100  1
  H  H80  1  0.18938000  0.47122600  0.31813700  1
  H  H81  1  0.24778100  0.45871400  0.35303900  1
  H  H82  1  0.18565900  0.35149400  0.28400600  1
  H  H83  1  0.12521300  0.36117000  0.24621200  1
  H  H84  1  0.12370700  0.40573600  0.33940500  1
  H  H85  1  0.18547200  0.39816500  0.37836700  1
  H  H86  1  0.06375400  0.29628400  0.27195200  1
  H  H87  1  0.08958400  0.31612200  0.34885500  1
  H  H88  1  0.12561700  0.28910800  0.31168300  1
  C  C1  1  0.41728300  0.41935100  0.50028500  1
  C  C2  1  0.58269000  0.58105800  0.49962400  1
  C  C3  1  0.58126700  0.50001700  0.58236900  1
  C  C4  1  0.41870700  0.50039300  0.41754300  1
  C  C5  1  0.71427200  0.44473300  0.68340400  1
  C  C6  1  0.28510200  0.55522600  0.31664900  1
  C  C7  1  0.69870100  0.50481200  0.75907100  1
  C  C8  1  0.30149200  0.49617300  0.24113400  1
  C  C9  1  0.74360400  0.49984300  0.80378800  1
  C  C10  1  0.25651000  0.50110000  0.19645000  1
  C  C11  1  0.87557900  0.50230800  0.87269000  1
  C  C12  1  0.12415800  0.49785800  0.12722400  1
  C  C13  1  0.71243300  0.50148300  0.70966100  1
  C  C14  1  0.28744200  0.49881000  0.29023900  1
  C  C15  1  0.76624000  0.44840200  0.72953100  1
  C  C16  1  0.23307700  0.55144800  0.27048000  1
  C  C17  1  0.79209300  0.50224500  0.78895500  1
  C  C18  1  0.20770200  0.49797200  0.21095100  1
  C  C19  1  0.81882900  0.55823200  0.78615200  1
  C  C20  1  0.18117500  0.44167000  0.21331400  1
  C  C21  1  0.77209400  0.55595300  0.73542100  1
  C  C22  1  0.22792700  0.44395000  0.26403300  1
  C  C23  1  0.83800300  0.50240400  0.83484200  1
  C  C24  1  0.16175200  0.49777700  0.16506800  1
  C  C25  1  0.66511900  0.50045400  0.66429000  1
  C  C26  1  0.33480400  0.49989800  0.33561800  1
  C  C27  1  0.62659200  0.50003100  0.62691700  1
  C  C28  1  0.37336100  0.50035500  0.37299500  1
  C  C29  1  0.25085700  0.23531500  0.43838500  1
  C  C30  1  0.74789800  0.76569800  0.56088900  1
  C  C31  1  0.24812900  0.31272000  0.51332600  1
  C  C32  1  0.75286300  0.68840200  0.48829100  1
  C  C33  1  0.19811700  0.26346200  0.50878800  1
  C  C34  1  0.80278900  0.73773200  0.49281100  1
  C  C35  1  0.12571500  0.12761800  0.49927100  1
  C  C36  1  0.87410800  0.87279400  0.50049300  1
  C  C37  1  0.28772200  0.29063100  0.49906000  1
  C  C38  1  0.71218100  0.70978000  0.50078100  1
  C  C39  1  0.20640100  0.18643600  0.43977300  1
  C  C40  1  0.79229500  0.81448700  0.55935600  1
  C  C41  1  0.20870100  0.21142900  0.49889900  1
  C  C42  1  0.79115600  0.78898200  0.50089700  1
  C  C43  1  0.26906100  0.23202100  0.54820300  1
  C  C44  1  0.73093500  0.76709500  0.45048200  1
  C  C45  1  0.31661500  0.27623900  0.54530200  1
  C  C46  1  0.68331600  0.72285800  0.45330100  1
  C  C47  1  0.16305100  0.16548900  0.49896000  1
  C  C48  1  0.83678300  0.83492200  0.50081300  1
  C  C49  1  0.33370200  0.33654000  0.49931000  1
  C  C50  1  0.66622900  0.66387000  0.50055800  1
  C  C51  1  0.37180400  0.37435200  0.49971100  1
  C  C52  1  0.62814900  0.62605900  0.50017800  1
  C  C53  1  0.99899600  0.41708900  0.91835200  1
  C  C54  1  0.00073500  0.58307700  0.08156500  1
  C  C55  1  0.92008000  0.50198700  0.91778100  1
  C  C56  1  0.07965100  0.49817900  0.08213700  1
  C  C57  1  0.99899400  0.91854400  0.41689400  1
  C  C58  1  0.00082400  0.08186600  0.58286700  1
  C  C59  1  0.08151200  0.08251500  0.49987600  1
  C  C60  1  0.91830700  0.91789700  0.49988500  1
  C  C61  1  0.98581400  0.23511500  0.79809600  1
  C  C62  1  0.01391100  0.76507700  0.20169000  1
  C  C63  1  0.06021900  0.31290900  0.79525100  1
  C  C64  1  0.93952200  0.68735900  0.20462500  1
  C  C65  1  0.06167800  0.26408500  0.75081500  1
  C  C66  1  0.93807900  0.73622600  0.24902800  1
  C  C67  1  0.00055500  0.12669400  0.62772800  1
  C  C68  1  0.99924100  0.87369000  0.37203800  1
  C  C69  1  0.99966400  0.28886600  0.79005100  1
  C  C70  1  0.00006900  0.71136700  0.20980200  1
  C  C71  1  0.98162800  0.18625600  0.74801800  1
  C  C72  1  0.01811500  0.81398400  0.25173800  1
  C  C73  1  0.00008800  0.21004000  0.71115000  1
  C  C74  1  0.99967200  0.79027000  0.28865400  1
  C  C75  1  0.95670200  0.22719900  0.68208200  1
  C  C76  1  0.04306100  0.77313200  0.31776000  1
  C  C77  1  0.95321300  0.27115100  0.72934000  1
  C  C78  1  0.04653300  0.72913100  0.27052800  1
  C  C79  1  0.00033800  0.16434200  0.66540900  1
  C  C80  1  0.99944000  0.83601100  0.33437000  1
  C  C81  1  0.99942100  0.33456900  0.83579500  1
  C  C82  1  0.00029900  0.66562400  0.16408600  1
  C  C83  1  0.99922600  0.37223200  0.87348100  1
  C  C84  1  0.00049400  0.62794100  0.12641900  1
  C  C85  1  0.79045500  0.55657900  0.68895300  1
  C  C86  1  0.83521700  0.61942100  0.70943700  1
  C  C87  1  0.85375200  0.61916800  0.66350100  1
  C  C88  1  0.89663400  0.68199900  0.68253600  1
  C  C89  1  0.20926500  0.44261500  0.31017200  1
  C  C90  1  0.16479600  0.37950000  0.28926900  1
  C  C91  1  0.14597600  0.37904300  0.33489400  1
  C  C92  1  0.10342800  0.31594300  0.31546600  1
  O  O1  1  0.43582800  0.40262000  0.46312200  1
  O  O2  1  0.56414600  0.59779000  0.53678800  1
  O  O3  1  0.43811600  0.47500300  0.53794300  1
  O  O4  1  0.56185800  0.52540700  0.46196700  1
  O  O5  1  0.56250600  0.46494900  0.52652000  1
  O  O6  1  0.43746700  0.53546000  0.47339200  1
  O  O7  1  0.56141500  0.53566800  0.59965700  1
  O  O8  1  0.43855900  0.46474200  0.40025400  1
  O  O9  1  0.96317800  0.40018300  0.93815400  1
  O  O10  1  0.03655200  0.59998300  0.06176300  1
  O  O11  1  0.03464700  0.47286300  0.93741100  1
  O  O12  1  0.96508400  0.52730400  0.06250600  1
  O  O13  1  0.90269800  0.46444100  0.93577700  1
  O  O14  1  0.09703300  0.53572400  0.06414100  1
  O  O15  1  0.97591400  0.53924900  0.93884800  1
  O  O16  1  0.02381700  0.46091600  0.06107000  1
  O  O17  1  0.96121500  0.93634800  0.40000400  1
  O  O18  1  0.03860200  0.06406300  0.59975700  1
  O  O19  1  0.03654500  0.93954300  0.47265100  1
  O  O20  1  0.96327200  0.06086700  0.52711000  1
  O  O21  1  0.02553900  0.06120500  0.46273200  1
  O  O22  1  0.97428100  0.93920700  0.53703000  1
  O  O23  1  0.09925400  0.06479500  0.53755400  1
  O  O24  1  0.90056400  0.93561700  0.46220700  1
