# generated using pymatgen
data_ZnH23C25N3O4
_symmetry_space_group_name_H-M   'P 1'
_cell_length_a   13.41479500
_cell_length_b   8.54798700
_cell_length_c   19.36280200
_cell_angle_alpha   90.00000000
_cell_angle_beta   91.03896100
_cell_angle_gamma   90.00000000
_symmetry_Int_Tables_number   1
_chemical_formula_structural   ZnH23C25N3O4
_chemical_formula_sum   'Zn2 H46 C50 N6 O8'
_cell_volume   2219.95766453
_cell_formula_units_Z   2
loop_
 _symmetry_equiv_pos_site_id
 _symmetry_equiv_pos_as_xyz
  1  'x, y, z'
loop_
 _atom_site_type_symbol
 _atom_site_label
 _atom_site_symmetry_multiplicity
 _atom_site_fract_x
 _atom_site_fract_y
 _atom_site_fract_z
 _atom_site_occupancy
  Zn  Zn1  1  0.89132100  0.49958900  0.50224500  1
  Zn  Zn2  1  0.11327300  0.49980500  0.49702800  1
  H  H1  1  0.04935200  0.99800000  0.55007500  1
  H  H2  1  0.97211300  0.00184100  0.45224400  1
  H  H3  1  0.96935500  0.25042200  0.72830000  1
  H  H4  1  0.00348300  0.74852400  0.26584800  1
  H  H5  1  0.01129900  0.24914600  0.26493900  1
  H  H6  1  0.98515200  0.74779700  0.73150800  1
  H  H7  1  0.86940700  0.83550300  0.05135200  1
  H  H8  1  0.03738900  0.23751600  0.95148100  1
  H  H9  1  0.92463600  0.76856100  0.95142300  1
  H  H10  1  0.11107000  0.16402900  0.04613300  1
  H  H11  1  0.88432900  0.82806300  0.17586300  1
  H  H12  1  0.04197300  0.23259400  0.82856100  1
  H  H13  1  0.91203800  0.77434500  0.82824200  1
  H  H14  1  0.11631600  0.16767100  0.17113800  1
  H  H15  1  0.25015800  0.49255200  0.60335300  1
  H  H16  1  0.75442300  0.50670500  0.39595100  1
  H  H17  1  0.59829800  0.47939500  0.67107700  1
  H  H18  1  0.40630000  0.51996800  0.32823000  1
  H  H19  1  0.44657700  0.33635800  0.36176900  1
  H  H20  1  0.55799700  0.66300500  0.63755000  1
  H  H21  1  0.25300500  0.48898400  0.38755500  1
  H  H22  1  0.75160100  0.51050300  0.61175000  1
  H  H23  1  0.59331100  0.23473900  0.62017900  1
  H  H24  1  0.49735000  0.22607400  0.55228500  1
  H  H25  1  0.50025800  0.08698100  0.62138200  1
  H  H26  1  0.30390300  0.31514600  0.68814700  1
  H  H27  1  0.36110500  0.12732200  0.68485300  1
  H  H28  1  0.31805400  0.21577000  0.60565200  1
  H  H29  1  0.41131100  0.76463900  0.37910300  1
  H  H30  1  0.50438600  0.91236300  0.37790000  1
  H  H31  1  0.50726300  0.77328300  0.44700300  1
  H  H32  1  0.70071300  0.68411600  0.31115200  1
  H  H33  1  0.68657000  0.78353300  0.39363800  1
  H  H34  1  0.64353200  0.87196000  0.31443000  1
  H  H35  1  0.55703400  0.57238400  0.23476500  1
  H  H36  1  0.49844100  0.38302900  0.24432700  1
  H  H37  1  0.62344100  0.39819200  0.21269600  1
  H  H38  1  0.59907200  0.24095200  0.38624700  1
  H  H39  1  0.71559000  0.26271200  0.34221400  1
  H  H40  1  0.60624300  0.19623400  0.29599300  1
  H  H41  1  0.40548800  0.75836800  0.61309000  1
  H  H42  1  0.39831100  0.80303800  0.70335000  1
  H  H43  1  0.28897400  0.73654700  0.65712100  1
  H  H44  1  0.44757100  0.42687100  0.76453900  1
  H  H45  1  0.38114400  0.60103000  0.78662500  1
  H  H46  1  0.50614200  0.61624800  0.75499400  1
  C  C1  1  0.01007200  0.13820100  0.63556500  1
  C  C2  1  0.99298000  0.86082400  0.36388900  1
  C  C3  1  0.99446400  0.13994300  0.36322300  1
  C  C4  1  0.01080100  0.85971500  0.63632000  1
  C  C5  1  0.98549000  0.13951900  0.70435900  1
  C  C6  1  0.00027000  0.85881900  0.29302100  1
  C  C7  1  0.00614400  0.13964200  0.29254700  1
  C  C8  1  0.99043600  0.85931000  0.70589300  1
  C  C9  1  0.98299500  0.00031400  0.74148800  1
  C  C10  1  0.00388300  0.99871700  0.25706800  1
  C  C11  1  0.02853400  0.99865600  0.60336600  1
  C  C12  1  0.98379500  0.00091900  0.39756600  1
  C  C13  1  0.92683100  0.90508300  0.07607200  1
  C  C14  1  0.01245900  0.13266500  0.92546500  1
  C  C15  1  0.94682600  0.87422000  0.92545100  1
  C  C16  1  0.05813700  0.09308100  0.07333100  1
  C  C17  1  0.93444800  0.90142600  0.14713700  1
  C  C18  1  0.01146000  0.13202100  0.85430100  1
  C  C19  1  0.94242300  0.87570300  0.85418100  1
  C  C20  1  0.06252700  0.09399800  0.14458100  1
  C  C21  1  0.00134500  0.99709200  0.18161800  1
  C  C22  1  0.97656600  0.00352500  0.81762400  1
  C  C23  1  0.98910700  0.00027300  0.03822500  1
  C  C24  1  0.98232500  0.00251400  0.96198900  1
  C  C25  1  0.00790600  0.71735700  0.59446600  1
  C  C26  1  0.99696400  0.28259600  0.40465000  1
  C  C27  1  0.99659000  0.71892300  0.40569200  1
  C  C28  1  0.00764500  0.27985100  0.59336700  1
  C  C29  1  0.29383900  0.49520200  0.43611800  1
  C  C30  1  0.71076100  0.50423900  0.56319000  1
  C  C31  1  0.29301800  0.49632400  0.55678000  1
  C  C32  1  0.71157100  0.50299800  0.44252800  1
  C  C33  1  0.39617100  0.49241300  0.56003600  1
  C  C34  1  0.60842100  0.50693000  0.43927400  1
  C  C35  1  0.44821100  0.49871200  0.49917000  1
  C  C36  1  0.55638300  0.50066100  0.50014100  1
  C  C37  1  0.39671800  0.49382200  0.43701700  1
  C  C38  1  0.60787800  0.50557900  0.56229300  1
  C  C39  1  0.44848700  0.47457700  0.62908500  1
  C  C40  1  0.55610900  0.52475000  0.37022300  1
  C  C41  1  0.55567500  0.53534300  0.62815200  1
  C  C42  1  0.44891600  0.46402200  0.37115900  1
  C  C43  1  0.51370900  0.21125900  0.60811000  1
  C  C44  1  0.35287900  0.23996100  0.65688100  1
  C  C45  1  0.49091600  0.78809200  0.39117600  1
  C  C46  1  0.65174500  0.75932900  0.34241000  1
  C  C47  1  0.56953500  0.44853800  0.24936800  1
  C  C48  1  0.63360300  0.27647100  0.33714600  1
  C  C49  1  0.37096300  0.72281400  0.66218800  1
  C  C50  1  0.43505500  0.55072100  0.74994800  1
  N  N1  1  0.24392300  0.49990400  0.49559200  1
  N  N2  1  0.76067300  0.49949300  0.50371400  1
  N  N3  1  0.44984600  0.31003700  0.64860300  1
  N  N4  1  0.55477000  0.68928200  0.35069100  1
  N  N5  1  0.61012200  0.43649000  0.31875800  1
  N  N6  1  0.39446400  0.56279300  0.68055900  1
  O  O1  1  0.09158200  0.66840000  0.56800700  1
  O  O2  1  0.91310300  0.33092300  0.43128800  1
  O  O3  1  0.91295500  0.66950800  0.43192100  1
  O  O4  1  0.09150700  0.32946600  0.56722400  1
  O  O5  1  0.92016300  0.66230500  0.57535700  1
  O  O6  1  0.08457000  0.33745300  0.42379500  1
  O  O7  1  0.08445000  0.66421500  0.42467500  1
  O  O8  1  0.92007800  0.33544300  0.57467100  1
