# generated using pymatgen
data_Fe2H13C38N4ClO16
_symmetry_space_group_name_H-M   'P 1'
_cell_length_a   10.24282200
_cell_length_b   15.42294800
_cell_length_c   13.15255500
_cell_angle_alpha   103.05118400
_cell_angle_beta   82.96711700
_cell_angle_gamma   78.07877300
_symmetry_Int_Tables_number   1
_chemical_formula_structural   Fe2H13C38N4ClO16
_chemical_formula_sum   'Fe2 H13 C38 N4 Cl1 O16'
_cell_volume   1949.03178818
_cell_formula_units_Z   1
loop_
 _symmetry_equiv_pos_site_id
 _symmetry_equiv_pos_as_xyz
  1  'x, y, z'
loop_
 _atom_site_type_symbol
 _atom_site_label
 _atom_site_symmetry_multiplicity
 _atom_site_fract_x
 _atom_site_fract_y
 _atom_site_fract_z
 _atom_site_occupancy
  Fe  Fe1  1  0.48980400  0.01863500  0.28991800  1
  Fe  Fe2  1  0.51094700  0.99055300  0.73295700  1
  H  H1  1  0.64935700  0.04364400  0.99950100  1
  H  H2  1  0.02301200  0.95342200  0.79302000  1
  H  H3  1  0.97780000  0.04606900  0.22847500  1
  H  H4  1  0.35212500  0.95890500  0.02230700  1
  H  H5  1  0.20602900  0.26924200  0.44459300  1
  H  H6  1  0.08810600  0.44868200  0.75488700  1
  H  H7  1  0.91020500  0.56122100  0.26295600  1
  H  H8  1  0.78934600  0.68178300  0.19551200  1
  H  H9  1  0.78256800  0.73331200  0.57801900  1
  H  H10  1  0.02241300  0.39226800  0.09745800  1
  H  H11  1  0.23352100  0.42267100  0.15150400  1
  H  H12  1  0.43320100  0.40308800  0.01628700  1
  H  H13  1  0.42190200  0.35312900  0.82713500  1
  C  C1  1  0.82216700  0.02798400  0.07684700  1
  C  C2  1  0.75819900  0.03196500  0.99079300  1
  C  C3  1  0.83114800  0.00644200  0.88976500  1
  C  C4  1  0.97023300  0.98140700  0.87363400  1
  C  C5  1  0.03809200  0.99006600  0.95931600  1
  C  C6  1  0.96361600  0.01152700  0.06199800  1
  C  C7  1  0.03128900  0.01944400  0.14786500  1
  C  C8  1  0.17059100  0.99509200  0.13182000  1
  C  C9  1  0.24335900  0.97055100  0.03074500  1
  C  C10  1  0.17944100  0.97462100  0.94451800  1
  C  C11  1  0.73563200  0.02918400  0.17601500  1
  C  C12  1  0.64176100  0.84914800  0.30237600  1
  C  C13  1  0.24436000  0.01085900  0.22017000  1
  C  C14  1  0.34633700  0.13035400  0.48708600  1
  C  C15  1  0.64928700  0.87616800  0.53708200  1
  C  C16  1  0.75764800  0.99062800  0.80156000  1
  C  C17  1  0.35129100  0.15681900  0.72163800  1
  C  C18  1  0.26620300  0.97451900  0.84568200  1
  C  C19  1  0.27534000  0.21467900  0.56779200  1
  C  C20  1  0.20638200  0.28313800  0.52875700  1
  C  C21  1  0.13625700  0.36658100  0.59461200  1
  C  C22  1  0.13861400  0.38261800  0.70164600  1
  C  C23  1  0.20901500  0.31598700  0.74294000  1
  C  C24  1  0.27771300  0.22956200  0.67687600  1
  C  C25  1  0.92773400  0.56652900  0.46932500  1
  C  C26  1  0.06227600  0.43747700  0.55031300  1
  C  C27  1  0.85595700  0.62539100  0.31838700  1
  C  C28  1  0.78725700  0.69465800  0.27998400  1
  C  C29  1  0.71662900  0.77847800  0.34783400  1
  C  C30  1  0.71732100  0.79143800  0.45639500  1
  C  C31  1  0.78388200  0.72112800  0.49374700  1
  C  C32  1  0.85446200  0.63833800  0.42593200  1
  C  C33  1  0.21608600  0.34338800  0.85581100  1
  C  C34  1  0.10352500  0.35541100  0.93188500  1
  C  C35  1  0.11016900  0.38356200  0.03798000  1
  C  C36  1  0.22856200  0.40052700  0.06831000  1
  C  C37  1  0.34053100  0.38942400  0.99252800  1
  C  C38  1  0.33423000  0.36115100  0.88641600  1
  N  N1  1  0.99197700  0.51883300  0.61458200  1
  N  N2  1  0.92568600  0.58242500  0.57453000  1
  N  N3  1  0.99795900  0.48511900  0.40493400  1
  N  N4  1  0.06427200  0.42144300  0.44503100  1
  Cl  Cl1  1  0.95295400  0.33274500  0.89468800  1
  O  O1  1  0.60373800  0.05655400  0.18345500  1
  O  O2  1  0.65231300  0.83477500  0.19914200  1
  O  O3  1  0.78406100  0.98435100  0.24223900  1
  O  O4  1  0.56643900  0.92709300  0.36430100  1
  O  O5  1  0.36384400  0.95573200  0.21279500  1
  O  O6  1  0.20927400  0.09113300  0.28940000  1
  O  O7  1  0.41582000  0.13822000  0.40017600  1
  O  O8  1  0.31932500  0.05148100  0.49114400  1
  O  O9  1  0.57691800  0.86989400  0.62339100  1
  O  O10  1  0.68152100  0.95366400  0.53359300  1
  O  O11  1  0.64361000  0.05002600  0.80528600  1
  O  O12  1  0.78394400  0.90782300  0.73835800  1
  O  O13  1  0.21614700  0.01120400  0.77372500  1
  O  O14  1  0.43557300  0.08277100  0.65895200  1
  O  O15  1  0.39767100  0.95612200  0.84315700  1
  O  O16  1  0.32868000  0.16311000  0.82370800  1
