# generated using pymatgen
data_Cu2H34C43(N3O4)2
_symmetry_space_group_name_H-M   'P 1'
_cell_length_a   19.26269800
_cell_length_b   10.95757500
_cell_length_c   9.48784000
_cell_angle_alpha   89.98642000
_cell_angle_beta   89.98606300
_cell_angle_gamma   90.00533400
_symmetry_Int_Tables_number   1
_chemical_formula_structural   Cu2H34C43(N3O4)2
_chemical_formula_sum   'Cu2 H34 C43 N6 O8'
_cell_volume   2002.62158608
_cell_formula_units_Z   1
loop_
 _symmetry_equiv_pos_site_id
 _symmetry_equiv_pos_as_xyz
  1  'x, y, z'
loop_
 _atom_site_type_symbol
 _atom_site_label
 _atom_site_symmetry_multiplicity
 _atom_site_fract_x
 _atom_site_fract_y
 _atom_site_fract_z
 _atom_site_occupancy
  Cu  Cu1  1  0.50120400  0.49114700  0.64311900  1
  Cu  Cu2  1  0.50176000  0.49701300  0.36148700  1
  H  H1  1  0.15564800  0.62739800  0.67374800  1
  H  H2  1  0.15779000  0.41873500  0.29372400  1
  H  H3  1  0.28325200  0.40458500  0.30714700  1
  H  H4  1  0.71847000  0.53764400  0.28450000  1
  H  H5  1  0.84374100  0.55079400  0.27916600  1
  H  H6  1  0.59470300  0.20111600  0.68643500  1
  H  H7  1  0.61301700  0.11152700  0.91510900  1
  H  H8  1  0.55636800  0.91768000  0.97459500  1
  H  H9  1  0.49274000  0.80804400  0.79945100  1
  H  H10  1  0.42448900  0.37238400  0.14074700  1
  H  H11  1  0.59414000  0.66379600  0.25212700  1
  H  H12  1  0.67823700  0.77065700  0.86805300  1
  H  H13  1  0.59758400  0.65853200  0.74749800  1
  H  H14  1  0.31305000  0.56968500  0.79537300  1
  H  H15  1  0.33095600  0.69720900  0.67714000  1
  H  H16  1  0.25259300  0.69276600  0.77876400  1
  H  H17  1  0.38952900  0.77864900  0.35274500  1
  H  H18  1  0.36426400  0.91914000  0.28468800  1
  H  H19  1  0.43671600  0.83963700  0.20225600  1
  H  H20  1  0.68517400  0.79341400  0.26052900  1
  H  H21  1  0.74604600  0.77168600  0.11808800  1
  H  H22  1  0.68389400  0.89508400  0.11075800  1
  H  H23  1  0.40463700  0.32464800  0.76429600  1
  H  H24  1  0.41841800  0.24048900  0.92158200  1
  H  H25  1  0.35454400  0.35989800  0.91592500  1
  H  H26  1  0.83457100  0.45819000  0.85440700  1
  H  H27  1  0.90651600  0.41119100  0.74753100  1
  H  H28  1  0.88767000  0.57102300  0.78325900  1
  H  H29  1  0.67461500  0.34451500  0.71580600  1
  H  H30  1  0.75664100  0.32653800  0.78588800  1
  H  H31  1  0.70741900  0.46244900  0.83299400  1
  H  H32  1  0.42601500  0.05619900  0.16978000  1
  H  H33  1  0.40410300  0.18359100  0.27901000  1
  H  H34  1  0.49050700  0.16348500  0.20227300  1
  C  C1  1  0.50215600  0.25795300  0.49429800  1
  C  C2  1  0.36793400  0.49613900  0.50175700  1
  C  C3  1  0.49589300  0.73024700  0.51057300  1
  C  C4  1  0.63560600  0.48931900  0.50247100  1
  C  C5  1  0.25491900  0.56966600  0.60231100  1
  C  C6  1  0.18349700  0.57804300  0.59312200  1
  C  C7  1  0.14773600  0.52372300  0.48357700  1
  C  C8  1  0.18431900  0.46190100  0.38078600  1
  C  C9  1  0.25572400  0.45390500  0.38843600  1
  C  C10  1  0.29165800  0.50549600  0.49973900  1
  C  C11  1  0.93256000  0.52682500  0.48942100  1
  C  C12  1  0.07152900  0.52934700  0.48050600  1
  C  C13  1  0.82312800  0.48864100  0.62526700  1
  C  C14  1  0.75185800  0.46397100  0.62433700  1
  C  C15  1  0.71260100  0.48953400  0.50348500  1
  C  C16  1  0.74689700  0.52038600  0.38054900  1
  C  C17  1  0.81813800  0.52901900  0.37740400  1
  C  C18  1  0.85646500  0.51770300  0.49924300  1
  C  C19  1  0.56995700  0.11547200  0.70825200  1
  C  C20  1  0.58268400  0.06337500  0.83705700  1
  C  C21  1  0.55268000  0.95386200  0.86897600  1
  C  C22  1  0.51898100  0.88918900  0.76548300  1
  C  C23  1  0.51217900  0.93583800  0.62950000  1
  C  C24  1  0.52778300  0.05809800  0.60964800  1
  C  C25  1  0.50277800  0.12103800  0.49221000  1
  C  C26  1  0.46987500  0.05415800  0.38507000  1
  C  C27  1  0.46041300  0.92794000  0.39987800  1
  C  C28  1  0.48747200  0.86627200  0.51611100  1
  C  C29  1  0.59423800  0.65073700  0.14154600  1
  C  C30  1  0.64235900  0.71821500  0.06970700  1
  C  C31  1  0.64249400  0.71424000  0.92701800  1
  C  C32  1  0.59497800  0.64379900  0.85707800  1
  C  C33  1  0.54797900  0.56627200  0.92632400  1
  C  C34  1  0.54823400  0.57180400  0.07376100  1
  C  C35  1  0.46005500  0.42841800  0.08127000  1
  C  C36  1  0.45906500  0.42066500  0.93568000  1
  C  C37  1  0.29030400  0.63582200  0.71999500  1
  C  C38  1  0.41091900  0.86217100  0.30353000  1
  C  C39  1  0.69224800  0.79937200  0.14478200  1
  C  C40  1  0.40684100  0.33243700  0.87869900  1
  C  C41  1  0.86496200  0.48055000  0.75923300  1
  C  C42  1  0.72043600  0.39765600  0.74720700  1
  C  C43  1  0.44574600  0.11747100  0.25288400  1
  N  N1  1  0.03517800  0.47026300  0.38033700  1
  N  N2  1  0.96647700  0.46940000  0.38448400  1
  N  N3  1  0.96897200  0.58936700  0.58623600  1
  N  N4  1  0.03746800  0.59029800  0.58213800  1
  N  N5  1  0.50308700  0.50393300  0.15010800  1
  N  N6  1  0.50318000  0.48920900  0.85514700  1
  O  O1  1  0.49873300  0.31425800  0.61707700  1
  O  O2  1  0.50038300  0.31916700  0.37532500  1
  O  O3  1  0.40034300  0.49672500  0.62352100  1
  O  O4  1  0.40080300  0.49106000  0.38033800  1
  O  O5  1  0.49852300  0.66866600  0.62761300  1
  O  O6  1  0.49791200  0.67395500  0.38819700  1
  O  O7  1  0.60199200  0.49328500  0.62119800  1
  O  O8  1  0.60270100  0.49250500  0.38233600  1
