# generated using pymatgen
data_ZnH9C15N4O5
_symmetry_space_group_name_H-M   'P 1'
_cell_length_a   9.29495800
_cell_length_b   8.55098600
_cell_length_c   14.99131200
_cell_angle_alpha   90.00000000
_cell_angle_beta   91.02551600
_cell_angle_gamma   90.00000000
_symmetry_Int_Tables_number   1
_chemical_formula_structural   ZnH9C15N4O5
_chemical_formula_sum   'Zn2 H18 C30 N8 O10'
_cell_volume   1191.33445050
_cell_formula_units_Z   2
loop_
 _symmetry_equiv_pos_site_id
 _symmetry_equiv_pos_as_xyz
  1  'x, y, z'
loop_
 _atom_site_type_symbol
 _atom_site_label
 _atom_site_symmetry_multiplicity
 _atom_site_fract_x
 _atom_site_fract_y
 _atom_site_fract_z
 _atom_site_occupancy
  Zn  Zn1  1  0.82829500  0.50347400  0.50193600  1
  Zn  Zn2  1  0.14999300  0.50320400  0.49955400  1
  H  H1  1  0.02006900  0.00306000  0.56208700  1
  H  H2  1  0.98968200  0.25455000  0.80360600  1
  H  H3  1  0.99007100  0.75193500  0.80371100  1
  H  H4  1  0.02568700  0.25426300  0.20121900  1
  H  H5  1  0.02600200  0.75243800  0.20145200  1
  H  H6  1  0.92376500  0.00362200  0.43477300  1
  H  H7  1  0.62325600  0.50622700  0.63919800  1
  H  H8  1  0.74585100  0.50375200  0.33006000  1
  H  H9  1  0.35375200  0.50497900  0.19509300  1
  H  H10  1  0.22979800  0.50379300  0.32480100  1
  H  H11  1  0.33403600  0.40120900  0.68866500  1
  H  H12  1  0.30342400  0.50873800  0.82637900  1
  H  H13  1  0.29156000  0.71945200  0.82849500  1
  H  H14  1  0.46394300  0.62480200  0.84483400  1
  H  H15  1  0.74122100  0.53780600  0.17865900  1
  H  H16  1  0.78645100  0.44336500  0.03879700  1
  H  H17  1  0.63193300  0.36764500  0.97815000  1
  H  H18  1  0.74351100  0.23716800  0.04422000  1
  C  C1  1  0.99645200  0.14300900  0.67688100  1
  C  C2  1  0.99695300  0.86332700  0.67699100  1
  C  C3  1  0.99219300  0.14397200  0.76878400  1
  C  C4  1  0.99239000  0.86249100  0.76886200  1
  C  C5  1  0.99550000  0.00325800  0.81519300  1
  C  C6  1  0.00658200  0.00313600  0.63277400  1
  C  C7  1  0.02230500  0.00313900  0.09115400  1
  C  C8  1  0.00407000  0.00325000  0.91290600  1
  C  C9  1  0.01218400  0.14374500  0.23501100  1
  C  C10  1  0.01232800  0.86302300  0.23514600  1
  C  C11  1  0.98206100  0.14267600  0.32472400  1
  C  C12  1  0.98249700  0.86432700  0.32489300  1
  C  C13  1  0.95597600  0.00353200  0.36656300  1
  C  C14  1  0.01791000  0.00331400  0.18877600  1
  C  C15  1  0.99370900  0.72039500  0.62331600  1
  C  C16  1  0.99315300  0.28586500  0.62309300  1
  C  C17  1  0.98507400  0.72331700  0.37970000  1
  C  C18  1  0.98454100  0.28379400  0.37944200  1
  C  C19  1  0.63342100  0.50157300  0.33813100  1
  C  C20  1  0.56015600  0.49678000  0.25804300  1
  C  C21  1  0.41413600  0.49954800  0.25730700  1
  C  C22  1  0.34212100  0.50127500  0.33590200  1
  C  C23  1  0.41327600  0.50151200  0.41917100  1
  C  C24  1  0.56343500  0.50216000  0.42034400  1
  C  C25  1  0.56501300  0.50575300  0.57613500  1
  C  C26  1  0.41555800  0.50562900  0.57516300  1
  C  C27  1  0.38374100  0.62632600  0.71058000  1
  C  C28  1  0.35904000  0.61881200  0.80857500  1
  C  C29  1  0.60456200  0.38404700  0.11873200  1
  C  C30  1  0.69776700  0.35674200  0.04026500  1
  N  N1  1  0.00734700  0.86722300  0.95798700  1
  N  N2  1  0.01172300  0.13919200  0.95791300  1
  N  N3  1  0.01565800  0.86718100  0.04611400  1
  N  N4  1  0.02012900  0.13913800  0.04604000  1
  N  N5  1  0.63857500  0.50383400  0.49961700  1
  N  N6  1  0.33971300  0.50281500  0.49728200  1
  N  N7  1  0.34293900  0.50729400  0.65685500  1
  N  N8  1  0.63615300  0.49986800  0.17721000  1
  O  O1  1  0.11712500  0.67112200  0.59135400  1
  O  O2  1  0.11653700  0.33490700  0.59102500  1
  O  O3  1  0.86652300  0.66627800  0.59688300  1
  O  O4  1  0.86602100  0.34035300  0.59678800  1
  O  O5  1  0.86431200  0.67379100  0.41213000  1
  O  O6  1  0.86382400  0.33321700  0.41200500  1
  O  O7  1  0.10952400  0.66844100  0.40650800  1
  O  O8  1  0.10900100  0.33857100  0.40624800  1
  O  O9  1  0.43984100  0.74201700  0.67881900  1
  O  O10  1  0.50177800  0.29846300  0.13054100  1
