# generated using pymatgen
data_Zn2H23C44N3O8
_symmetry_space_group_name_H-M   'P 1'
_cell_length_a   8.52927200
_cell_length_b   13.03722000
_cell_length_c   14.21311200
_cell_angle_alpha   109.28492800
_cell_angle_beta   91.90526000
_cell_angle_gamma   93.53874600
_symmetry_Int_Tables_number   1
_chemical_formula_structural   Zn2H23C44N3O8
_chemical_formula_sum   'Zn2 H23 C44 N3 O8'
_cell_volume   1486.52691050
_cell_formula_units_Z   1
loop_
 _symmetry_equiv_pos_site_id
 _symmetry_equiv_pos_as_xyz
  1  'x, y, z'
loop_
 _atom_site_type_symbol
 _atom_site_label
 _atom_site_symmetry_multiplicity
 _atom_site_fract_x
 _atom_site_fract_y
 _atom_site_fract_z
 _atom_site_occupancy
  Zn  Zn1  1  0.45773400  0.54160400  0.10512600  1
  Zn  Zn2  1  0.43885900  0.45259500  0.88245300  1
  H  H1  1  0.37300000  0.81033700  0.99593500  1
  H  H2  1  0.40493600  0.99731800  0.00055100  1
  H  H3  1  0.95903500  0.43592900  0.02337000  1
  H  H4  1  0.65680000  0.15442900  0.98524000  1
  H  H5  1  0.76147000  0.99658400  0.98407000  1
  H  H6  1  0.29969200  0.15942500  0.99836300  1
  H  H7  1  0.73274100  0.85129300  0.00932400  1
  H  H8  1  0.94195800  0.55757800  0.95975300  1
  H  H9  1  0.47326400  0.78592900  0.58128900  1
  H  H10  1  0.44392900  0.55937900  0.74894900  1
  H  H11  1  0.41429200  0.23757500  0.74205100  1
  H  H12  1  0.48461500  0.82196200  0.42937800  1
  H  H13  1  0.48187300  0.75702700  0.24669600  1
  H  H14  1  0.45286300  0.43430000  0.23779800  1
  H  H15  1  0.45392300  0.66600000  0.67338900  1
  H  H16  1  0.43808000  0.32786700  0.31344500  1
  H  H17  1  0.40905600  0.17087200  0.56093100  1
  H  H18  1  0.48919500  0.16104500  0.33237300  1
  H  H19  1  0.34374600  0.99787300  0.24413800  1
  H  H20  1  0.08177100  0.90309400  0.19621300  1
  H  H21  1  0.85461400  0.97733000  0.29074200  1
  H  H22  1  0.89063800  0.14696700  0.43408500  1
  H  H23  1  0.14818400  0.24248600  0.48359800  1
  C  C1  1  0.98769100  0.86155800  0.99504900  1
  C  C2  1  0.12017500  0.80384700  0.99303700  1
  C  C3  1  0.26901100  0.85377100  0.99660900  1
  C  C4  1  0.28773400  0.95986900  0.99883300  1
  C  C5  1  0.15841800  0.01722700  0.99657900  1
  C  C6  1  0.00791200  0.96908700  0.99483800  1
  C  C7  1  0.18156700  0.12321700  0.99603900  1
  C  C8  1  0.05471000  0.18354800  0.99555500  1
  C  C9  1  0.90452200  0.13530000  0.99234300  1
  C  C10  1  0.88135800  0.02917600  0.99006200  1
  C  C11  1  0.07368600  0.29202700  0.00070700  1
  C  C12  1  0.94344700  0.35036300  0.01060300  1
  C  C13  1  0.79474200  0.30095900  0.00177000  1
  C  C14  1  0.77448500  0.19271700  0.99113900  1
  C  C15  1  0.83937700  0.81017700  0.99847200  1
  C  C16  1  0.82444700  0.70075200  0.98731500  1
  C  C17  1  0.95533100  0.64356000  0.97432500  1
  C  C18  1  0.10268600  0.69509400  0.98496000  1
  C  C19  1  0.66122200  0.36395200  0.99902100  1
  C  C20  1  0.67416700  0.64118600  0.99073000  1
  C  C21  1  0.23585800  0.63102800  0.98832500  1
  C  C22  1  0.22389600  0.35182300  0.99706900  1
  C  C23  1  0.47764200  0.73540300  0.38890600  1
  C  C24  1  0.47649400  0.69925000  0.28650200  1
  C  C25  1  0.45957200  0.51817100  0.28397000  1
  C  C26  1  0.45854700  0.55082600  0.38791800  1
  C  C27  1  0.46781800  0.66142600  0.43938700  1
  C  C28  1  0.44736800  0.47691600  0.44136200  1
  C  C29  1  0.44571900  0.51592000  0.54561700  1
  C  C30  1  0.45519700  0.62822600  0.59408400  1
  C  C31  1  0.46633300  0.69924300  0.54138800  1
  C  C32  1  0.43738300  0.36471300  0.39285100  1
  C  C33  1  0.42438500  0.29307200  0.44505300  1
  C  C34  1  0.42532800  0.33112100  0.54769100  1
  C  C35  1  0.43531000  0.44201600  0.59904200  1
  C  C36  1  0.41686000  0.25781000  0.59933300  1
  C  C37  1  0.41924800  0.29486900  0.70173600  1
  C  C38  1  0.43605700  0.47537500  0.70310200  1
  C  C39  1  0.26624400  0.12747000  0.36643000  1
  C  C40  1  0.24478900  0.03170400  0.28614200  1
  C  C41  1  0.09741500  0.97798400  0.25901900  1
  C  C42  1  0.97018000  0.01948600  0.31198800  1
  C  C43  1  0.99050600  0.11461400  0.39231300  1
  C  C44  1  0.13774900  0.16867600  0.41988400  1
  N  N1  1  0.46715200  0.59185900  0.23602100  1
  N  N2  1  0.42906100  0.40230400  0.75163700  1
  N  N3  1  0.41951100  0.18006900  0.39257500  1
  O  O1  1  0.60561900  0.36259800  0.91148400  1
  O  O2  1  0.61541700  0.42836500  0.08388200  1
  O  O3  1  0.63013900  0.63952700  0.07814900  1
  O  O4  1  0.61000500  0.57352700  0.90595200  1
  O  O5  1  0.29097200  0.63162200  0.07587200  1
  O  O6  1  0.28158900  0.56613200  0.90374700  1
  O  O7  1  0.26670900  0.35459600  0.90967500  1
  O  O8  1  0.28717300  0.42029300  0.08161100  1
