# generated using pymatgen
data_Zn3H42(C29O6)2
_symmetry_space_group_name_H-M   'P 1'
_cell_length_a   19.25208100
_cell_length_b   18.78322600
_cell_length_c   18.80847500
_cell_angle_alpha   108.85225300
_cell_angle_beta   110.30761300
_cell_angle_gamma   109.69026800
_symmetry_Int_Tables_number   1
_chemical_formula_structural   Zn3H42(C29O6)2
_chemical_formula_sum   'Zn6 H84 C116 O24'
_cell_volume   5206.73071064
_cell_formula_units_Z   2
loop_
 _symmetry_equiv_pos_site_id
 _symmetry_equiv_pos_as_xyz
  1  'x, y, z'
loop_
 _atom_site_type_symbol
 _atom_site_label
 _atom_site_symmetry_multiplicity
 _atom_site_fract_x
 _atom_site_fract_y
 _atom_site_fract_z
 _atom_site_occupancy
  Zn  Zn1  1  0.50807000  0.43357300  0.43506200  1
  Zn  Zn2  1  0.50875800  0.57199900  0.57357800  1
  Zn  Zn3  1  0.93244700  0.43050100  0.00647200  1
  Zn  Zn4  1  0.06486300  0.57552100  0.00815400  1
  Zn  Zn5  1  0.08004000  0.01038600  0.57754100  1
  Zn  Zn6  1  0.93766500  0.01113300  0.44320600  1
  H  H1  1  0.73798300  0.43836900  0.61812000  1
  H  H2  1  0.76301000  0.55847300  0.89457400  1
  H  H3  1  0.76696700  0.63613900  0.78326400  1
  H  H4  1  0.88104700  0.63689300  0.87285900  1
  H  H5  1  0.53087800  0.13256200  0.47043700  1
  H  H6  1  0.40910300  0.09910600  0.33881900  1
  H  H7  1  0.31071700  0.15119300  0.35177800  1
  H  H8  1  0.45846400  0.27409800  0.62914700  1
  H  H9  1  0.55656300  0.22179900  0.61647600  1
  H  H10  1  0.25779300  0.13112600  0.50930000  1
  H  H11  1  0.24427700  0.37846800  0.48437100  1
  H  H12  1  0.64557000  0.36101400  0.61103300  1
  H  H13  1  0.08356900  0.26844300  0.35069400  1
  H  H14  1  0.95850100  0.28722900  0.32181500  1
  H  H15  1  0.90799700  0.30325300  0.42641100  1
  H  H16  1  0.98383800  0.30138000  0.56082400  1
  H  H17  1  0.10942600  0.28391400  0.59042300  1
  H  H18  1  0.21338900  0.11538800  0.16351200  1
  H  H19  1  0.23004700  0.17464200  0.06755000  1
  H  H20  1  0.24990000  0.32059900  0.10377600  1
  H  H21  1  0.23397600  0.34722400  0.33058800  1
  H  H22  1  0.21546500  0.20213500  0.29484200  1
  H  H23  1  0.72659700  0.35791500  0.72859500  1
  H  H24  1  0.13537100  0.37265400  0.12358600  1
  H  H25  1  0.37899200  0.64436100  0.38871000  1
  H  H26  1  0.35566400  0.85448200  0.27976700  1
  H  H27  1  0.27042300  0.88824700  0.34136600  1
  H  H28  1  0.18293600  0.78385900  0.36952300  1
  H  H29  1  0.18106900  0.64499300  0.33559600  1
  H  H30  1  0.43579400  0.44121900  0.11986200  1
  H  H31  1  0.58170700  0.46607300  0.16380400  1
  H  H32  1  0.70173000  0.58100300  0.31135900  1
  H  H33  1  0.52992900  0.64656500  0.37168400  1
  H  H34  1  0.81560900  0.41001800  0.71540900  1
  H  H35  1  0.41037600  0.53207100  0.22330600  1
  H  H36  1  0.75477700  0.75245600  0.38124000  1
  H  H37  1  0.98288500  0.83738600  0.70128900  1
  H  H38  1  0.10841000  0.96537100  0.83895300  1
  H  H39  1  0.11039000  0.10422700  0.89550200  1
  H  H40  1  0.98718500  0.11537100  0.81384700  1
  H  H41  1  0.86197800  0.98784600  0.67560200  1
  H  H42  1  0.60849900  0.13151600  0.65404100  1
  H  H43  1  0.70103300  0.12018700  0.77309800  1
  H  H44  1  0.85351000  0.17635200  0.81933300  1
  H  H45  1  0.79205600  0.59717500  0.69957700  1
  H  H46  1  0.82197900  0.25960200  0.63072600  1
  H  H47  1  0.67000700  0.20216700  0.58336000  1
  H  H48  1  0.88537400  0.13726100  0.63027900  1
  H  H49  1  0.14376300  0.38347600  0.90443300  1
  H  H50  1  0.18986800  0.27137700  0.93078600  1
  H  H51  1  0.33191700  0.28528000  0.98212100  1
  H  H52  1  0.40260400  0.29786600  0.89651900  1
  H  H53  1  0.33073300  0.29715400  0.75942300  1
  H  H54  1  0.18926300  0.28397800  0.70836600  1
  H  H55  1  0.92163100  0.40518900  0.30657600  1
  H  H56  1  0.88860100  0.57392900  0.78276400  1
  H  H57  1  0.81092200  0.39444900  0.18138800  1
  H  H58  1  0.83824300  0.52057200  0.15898300  1
  H  H59  1  0.08649200  0.66914000  0.38809400  1
  H  H60  1  0.05908200  0.54302100  0.41035500  1
  H  H61  1  0.98341900  0.74314500  0.37616600  1
  H  H62  1  0.99995600  0.76169500  0.12795300  1
  H  H63  1  0.88357700  0.81145000  0.09999400  1
  H  H64  1  0.88802300  0.93045900  0.07060300  1
  H  H65  1  0.00461100  0.08159700  0.17991600  1
  H  H66  1  0.11707700  0.11273700  0.31760500  1
  H  H67  1  0.64430700  0.53268100  0.78333300  1
  H  H68  1  0.11441900  0.99414400  0.34710100  1
  H  H69  1  0.49435200  0.69078100  0.21826900  1
  H  H70  1  0.50972300  0.79081700  0.21738600  1
  H  H71  1  0.58538000  0.79434500  0.31026200  1
  H  H72  1  0.48268200  0.83775000  0.33653800  1
  H  H73  1  0.47804900  0.74608300  0.35075400  1
  H  H74  1  0.35126200  0.64300400  0.20477800  1
  H  H75  1  0.35684800  0.72858700  0.18053500  1
  H  H76  1  0.68885200  0.73906900  0.75866400  1
  H  H77  1  0.80232900  0.81192000  0.83888400  1
  H  H78  1  0.60680100  0.41777200  0.72436700  1
  H  H79  1  0.72907500  0.85323800  0.82727400  1
  H  H80  1  0.80950800  0.89490000  0.75833000  1
  H  H81  1  0.69873200  0.81610000  0.67529000  1
  H  H82  1  0.74918800  0.70056500  0.66966400  1
  H  H83  1  0.85320500  0.78842900  0.72611200  1
  H  H84  1  0.71078900  0.44148000  0.84784900  1
  C  C1  1  0.38605500  0.37983300  0.49812000  1
  C  C2  1  0.80560900  0.49637400  0.81469100  1
  C  C3  1  0.99420400  0.81950200  0.31391700  1
  C  C4  1  0.99509700  0.82290700  0.24161100  1
  C  C5  1  0.99547400  0.75692100  0.18211700  1
  C  C6  1  0.98923000  0.68473200  0.18989600  1
  C  C7  1  0.98097700  0.67815400  0.25858900  1
  C  C8  1  0.93512700  0.87766000  0.14819900  1
  C  C9  1  0.93739600  0.94446800  0.13160700  1
  C  C10  1  0.00262200  0.02906300  0.19276900  1
  C  C11  1  0.06575700  0.04658500  0.27014500  1
  C  C12  1  0.06371000  0.97989600  0.28688900  1
  C  C13  1  0.84480500  0.57731900  0.80787300  1
  C  C14  1  0.99757800  0.89520800  0.22637900  1
  C  C15  1  0.36923900  0.71247000  0.23376100  1
  C  C16  1  0.46427000  0.76832600  0.30232900  1
  C  C17  1  0.51678400  0.76040900  0.25914900  1
  C  C18  1  0.78597200  0.76641600  0.68052300  1
  C  C19  1  0.75862400  0.82590100  0.72459000  1
  C  C20  1  0.74375800  0.80606800  0.79170000  1
  C  C21  1  0.73605800  0.49585200  0.83555400  1
  C  C22  1  0.42071900  0.13863000  0.40265300  1
  C  C23  1  0.36603200  0.16854300  0.40999900  1
  C  C24  1  0.38053900  0.21863300  0.49141200  1
  C  C25  1  0.44865600  0.23716000  0.56550200  1
  C  C26  1  0.50315200  0.20689600  0.55816200  1
  C  C27  1  0.48914200  0.15755100  0.47673800  1
  C  C28  1  0.25485800  0.18627700  0.50535600  1
  C  C29  1  0.62404900  0.49769800  0.62490600  1
  C  C30  1  0.18610900  0.19643500  0.50069000  1
  C  C31  1  0.17998000  0.26393700  0.48862800  1
  C  C32  1  0.24696300  0.32379700  0.48985700  1
  C  C33  1  0.31564900  0.31314700  0.49460700  1
  C  C34  1  0.31676100  0.24100300  0.49773900  1
  C  C35  1  0.06215100  0.27596500  0.39731600  1
  C  C36  1  0.99163600  0.28627500  0.38081900  1
  C  C37  1  0.96327400  0.29514600  0.43935600  1
  C  C38  1  0.00570200  0.29400300  0.51457000  1
  C  C39  1  0.07623900  0.28373100  0.53107400  1
  C  C40  1  0.63142400  0.62605600  0.51103000  1
  C  C41  1  0.10427400  0.27364900  0.47207900  1
  C  C42  1  0.23144900  0.21280100  0.12563800  1
  C  C43  1  0.24251400  0.29469600  0.14599500  1
  C  C44  1  0.24522400  0.34393100  0.22062800  1
  C  C45  1  0.23430200  0.30994200  0.27342200  1
  C  C46  1  0.22326700  0.22813400  0.25300700  1
  C  C47  1  0.22209400  0.17960000  0.17934800  1
  C  C48  1  0.18934000  0.43248300  0.18171800  1
  C  C49  1  0.19260600  0.51053000  0.19610200  1
  C  C50  1  0.26291100  0.58727300  0.26956600  1
  C  C51  1  0.39150900  0.50675700  0.38385300  1
  C  C52  1  0.32605300  0.58424200  0.33019100  1
  C  C53  1  0.32284300  0.50596000  0.31628700  1
  C  C54  1  0.25421900  0.42950500  0.24015600  1
  C  C55  1  0.31772600  0.73066000  0.27362100  1
  C  C56  1  0.31798400  0.80830400  0.29256000  1
  C  C57  1  0.26978300  0.82737200  0.32687900  1
  C  C58  1  0.22064600  0.76881400  0.34247700  1
  C  C59  1  0.21948300  0.69104700  0.32333900  1
  C  C60  1  0.26724200  0.67115900  0.28866400  1
  C  C61  1  0.57029900  0.50541600  0.20970400  1
  C  C62  1  0.70681000  0.42395400  0.65540700  1
  C  C63  1  0.63766400  0.57006800  0.29262600  1
  C  C64  1  0.62339400  0.62006800  0.35182900  1
  C  C65  1  0.54143800  0.60630800  0.32667400  1
  C  C66  1  0.47424200  0.54208700  0.24340100  1
  C  C67  1  0.48854600  0.49139600  0.18508700  1
  C  C68  1  0.76051700  0.75565800  0.44158400  1
  C  C69  1  0.83148700  0.82421800  0.52002300  1
  C  C70  1  0.83931400  0.82834600  0.59761200  1
  C  C71  1  0.77462500  0.76366100  0.59595700  1
  C  C72  1  0.70188200  0.69473800  0.51543000  1
  C  C73  1  0.76500700  0.41627000  0.72754100  1
  C  C74  1  0.69646000  0.69089300  0.43841500  1
  C  C75  1  0.98349400  0.89826800  0.72623000  1
  C  C76  1  0.05400300  0.97010500  0.80332000  1
  C  C77  1  0.05518200  0.04798100  0.83496100  1
  C  C78  1  0.98611700  0.05422200  0.78912900  1
  C  C79  1  0.91582900  0.98261100  0.71168300  1
  C  C80  1  0.91362800  0.90396100  0.68079700  1
  C  C81  1  0.00231300  0.38556300  0.88892400  1
  C  C82  1  0.87427700  0.49654400  0.88419100  1
  C  C83  1  0.99487200  0.61994300  0.12628300  1
  C  C84  1  0.77439000  0.58293700  0.74559700  1
  C  C85  1  0.12331000  0.51055200  0.13082500  1
  C  C86  1  0.02108100  0.13402400  0.63852700  1
  C  C87  1  0.12066100  0.13100900  0.50351500  1
  C  C88  1  0.99806900  0.88882200  0.38240600  1
  C  C89  1  0.89676900  0.89172700  0.51849600  1
  C  C90  1  0.72790500  0.15215600  0.74283100  1
  C  C91  1  0.81361300  0.18462900  0.76945700  1
  C  C92  1  0.84813500  0.22575000  0.73108400  1
  C  C93  1  0.79594400  0.23079700  0.66342500  1
  C  C94  1  0.71013800  0.19745800  0.63612600  1
  C  C95  1  0.66276300  0.48430000  0.75849300  1
  C  C96  1  0.67604400  0.15841200  0.67595400  1
  C  C97  1  0.94308000  0.19239200  0.68951300  1
  C  C98  1  0.02166200  0.20071100  0.70640400  1
  C  C99  1  0.09459700  0.26798500  0.78650700  1
  C  C100  1  0.08708700  0.32939700  0.84350000  1
  C  C101  1  0.00777400  0.32039200  0.82577000  1
  C  C102  1  0.93506400  0.24807900  0.75013800  1
  C  C103  1  0.22058400  0.27727200  0.89291500  1
  C  C104  1  0.30041700  0.28488300  0.92181500  1
  C  C105  1  0.33996100  0.29180000  0.87381200  1
  C  C106  1  0.69100100  0.49698700  0.69525000  1
  C  C107  1  0.29964700  0.29129500  0.79698200  1
  C  C108  1  0.21971600  0.28347800  0.76798500  1
  C  C109  1  0.17927600  0.27539300  0.81524900  1
  C  C110  1  0.87214900  0.45432400  0.22587800  1
  C  C111  1  0.88785700  0.52494500  0.21291000  1
  C  C112  1  0.96648900  0.60120400  0.26874800  1
  C  C113  1  0.02679800  0.60819500  0.34117600  1
  C  C114  1  0.01116500  0.53757800  0.35416200  1
  C  C115  1  0.93409300  0.46038500  0.29612400  1
  C  C116  1  0.98772100  0.74742800  0.32174800  1
  O  O1  1  0.41673900  0.35560400  0.44834200  1
  O  O2  1  0.05366700  0.46890500  0.92016600  1
  O  O3  1  0.85269600  0.44036600  0.91090800  1
  O  O4  1  0.95430700  0.55352900  0.91561600  1
  O  O5  1  0.94467300  0.53694300  0.09545800  1
  O  O6  1  0.04777300  0.64807800  0.09968500  1
  O  O7  1  0.04322700  0.45163300  0.09814100  1
  O  O8  1  0.14454000  0.56662600  0.10437700  1
  O  O9  1  0.07146200  0.10281400  0.66066800  1
  O  O10  1  0.96526300  0.10481900  0.55692600  1
  O  O11  1  0.14726900  0.10223100  0.55642500  1
  O  O12  1  0.41387700  0.46192200  0.54992600  1
  O  O13  1  0.03921600  0.10084600  0.45104600  1
  O  O14  1  0.05160200  0.91565800  0.46395300  1
  O  O15  1  0.94731100  0.91969600  0.36020700  1
  O  O16  1  0.97835000  0.92162200  0.57039900  1
  O  O17  1  0.87025500  0.91813100  0.46318700  1
  O  O18  1  0.59488900  0.44411400  0.54287800  1
  O  O19  1  0.59795400  0.55285800  0.64799700  1
  O  O20  1  0.60257700  0.54380500  0.45836600  1
  O  O21  1  0.60026300  0.64977900  0.56039900  1
  O  O22  1  0.41842200  0.45233000  0.36071100  1
  O  O23  1  0.42222200  0.56168700  0.46580300  1
  O  O24  1  0.94844800  0.35785800  0.91416000  1
