# generated using pymatgen
data_VH15C22O9
_symmetry_space_group_name_H-M   'P 1'
_cell_length_a   23.34459700
_cell_length_b   6.82910800
_cell_length_c   19.59361700
_cell_angle_alpha   90.00000000
_cell_angle_beta   94.11943900
_cell_angle_gamma   90.00000000
_symmetry_Int_Tables_number   1
_chemical_formula_structural   VH15C22O9
_chemical_formula_sum   'V4 H60 C88 O36'
_cell_volume   3115.59867994
_cell_formula_units_Z   4
loop_
 _symmetry_equiv_pos_site_id
 _symmetry_equiv_pos_as_xyz
  1  'x, y, z'
loop_
 _atom_site_type_symbol
 _atom_site_label
 _atom_site_symmetry_multiplicity
 _atom_site_fract_x
 _atom_site_fract_y
 _atom_site_fract_z
 _atom_site_occupancy
  V  V1  1  0.25025200  0.84810300  0.24181300  1
  V  V2  1  0.75026900  0.21264700  0.75824800  1
  V  V3  1  0.24974800  0.34810300  0.25818700  1
  V  V4  1  0.74973100  0.71264700  0.74175200  1
  H  H1  1  0.59030200  0.27655200  0.65498500  1
  H  H2  1  0.40567100  0.79521900  0.35060200  1
  H  H3  1  0.90969800  0.77655200  0.84501500  1
  H  H4  1  0.09432900  0.29521900  0.14939800  1
  H  H5  1  0.57630100  0.60809000  0.46661800  1
  H  H6  1  0.42039700  0.46580300  0.53887700  1
  H  H7  1  0.92369900  0.10809000  0.03338200  1
  H  H8  1  0.07960300  0.96580300  0.96112300  1
  H  H9  1  0.49003600  0.62976100  0.39031200  1
  H  H10  1  0.50594600  0.44255400  0.61481300  1
  H  H11  1  0.00996400  0.12976100  0.10968800  1
  H  H12  1  0.99405400  0.94255400  0.88518700  1
  H  H13  1  0.02766300  0.83051400  0.59186400  1
  H  H14  1  0.96301100  0.22901900  0.39454700  1
  H  H15  1  0.47233700  0.33051400  0.90813600  1
  H  H16  1  0.53698900  0.72901900  0.10545300  1
  H  H17  1  0.01601400  0.70083900  0.45321300  1
  H  H18  1  0.97465300  0.35867100  0.53322400  1
  H  H19  1  0.48398600  0.20083900  0.04678700  1
  H  H20  1  0.52534700  0.85867100  0.96677600  1
  H  H21  1  0.72534200  0.46892800  0.54594500  1
  H  H22  1  0.77189900  0.56962400  0.61519400  1
  H  H23  1  0.76061400  0.71926300  0.46719200  1
  H  H24  1  0.81915800  0.57371100  0.50606900  1
  H  H25  1  0.80699700  0.81942000  0.53661300  1
  H  H26  1  0.24900500  0.45209600  0.50266300  1
  H  H27  1  0.20263200  0.28413600  0.45344400  1
  H  H28  1  0.25097600  0.65710200  0.39204800  1
  H  H29  1  0.18488000  0.65478200  0.43497700  1
  H  H30  1  0.19056300  0.50795300  0.35948100  1
  H  H31  1  0.77465800  0.96892800  0.95405600  1
  H  H32  1  0.72810100  0.06962400  0.88480600  1
  H  H33  1  0.73938600  0.21926300  0.03280800  1
  H  H34  1  0.68084200  0.07371100  0.99393200  1
  H  H35  1  0.69300300  0.31942000  0.96338700  1
  H  H36  1  0.25099500  0.95209600  0.99733700  1
  H  H37  1  0.29736800  0.78413600  0.04655600  1
  H  H38  1  0.24902400  0.15710200  0.10795200  1
  H  H39  1  0.31512000  0.15478200  0.06502300  1
  H  H40  1  0.30943700  0.00795300  0.14051900  1
  H  H41  1  0.16078800  0.33597300  0.66088000  1
  H  H42  1  0.20348000  0.19100100  0.60609100  1
  H  H43  1  0.15704100  0.05558400  0.74119500  1
  H  H44  1  0.23041200  0.12566900  0.72893400  1
  H  H45  1  0.19972100  0.91057700  0.68640000  1
  H  H46  1  0.83648200  0.70439500  0.32287600  1
  H  H47  1  0.81530100  0.59916700  0.40203600  1
  H  H48  1  0.89881600  0.41633700  0.30577900  1
  H  H49  1  0.82495300  0.34362000  0.31344800  1
  H  H50  1  0.87764500  0.31112700  0.38499500  1
  H  H51  1  0.33921200  0.83597300  0.83912000  1
  H  H52  1  0.29652000  0.69100100  0.89390900  1
  H  H53  1  0.34295900  0.55558400  0.75880500  1
  H  H54  1  0.26958800  0.62566800  0.77106700  1
  H  H55  1  0.30027900  0.41057700  0.81360000  1
  H  H56  1  0.66351800  0.20439500  0.17712400  1
  H  H57  1  0.68469900  0.09916700  0.09796400  1
  H  H58  1  0.60118400  0.91633700  0.19422100  1
  H  H59  1  0.67504700  0.84362000  0.18655200  1
  H  H60  1  0.62235500  0.81112700  0.11500500  1
  C  C1  1  0.33342200  0.56696600  0.17859000  1
  C  C2  1  0.67190800  0.49369200  0.82925500  1
  C  C3  1  0.16657700  0.06696600  0.32141100  1
  C  C4  1  0.82809200  0.99369200  0.67074500  1
  C  C5  1  0.17298000  0.56695800  0.15688800  1
  C  C6  1  0.83277700  0.49375300  0.83566400  1
  C  C7  1  0.32702000  0.06695800  0.34311200  1
  C  C8  1  0.66722300  0.99375300  0.66433600  1
  C  C9  1  0.58129100  0.16193100  0.61769900  1
  C  C10  1  0.41279500  0.90387100  0.39043200  1
  C  C11  1  0.91870900  0.66193100  0.88230100  1
  C  C12  1  0.08720500  0.40387100  0.10956800  1
  C  C13  1  0.61792800  0.00523000  0.61487900  1
  C  C14  1  0.37455200  0.05537000  0.39506500  1
  C  C15  1  0.88207200  0.50523000  0.88512100  1
  C  C16  1  0.12544800  0.55537000  0.10493600  1
  C  C17  1  0.60688900  0.85799700  0.56760000  1
  C  C18  1  0.38251900  0.19325800  0.44668400  1
  C  C19  1  0.89311100  0.35799700  0.93240000  1
  C  C20  1  0.11748100  0.69325800  0.05331600  1
  C  C21  1  0.55789900  0.86760800  0.52326600  1
  C  C22  1  0.43294300  0.18844000  0.48917100  1
  C  C23  1  0.94210100  0.36760800  0.97673500  1
  C  C24  1  0.06705700  0.68844000  0.01082900  1
  C  C25  1  0.52031900  0.02339100  0.52756100  1
  C  C26  1  0.47122500  0.03481100  0.48398300  1
  C  C27  1  0.97968100  0.52339100  0.97243900  1
  C  C28  1  0.02877500  0.53481100  0.01601700  1
  C  C29  1  0.53228800  0.16981900  0.57470300  1
  C  C30  1  0.46049500  0.89185000  0.43526500  1
  C  C31  1  0.96771200  0.66981900  0.92529800  1
  C  C32  1  0.03950500  0.39185000  0.06473500  1
  C  C33  1  0.54699200  0.72706100  0.47326400  1
  C  C34  1  0.44619600  0.33605300  0.53619000  1
  C  C35  1  0.95300800  0.22706100  0.02673600  1
  C  C36  1  0.05380400  0.83605300  0.96381000  1
  C  C37  1  0.49836400  0.73948000  0.42954300  1
  C  C38  1  0.49564800  0.32614800  0.57860300  1
  C  C39  1  0.00163600  0.23948000  0.07045700  1
  C  C40  1  0.00435200  0.82614800  0.92139700  1
  C  C41  1  0.04106100  0.10535000  0.52351100  1
  C  C42  1  0.94953900  0.95407000  0.46290100  1
  C  C43  1  0.45893900  0.60535000  0.97648900  1
  C  C44  1  0.55046100  0.45407000  0.03709900  1
  C  C45  1  0.01293600  0.91917800  0.54653200  1
  C  C46  1  0.97771500  0.14034500  0.43988600  1
  C  C47  1  0.48706400  0.41917800  0.95346800  1
  C  C48  1  0.52228500  0.64034500  0.06011400  1
  C  C49  1  0.87250900  0.00398800  0.62338600  1
  C  C50  1  0.12002200  0.05624200  0.36577000  1
  C  C51  1  0.62749100  0.50398800  0.87661400  1
  C  C52  1  0.37997800  0.55624200  0.13423000  1
  C  C53  1  0.98377500  0.20967900  0.51427100  1
  C  C54  1  0.00687000  0.84981700  0.47216300  1
  C  C55  1  0.51622500  0.70967900  0.98572900  1
  C  C56  1  0.49313000  0.34981700  0.02783700  1
  C  C57  1  0.95548800  0.02216900  0.53594800  1
  C  C58  1  0.03510800  0.03725500  0.45049500  1
  C  C59  1  0.54451200  0.52216900  0.96405200  1
  C  C60  1  0.46489200  0.53725500  0.04950500  1
  C  C61  1  0.90981800  0.01215700  0.58375000  1
  C  C62  1  0.08149800  0.04765600  0.40372000  1
  C  C63  1  0.59018200  0.51215700  0.91625000  1
  C  C64  1  0.41850200  0.54765600  0.09628000  1
  C  C65  1  0.64957100  0.70204400  0.56251000  1
  C  C66  1  0.74640000  0.60389700  0.56684000  1
  C  C67  1  0.78594600  0.68443100  0.51572700  1
  C  C68  1  0.33465500  0.32366400  0.46168200  1
  C  C69  1  0.23674900  0.39619100  0.45050800  1
  C  C70  1  0.21449700  0.56505400  0.40609700  1
  C  C71  1  0.85042900  0.20204400  0.93749000  1
  C  C72  1  0.75360000  0.10389700  0.93316100  1
  C  C73  1  0.71405400  0.18443100  0.98427300  1
  C  C74  1  0.16534500  0.82366400  0.03831800  1
  C  C75  1  0.26325100  0.89619100  0.04949200  1
  C  C76  1  0.28550300  0.06505400  0.09390300  1
  C  C77  1  0.09443800  0.19215000  0.55699800  1
  C  C78  1  0.16986700  0.18554600  0.64326800  1
  C  C79  1  0.19065000  0.06101500  0.70401200  1
  C  C80  1  0.89657100  0.86698800  0.42848900  1
  C  C81  1  0.85029300  0.60906500  0.36683800  1
  C  C82  1  0.86383200  0.40649000  0.34103900  1
  C  C83  1  0.40556200  0.69215000  0.94300200  1
  C  C84  1  0.33013300  0.68554600  0.85673200  1
  C  C85  1  0.30935000  0.56101500  0.79598800  1
  C  C86  1  0.60342900  0.36698800  0.07151100  1
  C  C87  1  0.64970700  0.10906500  0.13316200  1
  C  C88  1  0.63616800  0.90649000  0.15896100  1
  O  O1  1  0.18981200  0.39986700  0.18451300  1
  O  O2  1  0.81404700  0.66097400  0.80995000  1
  O  O3  1  0.31018800  0.89986700  0.31548700  1
  O  O4  1  0.68595300  0.16097400  0.69005000  1
  O  O5  1  0.31134900  0.74174500  0.18739400  1
  O  O6  1  0.69329400  0.31889200  0.81855200  1
  O  O7  1  0.18865100  0.24174500  0.31260700  1
  O  O8  1  0.80670600  0.81889200  0.68144800  1
  O  O9  1  0.19371100  0.74183500  0.17156100  1
  O  O10  1  0.81092600  0.31899100  0.82340500  1
  O  O11  1  0.30628900  0.24183500  0.32843900  1
  O  O12  1  0.68907400  0.81899100  0.67659500  1
  O  O13  1  0.18594600  0.89942800  0.29925700  1
  O  O14  1  0.81026200  0.16126900  0.69468500  1
  O  O15  1  0.31405400  0.39942800  0.20074300  1
  O  O16  1  0.68973800  0.66126900  0.80531500  1
  O  O17  1  0.24891800  0.57418100  0.29092900  1
  O  O18  1  0.74839800  0.48655500  0.70886000  1
  O  O19  1  0.25108200  0.07418100  0.20907100  1
  O  O20  1  0.75160200  0.98655500  0.79114000  1
  O  O21  1  0.63528600  0.53944000  0.54217200  1
  O  O22  1  0.70542200  0.74088800  0.57877100  1
  O  O23  1  0.33738100  0.42084700  0.51388200  1
  O  O24  1  0.28409800  0.31389000  0.42429000  1
  O  O25  1  0.86471400  0.03944000  0.95782800  1
  O  O26  1  0.79457800  0.24088800  0.92122900  1
  O  O27  1  0.16261900  0.92084700  0.98611800  1
  O  O28  1  0.21590200  0.81389000  0.07571000  1
  O  O29  1  0.11430400  0.34156100  0.53417300  1
  O  O30  1  0.12075400  0.10565700  0.61247000  1
  O  O31  1  0.85190300  0.96007700  0.42429600  1
  O  O32  1  0.89833800  0.68674400  0.40089500  1
  O  O33  1  0.38569600  0.84156100  0.96582700  1
  O  O34  1  0.37924600  0.60565700  0.88753000  1
  O  O35  1  0.64809700  0.46007700  0.07570400  1
  O  O36  1  0.60166200  0.18674400  0.09910500  1
