# generated using pymatgen
data_Zn2H50C83N2O13
_symmetry_space_group_name_H-M   'P 1'
_cell_length_a   15.41075400
_cell_length_b   11.68123100
_cell_length_c   13.49673300
_cell_angle_alpha   90.14553400
_cell_angle_beta   89.99342400
_cell_angle_gamma   90.00000000
_symmetry_Int_Tables_number   1
_chemical_formula_structural   Zn2H50C83N2O13
_chemical_formula_sum   'Zn2 H50 C83 N2 O13'
_cell_volume   2429.62782637
_cell_formula_units_Z   1
loop_
 _symmetry_equiv_pos_site_id
 _symmetry_equiv_pos_as_xyz
  1  'x, y, z'
loop_
 _atom_site_type_symbol
 _atom_site_label
 _atom_site_symmetry_multiplicity
 _atom_site_fract_x
 _atom_site_fract_y
 _atom_site_fract_z
 _atom_site_occupancy
  Zn  Zn1  1  0.48077600  0.52063100  0.89253400  1
  Zn  Zn2  1  0.48550200  0.51988500  0.11435200  1
  H  H1  1  0.18122700  0.94816000  0.14922300  1
  H  H2  1  0.24025500  0.69320300  0.86769000  1
  H  H3  1  0.30790700  0.82315100  0.15308500  1
  H  H4  1  0.11460200  0.81872800  0.86395000  1
  H  H5  1  0.17094800  0.11685100  0.85387600  1
  H  H6  1  0.25945700  0.31065800  0.16143300  1
  H  H7  1  0.29960300  0.23887800  0.85375600  1
  H  H8  1  0.13017000  0.19023900  0.15943700  1
  H  H9  1  0.85427100  0.81949700  0.14045900  1
  H  H10  1  0.65783600  0.81957000  0.85428600  1
  H  H11  1  0.72846400  0.69402100  0.13975400  1
  H  H12  1  0.78435600  0.94395700  0.85516300  1
  H  H13  1  0.82466000  0.17145200  0.83976500  1
  H  H14  1  0.67648500  0.25353600  0.15461600  1
  H  H15  1  0.69575300  0.29199100  0.83978300  1
  H  H16  1  0.80542300  0.13261000  0.15255200  1
  H  H17  1  0.98381700  0.81113400  0.00189700  1
  H  H18  1  0.38296000  0.71413900  0.48372400  1
  H  H19  1  0.50174200  0.80402300  0.58622200  1
  H  H20  1  0.47486900  0.34242700  0.75547000  1
  H  H21  1  0.38870000  0.29974100  0.55027200  1
  H  H22  1  0.45808500  0.80164200  0.41784000  1
  H  H23  1  0.57763900  0.71631900  0.52136800  1
  H  H24  1  0.48075600  0.23492400  0.60375400  1
  H  H25  1  0.49419400  0.34095300  0.24935600  1
  H  H26  1  0.99896300  0.49372200  0.98550400  1
  H  H27  1  0.02594000  0.60561600  0.83643500  1
  H  H28  1  0.04130500  0.51019900  0.67488600  1
  H  H29  1  0.02896700  0.30086600  0.66308200  1
  H  H30  1  0.00160900  0.18691000  0.81031200  1
  H  H31  1  0.56281700  0.94775000  0.22678800  1
  H  H32  1  0.69862400  0.03702800  0.27757800  1
  H  H33  1  0.81090400  0.92443400  0.36223600  1
  H  H34  1  0.78676900  0.72008200  0.39509300  1
  H  H35  1  0.65225500  0.62822300  0.34489200  1
  H  H36  1  0.76613400  0.30519800  0.52516800  1
  H  H37  1  0.85025300  0.16342600  0.61422000  1
  H  H38  1  0.78417200  0.98124100  0.66435400  1
  H  H39  1  0.63170000  0.94201100  0.62424100  1
  H  H40  1  0.54583400  0.07988200  0.53460000  1
  H  H41  1  0.40949800  0.99265900  0.36087500  1
  H  H42  1  0.25900100  0.93266700  0.34075000  1
  H  H43  1  0.14116600  0.07414700  0.34901000  1
  H  H44  1  0.17532700  0.27748000  0.37493100  1
  H  H45  1  0.32454400  0.33980600  0.39358300  1
  H  H46  1  0.40974600  0.95538800  0.77210000  1
  H  H47  1  0.27642600  0.04875300  0.71895300  1
  H  H48  1  0.15992300  0.93735800  0.64022500  1
  H  H49  1  0.17765900  0.73025900  0.61493700  1
  H  H50  1  0.30997900  0.63437800  0.66722000  1
  C  C1  1  0.28585700  0.75314500  0.00823400  1
  C  C2  1  0.06118500  0.96211900  0.00383400  1
  C  C3  1  0.19586900  0.89490600  0.08581300  1
  C  C4  1  0.23014200  0.75215800  0.92818200  1
  C  C5  1  0.26728900  0.82333300  0.08816600  1
  C  C6  1  0.14159400  0.89529900  0.00437400  1
  C  C7  1  0.15829700  0.82207900  0.92654500  1
  C  C8  1  0.28902100  0.28318600  0.00780100  1
  C  C9  1  0.06109000  0.08075300  0.00412800  1
  C  C10  1  0.19133900  0.15813000  0.92172100  1
  C  C11  1  0.24181200  0.26695400  0.09375200  1
  C  C12  1  0.26374800  0.22766600  0.92186100  1
  C  C13  1  0.14260500  0.14537300  0.00670000  1
  C  C14  1  0.16846900  0.19928300  0.09283000  1
  C  C15  1  0.68116600  0.75197000  0.99947300  1
  C  C16  1  0.90555800  0.96127400  0.99849900  1
  C  C17  1  0.80981600  0.82183800  0.07854400  1
  C  C18  1  0.69892200  0.82080100  0.91875600  1
  C  C19  1  0.73791000  0.75190200  0.07860200  1
  C  C20  1  0.82549700  0.89390600  0.99991200  1
  C  C21  1  0.77037600  0.89209500  0.91935100  1
  C  C22  1  0.98354500  0.90368600  0.00127800  1
  C  C23  1  0.67649900  0.28175700  0.99726000  1
  C  C24  1  0.90489000  0.07984100  0.99675800  1
  C  C25  1  0.79124800  0.18826500  0.90868500  1
  C  C26  1  0.70748400  0.23506700  0.08456100  1
  C  C27  1  0.71807200  0.25631200  0.90902600  1
  C  C28  1  0.82303300  0.14380500  0.99608100  1
  C  C29  1  0.78024900  0.16616100  0.08375900  1
  C  C30  1  0.98276900  0.13925200  0.99938900  1
  C  C31  1  0.60621100  0.67425700  0.00042500  1
  C  C32  1  0.60396500  0.36341900  0.99905200  1
  C  C33  1  0.36163100  0.36444000  0.00641700  1
  C  C34  1  0.36084400  0.67541300  0.00799700  1
  C  C35  1  0.48876800  0.41811900  0.29295500  1
  C  C36  1  0.48654000  0.61876700  0.29838700  1
  C  C37  1  0.47204900  0.61516300  0.39941300  1
  C  C38  1  0.47879500  0.51330000  0.44923100  1
  C  C39  1  0.48750700  0.41283400  0.39680200  1
  C  C40  1  0.45115300  0.72007900  0.45818500  1
  C  C41  1  0.50942000  0.72162200  0.54688800  1
  C  C42  1  0.48962800  0.61742400  0.60660200  1
  C  C43  1  0.48268700  0.51503400  0.55739300  1
  C  C44  1  0.47701100  0.41611900  0.61057700  1
  C  C45  1  0.45984900  0.30688000  0.55672400  1
  C  C46  1  0.50349100  0.30295600  0.45326200  1
  C  C47  1  0.47739600  0.62156200  0.70819000  1
  C  C48  1  0.47809700  0.42105200  0.71364700  1
  C  C49  1  0.98188700  0.26498300  0.00005400  1
  C  C50  1  0.99878400  0.33177800  0.90946900  1
  C  C51  1  0.00535500  0.44980400  0.91531400  1
  C  C52  1  0.02069500  0.51351600  0.83125200  1
  C  C53  1  0.02933000  0.46011200  0.74072400  1
  C  C54  1  0.02248800  0.34279800  0.73419100  1
  C  C55  1  0.00721000  0.27864400  0.81803700  1
  C  C56  1  0.51242100  0.72946600  0.25570700  1
  C  C57  1  0.59644800  0.78157000  0.28311500  1
  C  C58  1  0.61124200  0.89620000  0.26355900  1
  C  C59  1  0.68795800  0.94721800  0.29221400  1
  C  C60  1  0.75080900  0.88424900  0.33986600  1
  C  C61  1  0.73718200  0.76980500  0.35837100  1
  C  C62  1  0.66049000  0.71836800  0.33011100  1
  C  C63  1  0.60097900  0.29469300  0.46539600  1
  C  C64  1  0.64847300  0.20556800  0.52260300  1
  C  C65  1  0.73485600  0.22596400  0.54575600  1
  C  C66  1  0.78311000  0.14597600  0.59658200  1
  C  C67  1  0.74617000  0.04405300  0.62482800  1
  C  C68  1  0.66073600  0.02224400  0.60228800  1
  C  C69  1  0.61208000  0.10187500  0.55140000  1
  C  C70  1  0.47143700  0.20202200  0.39318600  1
  C  C71  1  0.37891200  0.17023900  0.38137800  1
  C  C72  1  0.35884700  0.05643900  0.36411800  1
  C  C73  1  0.27383500  0.02203400  0.35300900  1
  C  C74  1  0.20782500  0.10116200  0.35773600  1
  C  C75  1  0.22703000  0.21500100  0.37247500  1
  C  C76  1  0.31201600  0.24977300  0.38350500  1
  C  C77  1  0.45319100  0.73304100  0.75125600  1
  C  C78  1  0.37042600  0.78788000  0.72311600  1
  C  C79  1  0.35933400  0.90424600  0.73825500  1
  C  C80  1  0.28407000  0.95762100  0.70813100  1
  C  C81  1  0.21891500  0.89532800  0.66366900  1
  C  C82  1  0.22896800  0.77933700  0.64936800  1
  C  C83  1  0.30434800  0.72559600  0.67875200  1
  N  N1  1  0.48858600  0.51996500  0.24476300  1
  N  N2  1  0.47766000  0.52291400  0.76214900  1
  O  O1  1  0.57954000  0.63509000  0.08599300  1
  O  O2  1  0.57250100  0.64071300  0.91608500  1
  O  O3  1  0.57466300  0.40310600  0.91400200  1
  O  O4  1  0.57478400  0.39803000  0.08591700  1
  O  O5  1  0.38811400  0.40310300  0.91990200  1
  O  O6  1  0.39385100  0.39948600  0.09175500  1
  O  O7  1  0.39146500  0.63714000  0.09226100  1
  O  O8  1  0.39016500  0.64022400  0.92216600  1
  O  O9  1  0.96609000  0.31482200  0.07749700  1
  O  O10  1  0.45935200  0.78711300  0.21156100  1
  O  O11  1  0.64418600  0.36991500  0.42695000  1
  O  O12  1  0.52549000  0.14244600  0.35188900  1
  O  O13  1  0.50720500  0.78945800  0.79529900  1
