# generated using pymatgen
data_Zn3H22C40(NO6)2
_symmetry_space_group_name_H-M   'P 1'
_cell_length_a   21.85337600
_cell_length_b   21.88202000
_cell_length_c   22.19904400
_cell_angle_alpha   119.51493500
_cell_angle_beta   119.47614700
_cell_angle_gamma   90.01198500
_symmetry_Int_Tables_number   1
_chemical_formula_structural   Zn3H22C40(NO6)2
_chemical_formula_sum   'Zn6 H44 C80 N4 O24'
_cell_volume   7618.56732557
_cell_formula_units_Z   2
loop_
 _symmetry_equiv_pos_site_id
 _symmetry_equiv_pos_as_xyz
  1  'x, y, z'
loop_
 _atom_site_type_symbol
 _atom_site_label
 _atom_site_symmetry_multiplicity
 _atom_site_fract_x
 _atom_site_fract_y
 _atom_site_fract_z
 _atom_site_occupancy
  Zn  Zn1  1  0.42931400  0.99976300  0.49721300  1
  Zn  Zn2  1  0.57068600  0.00023600  0.50278700  1
  Zn  Zn3  1  0.00149700  0.57155800  0.50492800  1
  Zn  Zn4  1  0.99850300  0.42844200  0.49507200  1
  Zn  Zn5  1  0.53988000  0.54167200  0.59392000  1
  Zn  Zn6  1  0.46012000  0.45832700  0.40608000  1
  H  H1  1  0.72438700  0.64025600  0.66201100  1
  H  H2  1  0.27561300  0.35974400  0.33798900  1
  H  H3  1  0.71661300  0.37481600  0.07290800  1
  H  H4  1  0.28338700  0.62518400  0.92709200  1
  H  H5  1  0.65757800  0.31039200  0.93218100  1
  H  H6  1  0.34242200  0.68960800  0.06781900  1
  H  H7  1  0.80874900  0.23054900  0.93604100  1
  H  H8  1  0.19125100  0.76945100  0.06395900  1
  H  H9  1  0.76893400  0.30061800  0.92767200  1
  H  H10  1  0.23106600  0.69938200  0.07232700  1
  H  H11  1  0.82802700  0.37692600  0.06832200  1
  H  H12  1  0.17197300  0.62307400  0.93167800  1
  H  H13  1  0.87682400  0.31192200  0.07690700  1
  H  H14  1  0.12317600  0.68807800  0.92309300  1
  H  H15  1  0.66123500  0.14041200  0.93208000  1
  H  H16  1  0.33876500  0.85958700  0.06792000  1
  H  H17  1  0.74088900  0.13150300  0.92670200  1
  H  H18  1  0.25911100  0.86849700  0.07329800  1
  H  H19  1  0.73957600  0.20556200  0.07311200  1
  H  H20  1  0.26042400  0.79443700  0.92688800  1
  H  H21  1  0.60680100  0.23793900  0.92339500  1
  H  H22  1  0.39319900  0.76206100  0.07660500  1
  H  H23  1  0.67461000  0.29729600  0.06433000  1
  H  H24  1  0.32539000  0.70270300  0.93567000  1
  H  H25  1  0.81938400  0.20687300  0.06776100  1
  H  H26  1  0.18061600  0.79312700  0.93223900  1
  H  H27  1  0.38163300  0.05691300  0.34358800  1
  H  H28  1  0.61836700  0.94308700  0.65641200  1
  H  H29  1  0.27293300  0.05404600  0.23303000  1
  H  H30  1  0.72706700  0.94595400  0.76697000  1
  H  H31  1  0.26054600  0.16807700  0.23987500  1
  H  H32  1  0.73945400  0.83192300  0.76012500  1
  H  H33  1  0.35725600  0.28429000  0.35525300  1
  H  H34  1  0.64274400  0.71571000  0.64474600  1
  H  H35  1  0.59748400  0.35700500  0.60035100  1
  H  H36  1  0.40251600  0.64299500  0.39964900  1
  H  H37  1  0.64588100  0.40641600  0.40364900  1
  H  H38  1  0.35411900  0.59358400  0.59635100  1
  H  H39  1  0.75559000  0.40404900  0.40163500  1
  H  H40  1  0.24441000  0.59595000  0.59836500  1
  H  H41  1  0.94730700  0.61825700  0.66223400  1
  H  H42  1  0.05269300  0.38174300  0.33776600  1
  H  H43  1  0.95438800  0.72080300  0.78096100  1
  H  H44  1  0.04561200  0.27919700  0.21903900  1
  C  C1  1  0.49909800  0.11449500  0.49029600  1
  C  C2  1  0.50090200  0.88550500  0.50970400  1
  C  C3  1  0.57970700  0.08858300  0.66378600  1
  C  C4  1  0.42029300  0.91141700  0.33621400  1
  C  C5  1  0.77129100  0.63098100  0.65898400  1
  C  C6  1  0.22870900  0.36901900  0.34101500  1
  C  C7  1  0.69661400  0.45211100  0.45622500  1
  C  C8  1  0.30338600  0.54788800  0.54377400  1
  C  C9  1  0.69843200  0.51092500  0.52280900  1
  C  C10  1  0.30156800  0.48907500  0.47719100  1
  C  C11  1  0.82878100  0.56560800  0.58967500  1
  C  C12  1  0.17121900  0.43439200  0.41032400  1
  C  C13  1  0.66293400  0.27142100  0.95132400  1
  C  C14  1  0.33706600  0.72857900  0.04867600  1
  C  C15  1  0.77751000  0.26734700  0.95429900  1
  C  C16  1  0.22249000  0.73265300  0.04570100  1
  C  C17  1  0.82126500  0.31867700  0.04902800  1
  C  C18  1  0.17873500  0.68132300  0.95097200  1
  C  C19  1  0.86315200  0.38131500  0.24656300  1
  C  C20  1  0.13684800  0.61868400  0.75343700  1
  C  C21  1  0.70316800  0.22089600  0.92099600  1
  C  C22  1  0.29683200  0.77910400  0.07900400  1
  C  C23  1  0.70663000  0.31478100  0.04613100  1
  C  C24  1  0.29337000  0.68521900  0.95386900  1
  C  C25  1  0.78005400  0.29987700  0.07924300  1
  C  C26  1  0.21994600  0.70012300  0.92075700  1
  C  C27  1  0.76599600  0.21873800  0.04738000  1
  C  C28  1  0.23400400  0.78126200  0.95262000  1
  C  C29  1  0.71526000  0.17146700  0.95254800  1
  C  C30  1  0.28474000  0.82853300  0.04745200  1
  C  C31  1  0.82504700  0.34515500  0.17099500  1
  C  C32  1  0.17495300  0.65484500  0.82900500  1
  C  C33  1  0.65880700  0.17469200  0.82926000  1
  C  C34  1  0.34119300  0.82530700  0.17074000  1
  C  C35  1  0.62258400  0.13579600  0.75370600  1
  C  C36  1  0.37741600  0.86420400  0.24629400  1
  C  C37  1  0.37898300  0.10862000  0.34942500  1
  C  C38  1  0.62101700  0.89138000  0.65057500  1
  C  C39  1  0.31694900  0.10608300  0.28545500  1
  C  C40  1  0.68305100  0.89391700  0.71454500  1
  C  C41  1  0.31023400  0.16986400  0.28906500  1
  C  C42  1  0.68976600  0.83013500  0.71093500  1
  C  C43  1  0.36673700  0.23591700  0.35479000  1
  C  C44  1  0.63326300  0.76408300  0.64521000  1
  C  C45  1  0.43159700  0.23907500  0.41814500  1
  C  C46  1  0.56840300  0.76092500  0.58185400  1
  C  C47  1  0.43577000  0.17526500  0.41748600  1
  C  C48  1  0.56423000  0.82473400  0.58251400  1
  C  C49  1  0.49671100  0.17834500  0.48431900  1
  C  C50  1  0.50328900  0.82165500  0.51568100  1
  C  C51  1  0.55419700  0.24405500  0.54941300  1
  C  C52  1  0.44580300  0.75594500  0.45058700  1
  C  C53  1  0.55134000  0.30641500  0.54876200  1
  C  C54  1  0.44866000  0.69358500  0.45123800  1
  C  C55  1  0.49104300  0.30502500  0.48379000  1
  C  C56  1  0.50895700  0.69497400  0.51621000  1
  C  C57  1  0.75885700  0.44994500  0.45523400  1
  C  C58  1  0.24114300  0.55005500  0.54476600  1
  C  C59  1  0.82439400  0.50693100  0.52040200  1
  C  C60  1  0.17560600  0.49306900  0.47959800  1
  C  C61  1  0.88723400  0.50473300  0.51274200  1
  C  C62  1  0.11276600  0.49526700  0.48725700  1
  C  C63  1  0.90993300  0.42289900  0.33643200  1
  C  C64  1  0.09006700  0.57710000  0.66356800  1
  C  C65  1  0.62745500  0.50800800  0.51557200  1
  C  C66  1  0.37254500  0.49199200  0.48442700  1
  C  C67  1  0.49335600  0.37495000  0.48923000  1
  C  C68  1  0.50664400  0.62505000  0.51077000  1
  C  C69  1  0.76559200  0.56887500  0.59079500  1
  C  C70  1  0.23440800  0.43112400  0.40920500  1
  C  C71  1  0.89642100  0.62042900  0.65871800  1
  C  C72  1  0.10357900  0.37957100  0.34128200  1
  C  C73  1  0.90132500  0.67897700  0.72714900  1
  C  C74  1  0.09867500  0.32102300  0.27285100  1
  C  C75  1  0.83879500  0.68464100  0.72688900  1
  C  C76  1  0.16120500  0.31535900  0.27311100  1
  C  C77  1  0.84432600  0.74583200  0.79874300  1
  C  C78  1  0.15567400  0.25416800  0.20125700  1
  C  C79  1  0.61623500  0.24917200  0.62053100  1
  C  C80  1  0.38376500  0.75082800  0.37946900  1
  N  N1  1  0.84909100  0.79508900  0.85698100  1
  N  N2  1  0.15090900  0.20491100  0.14301900  1
  N  N3  1  0.66622100  0.25337700  0.67789500  1
  N  N4  1  0.33377900  0.74662300  0.32210500  1
  O  O1  1  0.44522200  0.08578000  0.48886400  1
  O  O2  1  0.55477800  0.91421900  0.51113600  1
  O  O3  1  0.55484000  0.08894600  0.49708100  1
  O  O4  1  0.44516000  0.91105400  0.50291900  1
  O  O5  1  0.50717400  0.06570000  0.62259900  1
  O  O6  1  0.49282600  0.93429900  0.37740100  1
  O  O7  1  0.61517500  0.06946800  0.62721100  1
  O  O8  1  0.38482500  0.93053200  0.37278900  1
  O  O9  1  0.91590100  0.55928600  0.51518800  1
  O  O10  1  0.08409900  0.44071400  0.48481100  1
  O  O11  1  0.91157500  0.44795700  0.50291200  1
  O  O12  1  0.08842500  0.55204300  0.49708800  1
  O  O13  1  0.93087300  0.49557700  0.37949900  1
  O  O14  1  0.06912700  0.50442300  0.62050100  1
  O  O15  1  0.93164200  0.38600900  0.37101400  1
  O  O16  1  0.06835800  0.61399100  0.62898600  1
  O  O17  1  0.62656100  0.53484000  0.58254500  1
  O  O18  1  0.37343900  0.46515900  0.41745500  1
  O  O19  1  0.56642500  0.47516000  0.43992900  1
  O  O20  1  0.43357500  0.52483900  0.56007100  1
  O  O21  1  0.52471300  0.43672700  0.56388600  1
  O  O22  1  0.47528600  0.56327200  0.43611400  1
  O  O23  1  0.46741800  0.37393300  0.42123300  1
  O  O24  1  0.53258200  0.62606700  0.57876700  1
