# generated using pymatgen
data_Fe2H25C47NO16
_symmetry_space_group_name_H-M   'P 1'
_cell_length_a   14.49807700
_cell_length_b   9.39616400
_cell_length_c   19.56345900
_cell_angle_alpha   85.71983000
_cell_angle_beta   90.41920200
_cell_angle_gamma   110.44774800
_symmetry_Int_Tables_number   1
_chemical_formula_structural   Fe2H25C47NO16
_chemical_formula_sum   'Fe2 H25 C47 N1 O16'
_cell_volume   2489.66941196
_cell_formula_units_Z   1
loop_
 _symmetry_equiv_pos_site_id
 _symmetry_equiv_pos_as_xyz
  1  'x, y, z'
loop_
 _atom_site_type_symbol
 _atom_site_label
 _atom_site_symmetry_multiplicity
 _atom_site_fract_x
 _atom_site_fract_y
 _atom_site_fract_z
 _atom_site_occupancy
  Fe  Fe1  1  0.49903100  0.98913200  0.13738800  1
  Fe  Fe2  1  0.50508900  0.00469900  0.86486900  1
  H  H1  1  0.84961700  0.02669700  0.12969000  1
  H  H2  1  0.99498000  0.97391700  0.87830300  1
  H  H3  1  0.14832600  0.95945500  0.87358200  1
  H  H4  1  0.18819900  0.01719600  0.11996200  1
  H  H5  1  0.01932600  0.25601500  0.15002100  1
  H  H6  1  0.03370900  0.21006800  0.28030200  1
  H  H7  1  0.03804100  0.93052200  0.30704000  1
  H  H8  1  0.02542200  0.80800800  0.18674200  1
  H  H9  1  0.49311900  0.54064100  0.84065200  1
  H  H10  1  0.50332500  0.28851300  0.67014100  1
  H  H11  1  0.50785100  0.74563800  0.63845000  1
  H  H12  1  0.60567200  0.73139900  0.54864600  1
  H  H13  1  0.60047100  0.71602100  0.42560700  1
  H  H14  1  0.39492500  0.26008600  0.45309700  1
  H  H15  1  0.40003300  0.27549600  0.57617100  1
  H  H16  1  0.49346500  0.24602600  0.36346300  1
  H  H17  1  0.50969400  0.45124800  0.16122100  1
  H  H18  1  0.49717500  0.70266200  0.33152400  1
  H  H19  1  0.75061600  0.89079400  0.73743400  1
  H  H20  1  0.87513700  0.88957900  0.74321900  1
  H  H21  1  0.77181500  0.71208900  0.74941500  1
  H  H22  1  0.84189200  0.78044000  0.86366100  1
  H  H23  1  0.71700000  0.77650200  0.85809200  1
  H  H24  1  0.77251600  0.05330500  0.83672800  1
  H  H25  1  0.89586600  0.07261600  0.83122900  1
  C  C1  1  0.84731800  0.02352900  0.07484900  1
  C  C2  1  0.76088700  0.01830500  0.04318600  1
  C  C3  1  0.75456200  0.01240800  0.97256100  1
  C  C4  1  0.83454900  0.00940900  0.93434900  1
  C  C5  1  0.91953300  0.00524900  0.96782900  1
  C  C6  1  0.92666000  0.01608300  0.03807700  1
  C  C7  1  0.99691900  0.98679900  0.93250900  1
  C  C8  1  0.08003100  0.98248600  0.96584000  1
  C  C9  1  0.08835500  0.99628500  0.03527500  1
  C  C10  1  0.01146900  0.01341700  0.07178000  1
  C  C11  1  0.15629600  0.96902000  0.92815700  1
  C  C12  1  0.24343600  0.97391500  0.95872300  1
  C  C13  1  0.25227300  0.98773100  0.02874500  1
  C  C14  1  0.17524600  0.99857600  0.06649200  1
  C  C15  1  0.03017300  0.12902900  0.24304900  1
  C  C16  1  0.03247400  0.98409900  0.25709600  1
  C  C17  1  0.02606200  0.92081600  0.19501600  1
  C  C18  1  0.02026900  0.03001300  0.14570400  1
  C  C19  1  0.67673400  0.01188500  0.08701600  1
  C  C20  1  0.50273600  0.71910200  0.19366900  1
  C  C21  1  0.34620400  0.01370300  0.06261700  1
  C  C22  1  0.49654500  0.19293200  0.23244300  1
  C  C23  1  0.50650200  0.79957700  0.76951000  1
  C  C24  1  0.65932800  0.98430100  0.93979200  1
  C  C25  1  0.49873800  0.27219200  0.80799100  1
  C  C26  1  0.32589400  0.97545900  0.91483500  1
  C  C27  1  0.49812600  0.40025600  0.76042800  1
  C  C28  1  0.50138700  0.39138900  0.69029400  1
  C  C29  1  0.50416900  0.51491700  0.64594000  1
  C  C30  1  0.50639200  0.64854300  0.67224200  1
  C  C31  1  0.50081700  0.65650100  0.74199500  1
  C  C32  1  0.49510600  0.53184100  0.78598100  1
  C  C33  1  0.55798200  0.62795600  0.52820300  1
  C  C34  1  0.55483900  0.61942900  0.45815900  1
  C  C35  1  0.49712500  0.48717400  0.43034900  1
  C  C36  1  0.44251400  0.36357500  0.47356500  1
  C  C37  1  0.44562400  0.37212000  0.54361600  1
  C  C38  1  0.50339300  0.50435800  0.57142900  1
  C  C39  1  0.49502800  0.34314200  0.32964200  1
  C  C40  1  0.50149600  0.33556100  0.25993300  1
  C  C41  1  0.50712300  0.45999700  0.21586900  1
  C  C42  1  0.50334900  0.59119900  0.24130200  1
  C  C43  1  0.49955000  0.59998400  0.31142300  1
  C  C44  1  0.49669100  0.47654900  0.35585800  1
  C  C45  1  0.82582300  0.00233900  0.85777100  1
  C  C46  1  0.79366500  0.83794600  0.83938900  1
  C  C47  1  0.79816200  0.83258000  0.76227800  1
  N  N1  1  0.02262500  0.15604500  0.17512600  1
  O  O1  1  0.59585100  0.02518800  0.06148800  1
  O  O2  1  0.51478100  0.71370700  0.12761800  1
  O  O3  1  0.68157100  0.98931300  0.15375300  1
  O  O4  1  0.48961500  0.83916500  0.21608000  1
  O  O5  1  0.36478500  0.90216800  0.09756200  1
  O  O6  1  0.41341700  0.15063300  0.05742100  1
  O  O7  1  0.54159500  0.19558900  0.17411400  1
  O  O8  1  0.43960400  0.06308700  0.26286900  1
  O  O9  1  0.46396400  0.79754100  0.82879900  1
  O  O10  1  0.56101000  0.92928600  0.73765700  1
  O  O11  1  0.63917000  0.09438000  0.90474100  1
  O  O12  1  0.59245500  0.84715100  0.94653500  1
  O  O13  1  0.31952600  0.99268000  0.84798800  1
  O  O14  1  0.51354800  0.15320900  0.78574500  1
  O  O15  1  0.40802400  0.96797900  0.94070500  1
  O  O16  1  0.48564000  0.27685200  0.87397000  1
