# generated using pymatgen
data_ZnH3C13N(O2F)2
_symmetry_space_group_name_H-M   'P 1'
_cell_length_a   15.06933600
_cell_length_b   8.44480500
_cell_length_c   12.83184400
_cell_angle_alpha   90.00000000
_cell_angle_beta   99.12580200
_cell_angle_gamma   90.00000000
_symmetry_Int_Tables_number   1
_chemical_formula_structural   ZnH3C13N(O2F)2
_chemical_formula_sum   'Zn2 H6 C26 N2 O8 F4'
_cell_volume   1612.28063401
_cell_formula_units_Z   2
loop_
 _symmetry_equiv_pos_site_id
 _symmetry_equiv_pos_as_xyz
  1  'x, y, z'
loop_
 _atom_site_type_symbol
 _atom_site_label
 _atom_site_symmetry_multiplicity
 _atom_site_fract_x
 _atom_site_fract_y
 _atom_site_fract_z
 _atom_site_occupancy
  Zn  Zn1  1  0.50292600  0.50053600  0.88434300  1
  Zn  Zn2  1  0.49707300  0.49946400  0.11565700  1
  H  H1  1  0.56742100  0.99925300  0.05801000  1
  H  H2  1  0.43257900  0.00074700  0.94199000  1
  H  H3  1  0.80216100  0.74661600  0.01403500  1
  H  H4  1  0.19783900  0.25338400  0.98596500  1
  H  H5  1  0.19810200  0.74655000  0.98399000  1
  H  H6  1  0.80189800  0.25345000  0.01601000  1
  C  C1  1  0.68060100  0.85814500  0.03970900  1
  C  C2  1  0.31940000  0.14185500  0.96029100  1
  C  C3  1  0.31997600  0.85921500  0.96185200  1
  C  C4  1  0.68002400  0.14078500  0.03814800  1
  C  C5  1  0.76931600  0.85776000  0.02504600  1
  C  C6  1  0.23068400  0.14224000  0.97495400  1
  C  C7  1  0.23147100  0.85837400  0.97724000  1
  C  C8  1  0.76852900  0.14162600  0.02276000  1
  C  C9  1  0.81434700  0.99984400  0.01973600  1
  C  C10  1  0.18565300  0.00015600  0.98026400  1
  C  C11  1  0.63765100  0.99942800  0.05005500  1
  C  C12  1  0.36234900  0.00057200  0.94994500  1
  C  C13  1  0.94201700  0.10433500  0.94102500  1
  C  C14  1  0.05798300  0.89566500  0.05897400  1
  C  C15  1  0.03214400  0.10485400  0.93267700  1
  C  C16  1  0.96785600  0.89514600  0.06732300  1
  C  C17  1  0.50473200  0.50073000  0.65776200  1
  C  C18  1  0.49526800  0.49927000  0.34223800  1
  C  C19  1  0.50154600  0.50022200  0.54720300  1
  C  C20  1  0.49845500  0.49977800  0.45279700  1
  C  C21  1  0.09045900  0.00049800  0.99143600  1
  C  C22  1  0.90954100  0.99950200  0.00856300  1
  C  C23  1  0.62579200  0.71495500  0.02761500  1
  C  C24  1  0.37420800  0.28504500  0.97238500  1
  C  C25  1  0.37483600  0.71609100  0.97331300  1
  C  C26  1  0.62516400  0.28390900  0.02668700  1
  N  N1  1  0.50648100  0.50104100  0.74822400  1
  N  N2  1  0.49351900  0.49895900  0.25177600  1
  O  O1  1  0.59489800  0.66022600  0.11063500  1
  O  O2  1  0.40510200  0.33977400  0.88936500  1
  O  O3  1  0.40556100  0.66197500  0.89001600  1
  O  O4  1  0.59443900  0.33802500  0.10998300  1
  O  O5  1  0.59620200  0.66710500  0.93108700  1
  O  O6  1  0.40379900  0.33289600  0.06891200  1
  O  O7  1  0.40425900  0.66705800  0.06959000  1
  O  O8  1  0.59574100  0.33294200  0.93041000  1
  F  F1  1  0.88518800  0.20165900  0.87843500  1
  F  F2  1  0.11481200  0.79834100  0.12156500  1
  F  F3  1  0.06230700  0.20319600  0.86253700  1
  F  F4  1  0.93769300  0.79680400  0.13746300  1
