# generated using pymatgen
data_Zn3H24C44O13
_symmetry_space_group_name_H-M   'P 1'
_cell_length_a   37.05193200
_cell_length_b   30.32997100
_cell_length_c   21.79823600
_cell_angle_alpha   90.00000000
_cell_angle_beta   54.93290200
_cell_angle_gamma   90.00000000
_symmetry_Int_Tables_number   1
_chemical_formula_structural   Zn3H24C44O13
_chemical_formula_sum   'Zn12 H96 C176 O52'
_cell_volume   20049.89753890
_cell_formula_units_Z   4
loop_
 _symmetry_equiv_pos_site_id
 _symmetry_equiv_pos_as_xyz
  1  'x, y, z'
loop_
 _atom_site_type_symbol
 _atom_site_label
 _atom_site_symmetry_multiplicity
 _atom_site_fract_x
 _atom_site_fract_y
 _atom_site_fract_z
 _atom_site_occupancy
  Zn  Zn1  1  0.00139000  0.56650700  0.49802200  1
  Zn  Zn2  1  0.50139000  0.06650600  0.49802200  1
  Zn  Zn3  1  0.00043000  0.46660400  0.49875100  1
  Zn  Zn4  1  0.50043000  0.96660300  0.49875100  1
  Zn  Zn5  1  0.95096000  0.51158700  0.04190000  1
  Zn  Zn6  1  0.05053400  0.51089000  0.95508700  1
  Zn  Zn7  1  0.45096000  0.01158700  0.04190000  1
  Zn  Zn8  1  0.55053400  0.01089000  0.95508700  1
  Zn  Zn9  1  0.50066800  0.51130300  0.06921500  1
  Zn  Zn10  1  0.50123000  0.51102700  0.92979000  1
  Zn  Zn11  1  0.00066800  0.01130300  0.06921500  1
  Zn  Zn12  1  0.00123000  0.01102700  0.92979000  1
  H  H1  1  0.06846800  0.65115400  0.90197500  1
  H  H2  1  0.93477400  0.65169100  0.09491200  1
  H  H3  1  0.56846800  0.15115400  0.90197500  1
  H  H4  1  0.43477400  0.15169100  0.09491300  1
  H  H5  1  0.95862900  0.56144200  0.73586300  1
  H  H6  1  0.04603800  0.55710600  0.25846800  1
  H  H7  1  0.45862900  0.06144200  0.73586300  1
  H  H8  1  0.54603700  0.05710600  0.25846800  1
  H  H9  1  0.08105700  0.47570000  0.55618400  1
  H  H10  1  0.91914600  0.47878000  0.44270800  1
  H  H11  1  0.58105700  0.97570000  0.55618400  1
  H  H12  1  0.41914600  0.97877900  0.44270800  1
  H  H13  1  0.12250100  0.41147100  0.67879500  1
  H  H14  1  0.87198000  0.41917100  0.32529000  1
  H  H15  1  0.62250100  0.91147100  0.67879500  1
  H  H16  1  0.37198100  0.91917000  0.32528900  1
  H  H17  1  0.06679400  0.44856500  0.79049700  1
  H  H18  1  0.93043600  0.45167600  0.21093100  1
  H  H19  1  0.56679400  0.94856500  0.79049700  1
  H  H20  1  0.43043600  0.95167600  0.21093100  1
  H  H21  1  0.95803700  0.55781400  0.84773500  1
  H  H22  1  0.04633900  0.55382100  0.14686300  1
  H  H23  1  0.45803600  0.05781300  0.84773600  1
  H  H24  1  0.54633900  0.05382100  0.14686300  1
  H  H25  1  0.21958100  0.44742100  0.23498800  1
  H  H26  1  0.78216100  0.45136400  0.76233800  1
  H  H27  1  0.71958100  0.94742100  0.23498800  1
  H  H28  1  0.28216100  0.95136400  0.76233700  1
  H  H29  1  0.13934000  0.44880400  0.31482800  1
  H  H30  1  0.86234700  0.45231300  0.68164400  1
  H  H31  1  0.63934000  0.94880400  0.31482800  1
  H  H32  1  0.36234700  0.95231300  0.68164400  1
  H  H33  1  0.14251600  0.57960800  0.38483900  1
  H  H34  1  0.85962400  0.58387100  0.61400800  1
  H  H35  1  0.64251600  0.07960800  0.38484000  1
  H  H36  1  0.35962400  0.08387100  0.61400800  1
  H  H37  1  0.22269100  0.57772800  0.30580400  1
  H  H38  1  0.77935100  0.58248700  0.69398900  1
  H  H39  1  0.72269100  0.07772800  0.30580400  1
  H  H40  1  0.27935100  0.08248700  0.69398900  1
  H  H41  1  0.28049800  0.53428000  0.30514000  1
  H  H42  1  0.72096100  0.54017200  0.69500200  1
  H  H43  1  0.78049800  0.03428000  0.30514000  1
  H  H44  1  0.22096100  0.04017300  0.69500200  1
  H  H45  1  0.36067800  0.53293800  0.22746600  1
  H  H46  1  0.64080700  0.53783300  0.77277700  1
  H  H47  1  0.86067800  0.03293800  0.22746600  1
  H  H48  1  0.14080700  0.03783300  0.77277700  1
  H  H49  1  0.36046200  0.48751200  0.04194000  1
  H  H50  1  0.64186000  0.48921200  0.95593600  1
  H  H51  1  0.86046200  0.98751200  0.04194000  1
  H  H52  1  0.14186000  0.98921200  0.95593600  1
  H  H53  1  0.28017700  0.48811400  0.12047100  1
  H  H54  1  0.72206600  0.49095400  0.87738300  1
  H  H55  1  0.78017700  0.98811400  0.12047100  1
  H  H56  1  0.22206600  0.99095400  0.87738200  1
  H  H57  1  0.47729000  0.37067600  0.11572300  1
  H  H58  1  0.52728100  0.37125700  0.88347300  1
  H  H59  1  0.97729000  0.87067600  0.11572300  1
  H  H60  1  0.02728100  0.87125700  0.88347300  1
  H  H61  1  0.06867000  0.73145000  0.90194000  1
  H  H62  1  0.93558900  0.73194100  0.09557900  1
  H  H63  1  0.56867000  0.23145000  0.90194000  1
  H  H64  1  0.43558900  0.23194100  0.09557900  1
  H  H65  1  0.47694600  0.29039900  0.11517200  1
  H  H66  1  0.52785800  0.29097600  0.88292500  1
  H  H67  1  0.97694600  0.79039900  0.11517200  1
  H  H68  1  0.02785800  0.79097600  0.88292500  1
  H  H69  1  0.06519900  0.29050500  0.97074200  1
  H  H70  1  0.93398200  0.29103200  0.02796000  1
  H  H71  1  0.56519900  0.79050500  0.97074200  1
  H  H72  1  0.43398200  0.79103200  0.02796100  1
  H  H73  1  0.06581800  0.37065400  0.96966300  1
  H  H74  1  0.93406800  0.37124900  0.02824200  1
  H  H75  1  0.56581800  0.87065400  0.96966300  1
  H  H76  1  0.43406800  0.87124900  0.02824200  1
  H  H77  1  0.47466600  0.73158300  0.93212500  1
  H  H78  1  0.52416900  0.73163100  0.06712100  1
  H  H79  1  0.97466600  0.23158400  0.93212500  1
  H  H80  1  0.02416900  0.23163100  0.06712100  1
  H  H81  1  0.47517800  0.65138400  0.93120800  1
  H  H82  1  0.52408400  0.65145900  0.06751000  1
  H  H83  1  0.97517800  0.15138500  0.93120800  1
  H  H84  1  0.02408400  0.15145900  0.06751000  1
  H  H85  1  0.12723700  0.43414700  0.45730000  1
  H  H86  1  0.19892400  0.38692200  0.36850900  1
  H  H87  1  0.22664500  0.36074400  0.45017500  1
  H  H88  1  0.87096600  0.43879100  0.54322400  1
  H  H89  1  0.79434000  0.39985200  0.63672000  1
  H  H90  1  0.76237300  0.38013400  0.55883700  1
  H  H91  1  0.62723700  0.93414700  0.45730000  1
  H  H92  1  0.69892400  0.88692200  0.36850900  1
  H  H93  1  0.72664500  0.86074500  0.45017500  1
  H  H94  1  0.37096600  0.93879100  0.54322300  1
  H  H95  1  0.29434100  0.89985000  0.63672000  1
  H  H96  1  0.26237400  0.88013200  0.55883600  1
  C  C1  1  0.08697200  0.51484500  0.40511500  1
  C  C2  1  0.91484400  0.51819300  0.59177900  1
  C  C3  1  0.58697200  0.01484500  0.40511500  1
  C  C4  1  0.41484400  0.01819300  0.59177900  1
  C  C5  1  0.00853700  0.51726800  0.61041400  1
  C  C6  1  0.99344600  0.51588900  0.38619400  1
  C  C7  1  0.50853700  0.01726800  0.61041400  1
  C  C8  1  0.49344600  0.01588900  0.38619400  1
  C  C9  1  0.03909900  0.66858200  0.94479600  1
  C  C10  1  0.96436900  0.66887800  0.05221800  1
  C  C11  1  0.53909900  0.16858200  0.94479600  1
  C  C12  1  0.46436900  0.16887800  0.05221900  1
  C  C13  1  0.49965400  0.64574100  0.99932800  1
  C  C14  1  0.99965400  0.14574100  0.99932700  1
  C  C15  1  0.07653500  0.46929100  0.60866300  1
  C  C16  1  0.92276900  0.47258200  0.39087400  1
  C  C17  1  0.57653500  0.96929100  0.60866300  1
  C  C18  1  0.42276900  0.97258200  0.39087400  1
  C  C19  1  0.10561300  0.44128400  0.60956100  1
  C  C20  1  0.89139700  0.44723900  0.39211600  1
  C  C21  1  0.60561300  0.94128400  0.60956100  1
  C  C22  1  0.39139700  0.94723800  0.39211500  1
  C  C23  1  0.10102700  0.43422100  0.67606000  1
  C  C24  1  0.89523100  0.44010800  0.32628400  1
  C  C25  1  0.60102700  0.93422100  0.67606000  1
  C  C26  1  0.39523100  0.94010700  0.32628300  1
  C  C27  1  0.06931000  0.45636400  0.73997800  1
  C  C28  1  0.92854900  0.45974200  0.26078400  1
  C  C29  1  0.56931000  0.95636400  0.73997800  1
  C  C30  1  0.42855000  0.95974200  0.26078400  1
  C  C31  1  0.04144900  0.48641300  0.73870600  1
  C  C32  1  0.95849900  0.48777500  0.25992600  1
  C  C33  1  0.54144900  0.98641300  0.73870600  1
  C  C34  1  0.45849900  0.98777500  0.25992600  1
  C  C35  1  0.04328600  0.49056500  0.67354400  1
  C  C36  1  0.95711900  0.49181400  0.32469100  1
  C  C37  1  0.54328600  0.99056500  0.67354400  1
  C  C38  1  0.45712000  0.99181300  0.32469100  1
  C  C39  1  0.01252100  0.51683000  0.67336700  1
  C  C40  1  0.98948300  0.51598900  0.32329100  1
  C  C41  1  0.51252100  0.01683000  0.67336700  1
  C  C42  1  0.48948300  0.01598800  0.32329100  1
  C  C43  1  0.98257000  0.54106000  0.73582800  1
  C  C44  1  0.02088300  0.53833700  0.25953400  1
  C  C45  1  0.48257000  0.04106000  0.73582800  1
  C  C46  1  0.52088300  0.03833700  0.25953400  1
  C  C47  1  0.98175800  0.53831400  0.79941500  1
  C  C48  1  0.02144700  0.53573400  0.19617200  1
  C  C49  1  0.48175700  0.03831400  0.79941500  1
  C  C50  1  0.52144700  0.03573400  0.19617200  1
  C  C51  1  0.01084300  0.51126100  0.80175900  1
  C  C52  1  0.99064600  0.51068800  0.19535700  1
  C  C53  1  0.51084200  0.01126100  0.80175900  1
  C  C54  1  0.49064600  0.01068800  0.19535700  1
  C  C55  1  0.20278900  0.47669800  0.26729300  1
  C  C56  1  0.79900100  0.48074500  0.73046600  1
  C  C57  1  0.70278900  0.97669800  0.26729300  1
  C  C58  1  0.29900100  0.98074500  0.73046600  1
  C  C59  1  0.15732700  0.47741400  0.31295800  1
  C  C60  1  0.84443300  0.48119800  0.68427600  1
  C  C61  1  0.65732700  0.97741400  0.31295800  1
  C  C62  1  0.34443300  0.98119800  0.68427500  1
  C  C63  1  0.13524300  0.51438500  0.35525800  1
  C  C64  1  0.86661500  0.51821400  0.64231300  1
  C  C65  1  0.63524300  0.01438500  0.35525800  1
  C  C66  1  0.36661500  0.01821400  0.64231300  1
  C  C67  1  0.15908000  0.55049000  0.35179300  1
  C  C68  1  0.84291500  0.55471600  0.64679900  1
  C  C69  1  0.65908000  0.05049000  0.35179300  1
  C  C70  1  0.34291500  0.05471600  0.64679900  1
  C  C71  1  0.20452200  0.54928100  0.30765000  1
  C  C72  1  0.79744700  0.55378200  0.69145600  1
  C  C73  1  0.70452200  0.04928100  0.30765000  1
  C  C74  1  0.29744700  0.05378200  0.69145600  1
  C  C75  1  0.22658800  0.51246200  0.26500400  1
  C  C76  1  0.77528500  0.51684400  0.73365000  1
  C  C77  1  0.72658800  0.01246200  0.26500400  1
  C  C78  1  0.27528500  0.01684300  0.73365000  1
  C  C79  1  0.29791600  0.52409300  0.24726200  1
  C  C80  1  0.70372700  0.52917600  0.75244500  1
  C  C81  1  0.79791600  0.02409300  0.24726200  1
  C  C82  1  0.20372700  0.02917600  0.75244500  1
  C  C83  1  0.34335800  0.52291300  0.20336800  1
  C  C84  1  0.65829400  0.52741500  0.79638200  1
  C  C85  1  0.84335800  0.02291300  0.20336800  1
  C  C86  1  0.15829400  0.02741500  0.79638200  1
  C  C87  1  0.36625900  0.51016500  0.12915900  1
  C  C88  1  0.63561700  0.51335300  0.86992100  1
  C  C89  1  0.86625900  0.01016500  0.12915900  1
  C  C90  1  0.13561700  0.01335300  0.86992100  1
  C  C91  1  0.34322100  0.49780300  0.09972800  1
  C  C92  1  0.65888200  0.50050200  0.89869800  1
  C  C93  1  0.84322100  0.99780300  0.09972800  1
  C  C94  1  0.15888200  0.00050200  0.89869800  1
  C  C95  1  0.29773400  0.49775800  0.14433400  1
  C  C96  1  0.70435400  0.50112000  0.85404500  1
  C  C97  1  0.79773400  0.99775800  0.14433400  1
  C  C98  1  0.20435400  0.00112000  0.85404500  1
  C  C99  1  0.27488800  0.51133700  0.21807900  1
  C  C100  1  0.72697900  0.51577600  0.78090000  1
  C  C101  1  0.77488800  0.01133700  0.21807900  1
  C  C102  1  0.22697900  0.01577600  0.78090000  1
  C  C103  1  0.00158300  0.64580300  0.99841400  1
  C  C104  1  0.50158300  0.14580300  0.99841500  1
  C  C105  1  0.03913600  0.71403700  0.94431600  1
  C  C106  1  0.96491400  0.71430800  0.05308500  1
  C  C107  1  0.53913600  0.21403600  0.94431600  1
  C  C108  1  0.46491400  0.21430800  0.05308500  1
  C  C109  1  0.49940600  0.73704800  0.99963800  1
  C  C110  1  0.99940600  0.23704900  0.99963800  1
  C  C111  1  0.00217100  0.73706600  0.99881500  1
  C  C112  1  0.50217100  0.23706600  0.99881500  1
  C  C113  1  0.00024500  0.42491300  0.99866800  1
  C  C114  1  0.50024500  0.92491300  0.99866800  1
  C  C115  1  0.00807400  0.51072400  0.87162800  1
  C  C116  1  0.99336200  0.51032700  0.12545400  1
  C  C117  1  0.50807400  0.01072400  0.87162800  1
  C  C118  1  0.49336200  0.01032700  0.12545400  1
  C  C119  1  0.48795000  0.30805000  0.06416500  1
  C  C120  1  0.51690000  0.30837200  0.93412500  1
  C  C121  1  0.98795000  0.80805100  0.06416500  1
  C  C122  1  0.01690000  0.80837200  0.93412500  1
  C  C123  1  0.00125800  0.59754500  0.99832400  1
  C  C124  1  0.50125800  0.09754500  0.99832400  1
  C  C125  1  0.50191200  0.42484700  0.00009600  1
  C  C126  1  0.00191200  0.92484700  0.00009600  1
  C  C127  1  0.41457700  0.51016200  0.08198700  1
  C  C128  1  0.58730100  0.51227800  0.91703800  1
  C  C129  1  0.91457700  0.01016200  0.08198700  1
  C  C130  1  0.08730100  0.01227800  0.91703700  1
  C  C131  1  0.48853600  0.35349500  0.06423000  1
  C  C132  1  0.51617600  0.35381700  0.93468800  1
  C  C133  1  0.98853600  0.85349500  0.06423000  1
  C  C134  1  0.01617600  0.85381700  0.93468800  1
  C  C135  1  0.50000100  0.59746400  0.99889300  1
  C  C136  1  0.00000100  0.09746400  0.99889300  1
  C  C137  1  0.03621200  0.30809500  0.98378600  1
  C  C138  1  0.96310700  0.30839700  0.01477400  1
  C  C139  1  0.53621200  0.80809500  0.98378600  1
  C  C140  1  0.46310600  0.80839600  0.01477500  1
  C  C141  1  0.03666500  0.35352900  0.98250400  1
  C  C142  1  0.96305600  0.35385200  0.01558100  1
  C  C143  1  0.53666500  0.85352900  0.98250400  1
  C  C144  1  0.46305600  0.85385200  0.01558100  1
  C  C145  1  0.99996600  0.37663600  0.99892700  1
  C  C146  1  0.49996600  0.87663600  0.99892700  1
  C  C147  1  0.50240900  0.28531600  0.99901000  1
  C  C148  1  0.00240900  0.78531600  0.99900900  1
  C  C149  1  0.50227100  0.37658500  0.99963900  1
  C  C150  1  0.00227100  0.87658500  0.99963900  1
  C  C151  1  0.99955800  0.28532700  0.99942000  1
  C  C152  1  0.49955800  0.78532700  0.99942000  1
  C  C153  1  0.48531800  0.71411600  0.96231900  1
  C  C154  1  0.51353600  0.71414400  0.03691700  1
  C  C155  1  0.98531800  0.21411600  0.96231800  1
  C  C156  1  0.01353600  0.21414400  0.03691700  1
  C  C157  1  0.48601600  0.66866900  0.96126200  1
  C  C158  1  0.51308400  0.66870300  0.03766500  1
  C  C159  1  0.98601600  0.16866900  0.96126200  1
  C  C160  1  0.01308400  0.16870300  0.03766500  1
  C  C161  1  0.14125800  0.41880700  0.54133600  1
  C  C162  1  0.14716200  0.41883000  0.47288000  1
  C  C163  1  0.18391500  0.39439800  0.42693000  1
  C  C164  1  0.19790800  0.38101200  0.47015600  1
  C  C165  1  0.85390500  0.42794100  0.46202000  1
  C  C166  1  0.84883200  0.42694800  0.52976500  1
  C  C167  1  0.80957600  0.40674500  0.57804700  1
  C  C168  1  0.79339700  0.39665600  0.53675900  1
  C  C169  1  0.64125900  0.91880700  0.54133600  1
  C  C170  1  0.64716200  0.91883000  0.47288000  1
  C  C171  1  0.68391500  0.89439900  0.42693000  1
  C  C172  1  0.69790800  0.88101300  0.47015600  1
  C  C173  1  0.35390600  0.92794000  0.46201900  1
  C  C174  1  0.34883300  0.92694700  0.52976400  1
  C  C175  1  0.30957700  0.90674300  0.57804600  1
  C  C176  1  0.29339800  0.89665400  0.53675800  1
  O  O1  1  0.06673400  0.55300800  0.42910100  1
  O  O2  1  0.93562900  0.55615000  0.57014800  1
  O  O3  1  0.56673400  0.05300800  0.42910100  1
  O  O4  1  0.43562900  0.05615000  0.57014800  1
  O  O5  1  0.06607500  0.47697400  0.42532500  1
  O  O6  1  0.93516500  0.48005800  0.56902800  1
  O  O7  1  0.56607500  0.97697400  0.42532500  1
  O  O8  1  0.43516500  0.98005700  0.56902800  1
  O  O9  1  0.00507500  0.55543100  0.58593000  1
  O  O10  1  0.99553500  0.55385800  0.41282700  1
  O  O11  1  0.50507500  0.05543100  0.58593000  1
  O  O12  1  0.49553500  0.05385800  0.41282700  1
  O  O13  1  0.00723100  0.47933800  0.58281000  1
  O  O14  1  0.99574000  0.47770100  0.41197600  1
  O  O15  1  0.50723100  0.97933800  0.58281100  1
  O  O16  1  0.49574100  0.97770100  0.41197600  1
  O  O17  1  0.96238700  0.44579200  0.03306600  1
  O  O18  1  0.03837900  0.44524600  0.96414800  1
  O  O19  1  0.46238700  0.94579200  0.03306600  1
  O  O20  1  0.53837900  0.94524600  0.96414800  1
  O  O21  1  0.96873500  0.51244100  0.93496500  1
  O  O22  1  0.03271800  0.51141300  0.06205500  1
  O  O23  1  0.46873500  0.01244100  0.93496500  1
  O  O24  1  0.53271800  0.01141300  0.06205500  1
  O  O25  1  0.04453600  0.51156900  0.86837200  1
  O  O26  1  0.95696000  0.51204300  0.12861300  1
  O  O27  1  0.54453600  0.01156900  0.86837200  1
  O  O28  1  0.45696000  0.01204300  0.12861300  1
  O  O29  1  0.96309400  0.57723100  0.03321800  1
  O  O30  1  0.03913100  0.57667900  0.96353800  1
  O  O31  1  0.46309400  0.07723100  0.03321800  1
  O  O32  1  0.53913100  0.07667800  0.96353800  1
  O  O33  1  0.50192100  0.44539900  0.05303000  1
  O  O34  1  0.50146000  0.44549800  0.94764000  1
  O  O35  1  0.00192100  0.94539900  0.05303000  1
  O  O36  1  0.00146000  0.94549800  0.94764000  1
  O  O37  1  0.43517900  0.51004800  0.11482400  1
  O  O38  1  0.56668400  0.51341900  0.88425000  1
  O  O39  1  0.93517900  0.01004800  0.11482400  1
  O  O40  1  0.06668400  0.01341900  0.88425000  1
  O  O41  1  0.43523600  0.51074800  0.00893600  1
  O  O42  1  0.56665200  0.51047700  0.99003400  1
  O  O43  1  0.93523600  0.01074900  0.00893600  1
  O  O44  1  0.06665200  0.01047700  0.99003400  1
  O  O45  1  0.50156400  0.57682100  0.05023400  1
  O  O46  1  0.49881900  0.57689500  0.94713600  1
  O  O47  1  0.00156400  0.07682100  0.05023400  1
  O  O48  1  0.99881900  0.07689500  0.94713600  1
  O  O49  1  0.17209200  0.39569900  0.53988700  1
  O  O50  1  0.82021700  0.40941200  0.46604300  1
  O  O51  1  0.67209200  0.89570000  0.53988700  1
  O  O52  1  0.32021700  0.90941000  0.46604200  1
