# generated using pymatgen
data_FeH12C25N4O9
_symmetry_space_group_name_H-M   'P 1'
_cell_length_a   9.40541900
_cell_length_b   17.12127700
_cell_length_c   19.15164700
_cell_angle_alpha   103.68890600
_cell_angle_beta   85.59461600
_cell_angle_gamma   76.82412300
_symmetry_Int_Tables_number   1
_chemical_formula_structural   FeH12C25N4O9
_chemical_formula_sum   'Fe2 H24 C50 N8 O18'
_cell_volume   2889.55675385
_cell_formula_units_Z   2
loop_
 _symmetry_equiv_pos_site_id
 _symmetry_equiv_pos_as_xyz
  1  'x, y, z'
loop_
 _atom_site_type_symbol
 _atom_site_label
 _atom_site_symmetry_multiplicity
 _atom_site_fract_x
 _atom_site_fract_y
 _atom_site_fract_z
 _atom_site_occupancy
  Fe  Fe1  1  0.46643500  0.00564200  0.37262900  1
  Fe  Fe2  1  0.46266000  0.01466200  0.63374000  1
  H  H1  1  0.91953000  0.01559300  0.65993800  1
  H  H2  1  0.17769100  0.01138500  0.83319100  1
  H  H3  1  0.72894600  0.99747500  0.86133500  1
  H  H4  1  0.20336800  0.01657200  0.14483600  1
  H  H5  1  0.01110500  0.99720500  0.34545900  1
  H  H6  1  0.75412400  0.00346600  0.17191800  1
  H  H7  1  0.15680200  0.29044300  0.44428400  1
  H  H8  1  0.76566400  0.56849100  0.35137500  1
  H  H9  1  0.62469000  0.68585100  0.31535600  1
  H  H10  1  0.77715000  0.72834500  0.55791500  1
  H  H11  1  0.87403000  0.46292700  0.67598500  1
  H  H12  1  0.77990600  0.59647100  0.76723400  1
  H  H13  1  0.94420100  0.79901800  0.89845000  1
  H  H14  1  0.07789000  0.76398300  0.81781200  1
  H  H15  1  0.09721600  0.71047700  0.88967500  1
  H  H16  1  0.22150500  0.62223400  0.77363900  1
  H  H17  1  0.31190400  0.49057200  0.68329700  1
  H  H18  1  0.03916000  0.36086100  0.76348900  1
  H  H19  1  0.09486500  0.38307500  0.88839700  1
  H  H20  1  0.47892400  0.37781600  0.00917600  1
  H  H21  1  0.54131900  0.41043600  0.93203900  1
  H  H22  1  0.55971600  0.30050700  0.92555900  1
  H  H23  1  0.55409100  0.33027600  0.80903700  1
  H  H24  1  0.49656400  0.30957000  0.68605000  1
  C  C1  1  0.06314300  0.01300800  0.74121200  1
  C  C2  1  0.07455900  0.01001900  0.81232500  1
  C  C3  1  0.95393200  0.00552900  0.85643700  1
  C  C4  1  0.82380200  0.00183200  0.82837100  1
  C  C5  1  0.81156600  0.00670400  0.75834300  1
  C  C6  1  0.93012700  0.01331300  0.71522000  1
  C  C7  1  0.97133500  0.00863700  0.07275100  1
  C  C8  1  0.96143800  0.00566300  0.93280300  1
  C  C9  1  0.10839000  0.01184900  0.17747600  1
  C  C10  1  0.12005200  0.00652200  0.24747200  1
  C  C11  1  0.00114000  0.99953300  0.29013200  1
  C  C12  1  0.86807000  0.00067700  0.26386900  1
  C  C13  1  0.85726500  0.00432600  0.19291100  1
  C  C14  1  0.97849400  0.00851500  0.14908300  1
  C  C15  1  0.74009100  0.99907500  0.31217400  1
  C  C16  1  0.55115400  0.84637700  0.38800500  1
  C  C17  1  0.25643500  0.01192500  0.27766400  1
  C  C18  1  0.30058100  0.15258600  0.46737700  1
  C  C19  1  0.25622100  0.23330600  0.52139400  1
  C  C20  1  0.17682900  0.29999900  0.50011300  1
  C  C21  1  0.12496700  0.37762100  0.54827700  1
  C  C22  1  0.15482400  0.38829500  0.61952300  1
  C  C23  1  0.23241100  0.32140400  0.64166600  1
  C  C24  1  0.27979900  0.24261700  0.59357500  1
  C  C25  1  0.87790300  0.57122200  0.47796400  1
  C  C26  1  0.04035300  0.44651700  0.52227900  1
  C  C27  1  0.73593500  0.62903900  0.38970600  1
  C  C28  1  0.65506400  0.69612100  0.36943400  1
  C  C29  1  0.61726600  0.77518600  0.41642200  1
  C  C30  1  0.65771200  0.78505900  0.48590300  1
  C  C31  1  0.74424500  0.71847000  0.50435100  1
  C  C32  1  0.78448300  0.64040900  0.45663800  1
  C  C33  1  0.67401400  0.00315500  0.72885000  1
  C  C34  1  0.61879100  0.86484000  0.54058500  1
  C  C35  1  0.19010400  0.01513500  0.69249800  1
  C  C36  1  0.33707800  0.16957000  0.62155700  1
  C  C37  1  0.09897500  0.46825300  0.67391000  1
  C  C38  1  0.94977600  0.49830500  0.69756400  1
  C  C39  1  0.89697900  0.57331400  0.74890900  1
  C  C40  1  0.99226600  0.61909100  0.77717300  1
  C  C41  1  0.01832600  0.74340400  0.85953100  1
  C  C42  1  0.14242900  0.58877800  0.75332100  1
  C  C43  1  0.19493300  0.51363300  0.70194500  1
  C  C44  1  0.26420000  0.33552700  0.71677000  1
  C  C45  1  0.15191100  0.35555000  0.77375700  1
  C  C46  1  0.18338300  0.36740000  0.84403200  1
  C  C47  1  0.32692400  0.35896800  0.85824900  1
  C  C48  1  0.48978500  0.36456400  0.94918500  1
  C  C49  1  0.43994000  0.33794900  0.80084800  1
  C  C50  1  0.40808700  0.32600700  0.73054700  1
  N  N1  1  0.84228100  0.00232100  0.97459000  1
  N  N2  1  0.84709600  0.00364400  0.04364200  1
  N  N3  1  0.09054500  0.01198200  0.03097600  1
  N  N4  1  0.08572100  0.01066800  0.96190300  1
  N  N5  1  0.03433700  0.52596200  0.55555100  1
  N  N6  1  0.95353800  0.58741800  0.53408500  1
  N  N7  1  0.88785300  0.49180100  0.44264400  1
  N  N8  1  0.96802500  0.43022300  0.46461300  1
  O  O1  1  0.60766700  0.01035700  0.29256800  1
  O  O2  1  0.54341100  0.83417200  0.31827900  1
  O  O3  1  0.75687700  0.98885600  0.37709100  1
  O  O4  1  0.51546400  0.92287100  0.42950700  1
  O  O5  1  0.29319700  0.97498100  0.32879900  1
  O  O6  1  0.33616500  0.05821500  0.25707700  1
  O  O7  1  0.44051000  0.11798000  0.44131500  1
  O  O8  1  0.19895200  0.11623500  0.44317000  1
  O  O9  1  0.64041200  0.03938900  0.67698700  1
  O  O10  1  0.58961300  0.96010000  0.75113700  1
  O  O11  1  0.47974100  0.90435700  0.56345900  1
  O  O12  1  0.72356900  0.89452100  0.56964700  1
  O  O13  1  0.29537300  0.17117900  0.68895400  1
  O  O14  1  0.32025400  0.01112600  0.71393600  1
  O  O15  1  0.41968500  0.09981400  0.57882800  1
  O  O16  1  0.17440800  0.01992000  0.62601800  1
  O  O17  1  0.93538100  0.69224500  0.82736300  1
  O  O18  1  0.35228100  0.37125400  0.92800400  1
