# generated using pymatgen
data_Zn3H22C38(IO6)2
_symmetry_space_group_name_H-M   'P 1'
_cell_length_a   21.85980100
_cell_length_b   21.83130400
_cell_length_c   22.18724800
_cell_angle_alpha   119.45694400
_cell_angle_beta   119.50289400
_cell_angle_gamma   90.01201600
_symmetry_Int_Tables_number   1
_chemical_formula_structural   Zn3H22C38(IO6)2
_chemical_formula_sum   'Zn6 H44 C76 I4 O24'
_cell_volume   7602.54918061
_cell_formula_units_Z   2
loop_
 _symmetry_equiv_pos_site_id
 _symmetry_equiv_pos_as_xyz
  1  'x, y, z'
loop_
 _atom_site_type_symbol
 _atom_site_label
 _atom_site_symmetry_multiplicity
 _atom_site_fract_x
 _atom_site_fract_y
 _atom_site_fract_z
 _atom_site_occupancy
  Zn  Zn1  1  0.42837200  0.99904300  0.49508600  1
  Zn  Zn2  1  0.57162700  0.00095700  0.50491300  1
  Zn  Zn3  1  0.00286900  0.57157000  0.50460800  1
  Zn  Zn4  1  0.99713100  0.42843000  0.49539200  1
  Zn  Zn5  1  0.54151100  0.53932000  0.59388700  1
  Zn  Zn6  1  0.45848900  0.46068000  0.40611300  1
  H  H1  1  0.81587100  0.75512400  0.73870000  1
  H  H2  1  0.18412900  0.24487500  0.26130000  1
  H  H3  1  0.70585000  0.64873400  0.63062500  1
  H  H4  1  0.29415000  0.35126600  0.36937500  1
  H  H5  1  0.67874300  0.31758300  0.07537100  1
  H  H6  1  0.32125700  0.68241600  0.92462900  1
  H  H7  1  0.61484000  0.26633700  0.93567400  1
  H  H8  1  0.38516000  0.73366300  0.06432600  1
  H  H9  1  0.78958100  0.29354800  0.94277900  1
  H  H10  1  0.21041900  0.70645200  0.05722100  1
  H  H11  1  0.75397200  0.39041600  0.06372100  1
  H  H12  1  0.24602800  0.60958400  0.93627800  1
  H  H13  1  0.84159400  0.37834000  0.08066400  1
  H  H14  1  0.15840600  0.62166000  0.91933500  1
  H  H15  1  0.71757700  0.13538000  0.93891700  1
  H  H16  1  0.28242300  0.86462000  0.06108300  1
  H  H17  1  0.81140700  0.20740800  0.07679300  1
  H  H18  1  0.18859300  0.79259200  0.92320700  1
  H  H19  1  0.61298600  0.17797200  0.92169200  1
  H  H20  1  0.38701400  0.82202800  0.07830800  1
  H  H21  1  0.69254800  0.23112200  0.06129300  1
  H  H22  1  0.30745200  0.76887800  0.93870700  1
  H  H23  1  0.86085300  0.25860500  0.06150900  1
  H  H24  1  0.13914700  0.74139400  0.93849100  1
  H  H25  1  0.60024200  0.24187300  0.59153200  1
  H  H26  1  0.39975800  0.75812700  0.40846800  1
  H  H27  1  0.37885300  0.05217300  0.33774700  1
  H  H28  1  0.62114700  0.94782700  0.66225300  1
  H  H29  1  0.27185300  0.04697600  0.22362200  1
  H  H30  1  0.72814600  0.95302400  0.77637800  1
  H  H31  1  0.26219900  0.15884500  0.22383000  1
  H  H32  1  0.73780100  0.84115500  0.77617000  1
  H  H33  1  0.35912700  0.27447900  0.33604200  1
  H  H34  1  0.64087300  0.72552100  0.66395800  1
  H  H35  1  0.59684300  0.35144200  0.58879700  1
  H  H36  1  0.40315700  0.64855700  0.41120200  1
  H  H37  1  0.65098100  0.39953900  0.41250000  1
  H  H38  1  0.34901900  0.60046000  0.58750000  1
  H  H39  1  0.76282600  0.39843600  0.41395900  1
  H  H40  1  0.23717400  0.60156400  0.58604100  1
  H  H41  1  0.93901300  0.63601600  0.65321800  1
  H  H42  1  0.06098600  0.36398400  0.34678200  1
  H  H43  1  0.93308200  0.74841000  0.75100300  1
  H  H44  1  0.06691800  0.25158900  0.24899700  1
  C  C1  1  0.49745300  0.11163700  0.48483200  1
  C  C2  1  0.50254700  0.88836300  0.51516800  1
  C  C3  1  0.57724200  0.09181300  0.66339500  1
  C  C4  1  0.42275700  0.90818700  0.33660500  1
  C  C5  1  0.75581900  0.64257500  0.63379400  1
  C  C6  1  0.24418100  0.35742400  0.36620600  1
  C  C7  1  0.69868900  0.44925100  0.45951300  1
  C  C8  1  0.30131100  0.55074900  0.54048600  1
  C  C9  1  0.69554800  0.51248500  0.51732200  1
  C  C10  1  0.30445200  0.48751400  0.48267800  1
  C  C11  1  0.82269400  0.57450800  0.58035800  1
  C  C12  1  0.17730600  0.42549200  0.41964100  1
  C  C13  1  0.64997300  0.23315600  0.95165300  1
  C  C14  1  0.35002700  0.76684400  0.04834700  1
  C  C15  1  0.74595900  0.29941200  0.95516100  1
  C  C16  1  0.25404100  0.70058800  0.04483800  1
  C  C17  1  0.78267900  0.34897300  0.04907800  1
  C  C18  1  0.21732100  0.65102600  0.95092200  1
  C  C19  1  0.86227800  0.38134300  0.24657700  1
  C  C20  1  0.13772200  0.61865700  0.75342200  1
  C  C21  1  0.70003000  0.22365100  0.92069700  1
  C  C22  1  0.29997000  0.77634900  0.07930300  1
  C  C23  1  0.69764600  0.27141900  0.04606300  1
  C  C24  1  0.30235400  0.72858100  0.95393700  1
  C  C25  1  0.77787600  0.30135300  0.07927600  1
  C  C26  1  0.22212400  0.69864700  0.92072400  1
  C  C27  1  0.80589800  0.23717000  0.04671000  1
  C  C28  1  0.19410200  0.76283000  0.95328900  1
  C  C29  1  0.75116700  0.18427200  0.95268300  1
  C  C30  1  0.24883300  0.81572800  0.04731700  1
  C  C31  1  0.82355400  0.34566400  0.17102800  1
  C  C32  1  0.17644600  0.65433500  0.82897200  1
  C  C33  1  0.65518700  0.17817500  0.82885100  1
  C  C34  1  0.34481300  0.82182500  0.17114900  1
  C  C35  1  0.61895100  0.13942200  0.75323400  1
  C  C36  1  0.38104900  0.86057800  0.24676600  1
  C  C37  1  0.37694300  0.10313000  0.34127400  1
  C  C38  1  0.62305700  0.89687000  0.65872600  1
  C  C39  1  0.31589700  0.09919500  0.27525900  1
  C  C40  1  0.68410300  0.90080500  0.72474100  1
  C  C41  1  0.31068000  0.16170500  0.27526500  1
  C  C42  1  0.68932000  0.83829500  0.72473500  1
  C  C43  1  0.36727300  0.22792100  0.34005500  1
  C  C44  1  0.63272700  0.77207900  0.65994500  1
  C  C45  1  0.43070200  0.23296900  0.40658100  1
  C  C46  1  0.56929800  0.76703100  0.59341900  1
  C  C47  1  0.43391100  0.17000800  0.40827400  1
  C  C48  1  0.56608900  0.82999200  0.59172500  1
  C  C49  1  0.49452500  0.17395900  0.47605200  1
  C  C50  1  0.50547500  0.82604100  0.52394800  1
  C  C51  1  0.55295000  0.23884000  0.53901600  1
  C  C52  1  0.44705000  0.76116000  0.46098400  1
  C  C53  1  0.55034800  0.30100000  0.53770600  1
  C  C54  1  0.44965200  0.69900000  0.46229300  1
  C  C55  1  0.48988100  0.29956200  0.47265400  1
  C  C56  1  0.51011900  0.70043800  0.52734600  1
  C  C57  1  0.76223800  0.44819600  0.46102600  1
  C  C58  1  0.23776200  0.55180300  0.53897400  1
  C  C59  1  0.82387200  0.51060900  0.51988700  1
  C  C60  1  0.17612800  0.48939100  0.48011300  1
  C  C61  1  0.88759500  0.50776300  0.51353700  1
  C  C62  1  0.11240500  0.49223600  0.48646300  1
  C  C63  1  0.90968000  0.42293000  0.33643700  1
  C  C64  1  0.09032000  0.57707000  0.66356300  1
  C  C65  1  0.62521100  0.50865000  0.51098700  1
  C  C66  1  0.37478900  0.49135000  0.48901300  1
  C  C67  1  0.49179000  0.37056400  0.47985900  1
  C  C68  1  0.50821000  0.62943600  0.52014100  1
  C  C69  1  0.75781500  0.57623600  0.57772700  1
  C  C70  1  0.24218500  0.42376400  0.42227200  1
  C  C71  1  0.88602200  0.63633800  0.64463300  1
  C  C72  1  0.11397800  0.36366200  0.35536700  1
  C  C73  1  0.88362500  0.70052800  0.70164300  1
  C  C74  1  0.11637500  0.29947200  0.29835700  1
  C  C75  1  0.81821100  0.70411800  0.69509700  1
  C  C76  1  0.18178900  0.29588200  0.30490200  1
  I  I1  1  0.80895100  0.14470200  0.89362500  1
  I  I2  1  0.19104900  0.85529700  0.10637500  1
  I  I3  1  0.68031900  0.35068800  0.89705800  1
  I  I4  1  0.31968100  0.64931200  0.10294200  1
  O  O1  1  0.44333900  0.08316200  0.48328500  1
  O  O2  1  0.55666100  0.91683800  0.51671500  1
  O  O3  1  0.55472700  0.08794600  0.49543700  1
  O  O4  1  0.44527300  0.91205400  0.50456200  1
  O  O5  1  0.50462200  0.06764400  0.62070400  1
  O  O6  1  0.49537800  0.93235600  0.37929500  1
  O  O7  1  0.61407400  0.07260000  0.62850300  1
  O  O8  1  0.38592600  0.92740000  0.37149700  1
  O  O9  1  0.91698000  0.56128700  0.51493800  1
  O  O10  1  0.08302000  0.43871300  0.48506200  1
  O  O11  1  0.91090800  0.45030500  0.50378500  1
  O  O12  1  0.08909200  0.54969400  0.49621500  1
  O  O13  1  0.93172800  0.49568800  0.37923400  1
  O  O14  1  0.06827200  0.50431100  0.62076500  1
  O  O15  1  0.93045400  0.38604600  0.37129500  1
  O  O16  1  0.06954600  0.61395400  0.62870400  1
  O  O17  1  0.62619500  0.53700400  0.57929600  1
  O  O18  1  0.37380400  0.46299500  0.42070400  1
  O  O19  1  0.56345400  0.47387100  0.43579300  1
  O  O20  1  0.43654600  0.52612800  0.56420700  1
  O  O21  1  0.52404300  0.43165700  0.55550000  1
  O  O22  1  0.47595700  0.56834200  0.44450000  1
  O  O23  1  0.46471000  0.37139300  0.41281300  1
  O  O24  1  0.53529000  0.62860600  0.58718700  1
