# generated using pymatgen
data_Zn2H30C53(N2O3)3
_symmetry_space_group_name_H-M   'P 1'
_cell_length_a   9.26978800
_cell_length_b   13.41336700
_cell_length_c   16.23700300
_cell_angle_alpha   90.04675000
_cell_angle_beta   94.77893000
_cell_angle_gamma   90.60063800
_symmetry_Int_Tables_number   1
_chemical_formula_structural   Zn2H30C53(N2O3)3
_chemical_formula_sum   'Zn2 H30 C53 N6 O9'
_cell_volume   2011.76183364
_cell_formula_units_Z   1
loop_
 _symmetry_equiv_pos_site_id
 _symmetry_equiv_pos_as_xyz
  1  'x, y, z'
loop_
 _atom_site_type_symbol
 _atom_site_label
 _atom_site_symmetry_multiplicity
 _atom_site_fract_x
 _atom_site_fract_y
 _atom_site_fract_z
 _atom_site_occupancy
  Zn  Zn1  1  0.16070000  0.49423900  0.50080000  1
  Zn  Zn2  1  0.83890300  0.50569300  0.49165500  1
  H  H1  1  0.84987700  0.31350900  0.97946900  1
  H  H2  1  0.94858600  0.99032600  0.27282400  1
  H  H3  1  0.15285300  0.68711200  0.01334000  1
  H  H4  1  0.04866700  0.00881100  0.71945500  1
  H  H5  1  0.89853600  0.03727400  0.03864800  1
  H  H6  1  0.10096500  0.96281300  0.95374500  1
  H  H7  1  0.12887600  0.60285300  0.89342500  1
  H  H8  1  0.99058700  0.83370200  0.66211700  1
  H  H9  1  0.06053600  0.16886700  0.66275500  1
  H  H10  1  0.89000900  0.45149200  0.72585700  1
  H  H11  1  0.84590900  0.39306600  0.86237100  1
  H  H12  1  0.87375200  0.39731000  0.09963100  1
  H  H13  1  0.00594200  0.16506800  0.33099900  1
  H  H14  1  0.93716500  0.83011300  0.32916100  1
  H  H15  1  0.11161600  0.54854200  0.26648700  1
  H  H16  1  0.15660500  0.60744700  0.13028800  1
  H  H17  1  0.09981300  0.54146800  0.75184100  1
  H  H18  1  0.90212100  0.45818900  0.24138000  1
  H  H19  1  0.63559200  0.65792400  0.50190500  1
  H  H20  1  0.39114500  0.27309800  0.54855700  1
  H  H21  1  0.35830300  0.27927300  0.43222700  1
  H  H22  1  0.65113300  0.27917100  0.53700200  1
  H  H23  1  0.61889300  0.28548600  0.42079100  1
  H  H24  1  0.47224400  0.77262900  0.45004800  1
  H  H25  1  0.49339500  0.77306400  0.56236600  1
  H  H26  1  0.11601500  0.76031700  0.50539500  1
  H  H27  1  0.95473600  0.90199700  0.50325700  1
  H  H28  1  0.05344000  0.07281600  0.50433300  1
  H  H29  1  0.31646900  0.10019900  0.50730500  1
  H  H30  1  0.48013800  0.95778200  0.50906400  1
  C  C1  1  0.98035300  0.18398900  0.78330500  1
  C  C2  1  0.92638900  0.24646500  0.83880000  1
  C  C3  1  0.91619400  0.19441200  0.91080300  1
  C  C4  1  0.99504400  0.09233900  0.82142100  1
  C  C5  1  0.88004500  0.23616700  0.98108600  1
  C  C6  1  0.90371000  0.19214300  0.06382700  1
  C  C7  1  0.92037000  0.24637700  0.13622500  1
  C  C8  1  0.95192800  0.18163400  0.19954800  1
  C  C9  1  0.95018800  0.08698100  0.16381200  1
  C  C10  1  0.96534300  0.99133200  0.20764100  1
  C  C11  1  0.00364700  0.90727900  0.17090900  1
  C  C12  1  0.01887300  0.81564100  0.20896400  1
  C  C13  1  0.07418800  0.75356800  0.15366900  1
  C  C14  1  0.08449500  0.80577200  0.08177800  1
  C  C15  1  0.12163100  0.76424500  0.01163900  1
  C  C16  1  0.09690200  0.80792500  0.92887600  1
  C  C17  1  0.07996400  0.75340600  0.85665500  1
  C  C18  1  0.04690300  0.81780200  0.79330000  1
  C  C19  1  0.04819400  0.91257700  0.82879500  1
  C  C20  1  0.03245800  0.00804400  0.78471100  1
  C  C21  1  0.09679300  0.65343600  0.84374100  1
  C  C22  1  0.07803500  0.61870700  0.76371300  1
  C  C23  1  0.03287600  0.68063800  0.69828200  1
  C  C24  1  0.01932300  0.78315200  0.71243500  1
  C  C25  1  0.01547300  0.21735200  0.70693300  1
  C  C26  1  0.98836700  0.31668400  0.68869300  1
  C  C27  1  0.92124300  0.37665500  0.74341800  1
  C  C28  1  0.89400700  0.34347500  0.82030700  1
  C  C29  1  0.90459900  0.34640800  0.14929300  1
  C  C30  1  0.92299200  0.38084400  0.22941500  1
  C  C31  1  0.96652800  0.31850800  0.29486800  1
  C  C32  1  0.97878700  0.21590900  0.28060300  1
  C  C33  1  0.98324100  0.78195800  0.28511700  1
  C  C34  1  0.01124100  0.68275700  0.30334200  1
  C  C35  1  0.07972000  0.62323900  0.24888500  1
  C  C36  1  0.10745600  0.65670400  0.17217700  1
  C  C37  1  0.01627200  0.63249500  0.61606400  1
  C  C38  1  0.00287800  0.36098300  0.60843600  1
  C  C39  1  0.98307300  0.36657400  0.37712100  1
  C  C40  1  0.99647400  0.63838600  0.38349400  1
  C  C41  1  0.57146600  0.41989400  0.48695600  1
  C  C42  1  0.57448300  0.58901900  0.49860700  1
  C  C43  1  0.42312900  0.58608200  0.50385800  1
  C  C44  1  0.43132400  0.41603500  0.49373400  1
  C  C45  1  0.42032200  0.30599000  0.48948300  1
  C  C46  1  0.58828300  0.31030700  0.48206200  1
  C  C47  1  0.41516000  0.76497800  0.50715600  1
  C  C48  1  0.31018900  0.84888800  0.50773500  1
  C  C49  1  0.16223500  0.83388400  0.50614300  1
  C  C50  1  0.07038700  0.91421500  0.50483200  1
  C  C51  1  0.12555400  0.00993300  0.50540000  1
  C  C52  1  0.27283100  0.02527700  0.50711400  1
  C  C53  1  0.36465800  0.94508100  0.50818100  1
  N  N1  1  0.95798600  0.09926700  0.90040700  1
  N  N2  1  0.91939600  0.09474100  0.08105800  1
  N  N3  1  0.04153100  0.90067800  0.09206700  1
  N  N4  1  0.08003500  0.90519100  0.91149100  1
  N  N5  1  0.64897700  0.50476900  0.48915700  1
  N  N6  1  0.35073300  0.49653100  0.50320400  1
  O  O1  1  0.88672400  0.60454400  0.58411300  1
  O  O2  1  0.13428000  0.59616300  0.58936300  1
  O  O3  1  0.13151600  0.38988800  0.58753400  1
  O  O4  1  0.88189000  0.39761900  0.57542800  1
  O  O5  1  0.11323000  0.39480600  0.40872200  1
  O  O6  1  0.86447900  0.40291900  0.40362500  1
  O  O7  1  0.86854200  0.60964500  0.40469000  1
  O  O8  1  0.11673000  0.60185500  0.41678100  1
  O  O9  1  0.34897900  0.67245200  0.50826900  1
