# generated using pymatgen
data_V4H26C47(NO5)4
_symmetry_space_group_name_H-M   'P 1'
_cell_length_a   6.70784700
_cell_length_b   19.79570200
_cell_length_c   23.11504600
_cell_angle_alpha   100.98039400
_cell_angle_beta   90.59514500
_cell_angle_gamma   90.68312500
_symmetry_Int_Tables_number   1
_chemical_formula_structural   V4H26C47(NO5)4
_chemical_formula_sum   'V4 H26 C47 N4 O20'
_cell_volume   3012.70963102
_cell_formula_units_Z   1
loop_
 _symmetry_equiv_pos_site_id
 _symmetry_equiv_pos_as_xyz
  1  'x, y, z'
loop_
 _atom_site_type_symbol
 _atom_site_label
 _atom_site_symmetry_multiplicity
 _atom_site_fract_x
 _atom_site_fract_y
 _atom_site_fract_z
 _atom_site_occupancy
  V  V1  1  0.08835000  0.48962000  0.49731800  1
  V  V2  1  0.58902800  0.50712100  0.49908200  1
  V  V3  1  0.53469400  0.00453200  0.99820300  1
  V  V4  1  0.03405900  0.98905900  0.99685800  1
  H  H1  1  0.04379900  0.85285500  0.10022200  1
  H  H2  1  0.04228700  0.78201300  0.17700300  1
  H  H3  1  0.20796700  0.67387200  0.28903100  1
  H  H4  1  0.19192100  0.60034800  0.36360100  1
  H  H5  1  0.46142000  0.92299700  0.15063200  1
  H  H6  1  0.59051400  0.71754000  0.31275400  1
  H  H7  1  0.45865000  0.85147800  0.22662300  1
  H  H8  1  0.57371200  0.64316500  0.38653900  1
  H  H9  1  0.59430700  0.73571400  0.74761900  1
  H  H10  1  0.54605900  0.23609800  0.24755600  1
  H  H11  1  0.09296500  0.25059100  0.24761700  1
  H  H12  1  0.56828400  0.09797000  0.85660800  1
  H  H13  1  0.55218200  0.17593200  0.78572700  1
  H  H14  1  0.71402100  0.30111700  0.69071100  1
  H  H15  1  0.69878500  0.37606600  0.61725300  1
  H  H16  1  0.96533500  0.14303600  0.90388100  1
  H  H17  1  0.07998300  0.30086300  0.70011000  1
  H  H18  1  0.94768000  0.21982500  0.83184800  1
  H  H19  1  0.06453300  0.37431900  0.62556600  1
  H  H20  1  0.44470300  0.75595800  0.82552600  1
  H  H21  1  0.32352500  0.83674800  0.85322100  1
  H  H22  1  0.33676600  0.77137200  0.89824200  1
  H  H23  1  0.99972200  0.77436500  0.85386200  1
  H  H24  1  0.12123400  0.69387000  0.82541900  1
  H  H25  1  0.22263200  0.73842000  0.73669100  1
  H  H26  1  0.10495000  0.81959600  0.76540100  1
  C  C1  1  0.36474300  0.40858000  0.40724900  1
  C  C2  1  0.37032600  0.42382300  0.57319200  1
  C  C3  1  0.87662900  0.58801100  0.58925200  1
  C  C4  1  0.87074400  0.57287500  0.42318100  1
  C  C5  1  0.88179200  0.61729900  0.37963800  1
  C  C6  1  0.71326300  0.65008600  0.36528300  1
  C  C7  1  0.72272600  0.69182400  0.32393400  1
  C  C8  1  0.90019200  0.70024400  0.29638900  1
  C  C9  1  0.06876900  0.66731400  0.31059500  1
  C  C10  1  0.05980000  0.62613700  0.35245700  1
  C  C11  1  0.91482400  0.81310000  0.17126900  1
  C  C12  1  0.91563200  0.85279600  0.12818000  1
  C  C13  1  0.75024700  0.81246600  0.20651800  1
  C  C14  1  0.75266000  0.89234800  0.12082100  1
  C  C15  1  0.58927800  0.89213500  0.15647600  1
  C  C16  1  0.58764100  0.85199100  0.19905300  1
  C  C17  1  0.89033300  0.63978200  0.64183100  1
  C  C18  1  0.90493300  0.73448000  0.73925900  1
  C  C19  1  0.73663800  0.75653300  0.76585000  1
  C  C20  1  0.74425900  0.80913400  0.81813500  1
  C  C21  1  0.89825100  0.68298700  0.68622700  1
  C  C22  1  0.75452000  0.85387100  0.86145000  1
  C  C23  1  0.25616800  0.13145600  0.13882400  1
  C  C24  1  0.23730900  0.23057700  0.23287700  1
  C  C25  1  0.40139100  0.25596200  0.26211900  1
  C  C26  1  0.38644300  0.30982300  0.31319400  1
  C  C27  1  0.25011900  0.17664400  0.18178200  1
  C  C28  1  0.37484900  0.35493200  0.35605400  1
  C  C29  1  0.38067500  0.37963600  0.61687900  1
  C  C30  1  0.20728900  0.35833600  0.63996600  1
  C  C31  1  0.21592700  0.31726800  0.68183900  1
  C  C32  1  0.39791300  0.29654000  0.69993600  1
  C  C33  1  0.57132400  0.31736000  0.67650000  1
  C  C34  1  0.56282700  0.35940600  0.63533900  1
  C  C35  1  0.42321000  0.16871700  0.81165900  1
  C  C36  1  0.43212800  0.12496300  0.85134700  1
  C  C37  1  0.24905400  0.20258200  0.80446200  1
  C  C38  1  0.26801500  0.11583800  0.88459600  1
  C  C39  1  0.09422100  0.15026300  0.87791900  1
  C  C40  1  0.08428700  0.19324500  0.83747700  1
  C  C41  1  0.27995200  0.06923300  0.92630500  1
  C  C42  1  0.25523200  0.07776900  0.08748100  1
  C  C43  1  0.74984100  0.93396500  0.07507500  1
  C  C44  1  0.77280800  0.90812400  0.91215800  1
  C  C45  1  0.10004600  0.76336500  0.76438000  1
  C  C46  1  0.12385900  0.75011200  0.82645500  1
  C  C47  1  0.32035700  0.78058900  0.85259900  1
  N  N1  1  0.90825900  0.74217400  0.25356800  1
  N  N2  1  0.74623800  0.77105100  0.24976900  1
  N  N3  1  0.40674800  0.25383800  0.74211800  1
  N  N4  1  0.23967500  0.24632300  0.76310900  1
  O  O1  1  0.53723500  0.44700200  0.55618000  1
  O  O2  1  0.19156000  0.42110100  0.43137400  1
  O  O3  1  0.03713800  0.54911100  0.43969700  1
  O  O4  1  0.19545600  0.43267800  0.55154000  1
  O  O5  1  0.04158600  0.56141200  0.56724400  1
  O  O6  1  0.53276600  0.43580900  0.42882000  1
  O  O7  1  0.36431900  0.54143400  0.50240300  1
  O  O8  1  0.70100400  0.57520900  0.56540600  1
  O  O9  1  0.69702600  0.56458900  0.44536300  1
  O  O10  1  0.86115900  0.45530800  0.49401900  1
  O  O11  1  0.08145500  0.04439200  0.07615000  1
  O  O12  1  0.44392000  0.03283500  0.92498400  1
  O  O13  1  0.62064400  0.91728100  0.94903700  1
  O  O14  1  0.39601100  0.08207100  0.04776000  1
  O  O15  1  0.57810300  0.96532400  0.06937600  1
  O  O16  1  0.12657600  0.06751500  0.96196200  1
  O  O17  1  0.25789200  0.95124200  0.99434500  1
  O  O18  1  0.88979700  0.92078100  0.03383400  1
  O  O19  1  0.94007700  0.94459400  0.91734000  1
  O  O20  1  0.76132000  0.04261400  0.00240400  1
