# generated using pymatgen
data_FeH10C23N2O11
_symmetry_space_group_name_H-M   'P 1'
_cell_length_a   15.74799800
_cell_length_b   9.48342700
_cell_length_c   19.89286600
_cell_angle_alpha   85.72637500
_cell_angle_beta   85.01956800
_cell_angle_gamma   104.60602700
_symmetry_Int_Tables_number   1
_chemical_formula_structural   FeH10C23N2O11
_chemical_formula_sum   'Fe2 H20 C46 N4 O22'
_cell_volume   2849.67495973
_cell_formula_units_Z   2
loop_
 _symmetry_equiv_pos_site_id
 _symmetry_equiv_pos_as_xyz
  1  'x, y, z'
loop_
 _atom_site_type_symbol
 _atom_site_label
 _atom_site_symmetry_multiplicity
 _atom_site_fract_x
 _atom_site_fract_y
 _atom_site_fract_z
 _atom_site_occupancy
  Fe  Fe1  1  0.49588200  0.01945700  0.14365100  1
  Fe  Fe2  1  0.50360700  0.03316700  0.84809000  1
  H  H1  1  0.18936200  0.06819200  0.89498400  1
  H  H2  1  0.21400000  0.97282400  0.13560800  1
  H  H3  1  0.92196900  0.00329600  0.83324700  1
  H  H4  1  0.92904400  0.00958000  0.12887300  1
  H  H5  1  0.78250400  0.03714300  0.85684600  1
  H  H6  1  0.80822600  0.00188800  0.09996900  1
  H  H7  1  0.50353400  0.57494300  0.82617300  1
  H  H8  1  0.50139900  0.31936200  0.65835700  1
  H  H9  1  0.51022600  0.77451700  0.62726900  1
  H  H10  1  0.47695800  0.27417400  0.36325400  1
  H  H11  1  0.48974800  0.73003500  0.33203000  1
  H  H12  1  0.53044200  0.46676700  0.02306400  1
  H  H13  1  0.64600300  0.47361400  0.02612300  1
  H  H14  1  0.61256400  0.64139400  0.01102000  1
  H  H15  1  0.16672700  0.89334300  0.76341000  1
  H  H16  1  0.07866600  0.84581900  0.70974100  1
  H  H17  1  0.10503200  0.70416100  0.76385900  1
  H  H18  1  0.08150300  0.99284900  0.30008900  1
  H  H19  1  0.01804800  0.80551500  0.32425200  1
  H  H20  1  0.96330200  0.95211300  0.32242300  1
  C  C1  1  0.27931400  0.00673700  0.03647600  1
  C  C2  1  0.27173100  0.02999700  0.96789900  1
  C  C3  1  0.19025600  0.03235400  0.94727600  1
  C  C4  1  0.20552800  0.98345000  0.08235500  1
  C  C5  1  0.12422400  0.98522300  0.06136500  1
  C  C6  1  0.11414100  0.00180200  0.99308700  1
  C  C7  1  0.02976100  0.99662600  0.97279900  1
  C  C8  1  0.01053800  0.97883200  0.90608600  1
  C  C9  1  0.93344700  0.00315600  0.88602200  1
  C  C10  1  0.05450200  0.97802000  0.10938600  1
  C  C11  1  0.97610800  0.99623100  0.08934200  1
  C  C12  1  0.96122200  0.00248100  0.02129800  1
  C  C13  1  0.87907100  0.01217700  0.00083200  1
  C  C14  1  0.86850200  0.02069000  0.93265500  1
  C  C15  1  0.79004800  0.03459000  0.91037600  1
  C  C16  1  0.80615900  0.01103800  0.04629000  1
  C  C17  1  0.72578300  0.01690600  0.02453200  1
  C  C18  1  0.71791800  0.02987300  0.95558300  1
  C  C19  1  0.65150800  0.00934900  0.07642600  1
  C  C20  1  0.48987500  0.74770300  0.19740900  1
  C  C21  1  0.36497700  0.02834600  0.06314000  1
  C  C22  1  0.48419800  0.22322400  0.23463000  1
  C  C23  1  0.51183300  0.82882700  0.75561500  1
  C  C24  1  0.63258900  0.01582700  0.92904400  1
  C  C25  1  0.50540800  0.30566800  0.79352800  1
  C  C26  1  0.34702200  0.04700100  0.91560400  1
  C  C27  1  0.50379800  0.43311300  0.74706600  1
  C  C28  1  0.50288300  0.42293300  0.67805900  1
  C  C29  1  0.50375100  0.54478600  0.63457500  1
  C  C30  1  0.50807100  0.67765300  0.66027600  1
  C  C31  1  0.50638400  0.68735700  0.72904100  1
  C  C32  1  0.50307500  0.56496900  0.77245400  1
  C  C33  1  0.48879600  0.51470800  0.42892200  1
  C  C34  1  0.49931700  0.53399600  0.56165700  1
  C  C35  1  0.48166600  0.37196100  0.33008100  1
  C  C36  1  0.48775400  0.36399600  0.26113500  1
  C  C37  1  0.49604400  0.48778400  0.21718100  1
  C  C38  1  0.49261500  0.61893900  0.24268000  1
  C  C39  1  0.48969000  0.62722200  0.31205900  1
  C  C40  1  0.48621800  0.50461900  0.35580100  1
  C  C41  1  0.58369300  0.54154100  0.11288900  1
  C  C42  1  0.59381100  0.53009800  0.03853100  1
  C  C43  1  0.03649400  0.83944800  0.81498500  1
  C  C44  1  0.10083600  0.81941900  0.75945500  1
  C  C45  1  0.00325800  0.89367000  0.22546300  1
  C  C46  1  0.01743100  0.91221400  0.29766400  1
  N  N1  1  0.50027200  0.65318900  0.52009000  1
  N  N2  1  0.49529500  0.64383100  0.45451800  1
  N  N3  1  0.48773400  0.39546900  0.47050400  1
  N  N4  1  0.49274000  0.40483700  0.53607600  1
  O  O1  1  0.58040400  0.04722400  0.06115800  1
  O  O2  1  0.47969500  0.73693200  0.13308100  1
  O  O3  1  0.65747700  0.96902500  0.13999600  1
  O  O4  1  0.49446300  0.87461600  0.22100400  1
  O  O5  1  0.37468400  0.94343100  0.11560000  1
  O  O6  1  0.42878400  0.14510300  0.04064700  1
  O  O7  1  0.53000300  0.21838900  0.17691100  1
  O  O8  1  0.43128600  0.10295400  0.26662600  1
  O  O9  1  0.46842800  0.83459000  0.81433400  1
  O  O10  1  0.56374400  0.94857200  0.72240500  1
  O  O11  1  0.62437100  0.10525400  0.87769100  1
  O  O12  1  0.56689700  0.90128800  0.95076400  1
  O  O13  1  0.33981400  0.08826800  0.85239200  1
  O  O14  1  0.50792300  0.17980600  0.77073000  1
  O  O15  1  0.41781200  0.00640900  0.92983100  1
  O  O16  1  0.50373000  0.31683700  0.85896100  1
  O  O17  1  0.50575800  0.47797700  0.14998500  1
  O  O18  1  0.64606500  0.60754200  0.14024100  1
  O  O19  1  0.06465600  0.93279800  0.86138300  1
  O  O20  1  0.96063100  0.76365400  0.82087200  1
  O  O21  1  0.06643100  0.96684100  0.17580800  1
  O  O22  1  0.93750200  0.80553200  0.21201600  1
