# generated using pymatgen
data_Fe2H22C49N4O23
_symmetry_space_group_name_H-M   'P 1'
_cell_length_a   14.88682400
_cell_length_b   25.68973500
_cell_length_c   11.52320600
_cell_angle_alpha   51.99406800
_cell_angle_beta   78.98487700
_cell_angle_gamma   101.08413900
_symmetry_Int_Tables_number   1
_chemical_formula_structural   Fe2H22C49N4O23
_chemical_formula_sum   'Fe2 H22 C49 N4 O23'
_cell_volume   3122.87691498
_cell_formula_units_Z   1
loop_
 _symmetry_equiv_pos_site_id
 _symmetry_equiv_pos_as_xyz
  1  'x, y, z'
loop_
 _atom_site_type_symbol
 _atom_site_label
 _atom_site_symmetry_multiplicity
 _atom_site_fract_x
 _atom_site_fract_y
 _atom_site_fract_z
 _atom_site_occupancy
  Fe  Fe1  1  0.50148800  0.99629400  0.26024600  1
  Fe  Fe2  1  0.50261300  0.00299900  0.73936400  1
  H  H1  1  0.77842700  0.97862400  0.74462600  1
  H  H2  1  0.93321500  0.97429100  0.78617800  1
  H  H3  1  0.08619100  0.04714200  0.17206900  1
  H  H4  1  0.23997400  0.04166100  0.21736000  1
  H  H5  1  0.15363100  0.98991100  0.89757200  1
  H  H6  1  0.99136800  0.66416700  0.67743600  1
  H  H7  1  0.00289700  0.33785300  0.32245600  1
  H  H8  1  0.72314700  0.22678600  0.34105100  1
  H  H9  1  0.75966300  0.25415900  0.87115900  1
  H  H10  1  0.85387900  0.35562100  0.83396800  1
  H  H11  1  0.27236700  0.77471000  0.65863000  1
  H  H12  1  0.23706400  0.74782400  0.12775500  1
  H  H13  1  0.14032900  0.64681600  0.16519200  1
  H  H14  1  0.09903700  0.45002900  0.38049900  1
  H  H15  1  0.20559800  0.46227500  0.24377500  1
  H  H16  1  0.05637900  0.34334900  0.53083600  1
  H  H17  1  0.86789200  0.93128300  0.25190200  1
  H  H18  1  0.75585500  0.94116000  0.29057300  1
  H  H19  1  0.89193300  0.07232000  0.04911800  1
  H  H20  1  0.78838800  0.53971400  0.75665200  1
  H  H21  1  0.89518000  0.55189500  0.61992900  1
  H  H22  1  0.90376100  0.65293600  0.46912600  1
  C  C1  1  0.79245700  0.98151200  0.82955800  1
  C  C2  1  0.87929800  0.97906700  0.85289100  1
  C  C3  1  0.89867000  0.98398900  0.95871400  1
  C  C4  1  0.82763200  0.98746500  0.04850100  1
  C  C5  1  0.74439800  0.99650200  0.01404100  1
  C  C6  1  0.72697300  0.99302100  0.90493100  1
  C  C7  1  0.13474800  0.03380900  0.12090000  1
  C  C8  1  0.22143700  0.03124000  0.14537300  1
  C  C9  1  0.28185100  0.01182100  0.08519300  1
  C  C10  1  0.25859400  0.99920500  0.99215400  1
  C  C11  1  0.17059100  0.00014600  0.97053100  1
  C  C12  1  0.10746300  0.01627700  0.03757300  1
  C  C13  1  0.37658100  0.89609000  0.57808800  1
  C  C14  1  0.36574400  0.99990700  0.13059000  1
  C  C15  1  0.67228300  0.00577100  0.09867700  1
  C  C16  1  0.63390100  0.12231200  0.14625200  1
  C  C17  1  0.36629300  0.87853800  0.85249000  1
  C  C18  1  0.33039000  0.99099400  0.90509500  1
  C  C19  1  0.64126000  0.00306100  0.86372100  1
  C  C20  1  0.62257000  0.10492000  0.42138600  1
  C  C21  1  0.13707000  0.57757800  0.05571700  1
  C  C22  1  0.09339400  0.65517300  0.84335100  1
  C  C23  1  0.03488300  0.59805600  0.86725700  1
  C  C24  1  0.02678800  0.52947400  0.98808700  1
  C  C25  1  0.07831400  0.51842600  0.08432900  1
  C  C26  1  0.98374000  0.60981300  0.77094800  1
  C  C27  1  0.92403200  0.55322800  0.79352000  1
  C  C28  1  0.91573000  0.48354800  0.91584800  1
  C  C29  1  0.96730600  0.47252000  0.01201700  1
  C  C30  1  0.95934400  0.40396200  0.13267800  1
  C  C31  1  0.01044900  0.39219400  0.22903500  1
  C  C32  1  0.07001100  0.44874800  0.20666100  1
  C  C33  1  0.85698900  0.42438400  0.94445400  1
  C  C34  1  0.90109500  0.34687700  0.15628500  1
  C  C35  1  0.73245800  0.23301700  0.23727400  1
  C  C36  1  0.68216000  0.17463300  0.25877200  1
  C  C37  1  0.69137900  0.18198600  0.12735100  1
  C  C38  1  0.75183700  0.24774600  0.97495200  1
  C  C39  1  0.80362100  0.30558300  0.95369500  1
  C  C40  1  0.79434700  0.29852800  0.08474200  1
  C  C41  1  0.26331900  0.76861800  0.76219800  1
  C  C42  1  0.31518200  0.82671900  0.74058900  1
  C  C43  1  0.30662800  0.81933600  0.87184200  1
  C  C44  1  0.24451300  0.75413200  0.02415800  1
  C  C45  1  0.19131400  0.69656600  0.04556200  1
  C  C46  1  0.20048600  0.70345400  0.91473800  1
  C  C47  1  0.12371500  0.43353400  0.31508000  1
  C  C48  1  0.83206500  0.96993300  0.19692700  1
  C  C49  1  0.87025500  0.56840500  0.68521300  1
  N  N1  1  0.99138500  0.98583800  0.97200100  1
  N  N2  1  0.01527800  0.01510900  0.02257200  1
  N  N3  1  0.14311000  0.64421400  0.93731400  1
  N  N4  1  0.85122500  0.35778300  0.06253300  1
  O  O1  1  0.44648100  0.90038700  0.48051000  1
  O  O2  1  0.38071600  0.94228300  0.17719300  1
  O  O3  1  0.35615700  0.95260000  0.52524500  1
  O  O4  1  0.41435100  0.03918400  0.15269000  1
  O  O5  1  0.57937300  0.98830600  0.11331200  1
  O  O6  1  0.69989600  0.03131800  0.16163000  1
  O  O7  1  0.57248400  0.05983000  0.28888900  1
  O  O8  1  0.63928900  0.13271100  0.01800900  1
  O  O9  1  0.43407200  0.93849100  0.71133100  1
  O  O10  1  0.35606700  0.87008400  0.97945800  1
  O  O11  1  0.42305100  0.00748800  0.89224700  1
  O  O12  1  0.30610100  0.97658900  0.82130800  1
  O  O13  1  0.64724800  0.05005200  0.47365200  1
  O  O14  1  0.59480000  0.96415500  0.83899500  1
  O  O15  1  0.55149900  0.09903100  0.52085600  1
  O  O16  1  0.62145000  0.05809400  0.82550400  1
  O  O17  1  0.19073900  0.56976400  0.14247300  1
  O  O18  1  0.09802200  0.72167300  0.72953200  1
  O  O19  1  0.80314900  0.43217100  0.85793200  1
  O  O20  1  0.89697300  0.28047300  0.26950100  1
  O  O21  1  0.10190900  0.36004300  0.42926500  1
  O  O22  1  0.88348600  0.03285500  0.16065300  1
  O  O23  1  0.89220200  0.64191300  0.57088900  1
