# generated using pymatgen
data_Fe2H22C53O17
_symmetry_space_group_name_H-M   'P 1'
_cell_length_a   15.47615800
_cell_length_b   14.35672400
_cell_length_c   11.63654600
_cell_angle_alpha   86.81369800
_cell_angle_beta   101.43144900
_cell_angle_gamma   106.98901500
_symmetry_Int_Tables_number   1
_chemical_formula_structural   Fe2H22C53O17
_chemical_formula_sum   'Fe2 H22 C53 O17'
_cell_volume   2423.60098336
_cell_formula_units_Z   1
loop_
 _symmetry_equiv_pos_site_id
 _symmetry_equiv_pos_as_xyz
  1  'x, y, z'
loop_
 _atom_site_type_symbol
 _atom_site_label
 _atom_site_symmetry_multiplicity
 _atom_site_fract_x
 _atom_site_fract_y
 _atom_site_fract_z
 _atom_site_occupancy
  Fe  Fe1  1  0.48284700  0.98970400  0.74431600  1
  Fe  Fe2  1  0.49527900  0.99468100  0.26124200  1
  H  H1  1  0.93523400  0.01999200  0.24299900  1
  H  H2  1  0.83043300  0.02986700  0.87852600  1
  H  H3  1  0.04225800  0.06799500  0.11193500  1
  H  H4  1  0.94659400  0.96277000  0.87962300  1
  H  H5  1  0.05578900  0.98717000  0.75092500  1
  H  H6  1  0.20737300  0.99153100  0.71930800  1
  H  H7  1  0.15446700  0.99871700  0.12018200  1
  H  H8  1  0.40438200  0.66652100  0.77032200  1
  H  H9  1  0.38045700  0.50542800  0.84799200  1
  H  H10  1  0.55773800  0.76646300  0.26261500  1
  H  H11  1  0.58911500  0.64046100  0.16665300  1
  H  H12  1  0.38689600  0.34306200  0.83941000  1
  H  H13  1  0.41432900  0.21592300  0.74125300  1
  H  H14  1  0.60385900  0.48069900  0.16380700  1
  H  H15  1  0.58513400  0.32128100  0.24507400  1
  H  H16  1  0.82769400  0.12629200  0.37387800  1
  H  H17  1  0.83470800  0.08392500  0.58212900  1
  H  H18  1  0.79179300  0.82257200  0.81004100  1
  H  H19  1  0.83051400  0.78067300  0.69182000  1
  H  H20  1  0.70998200  0.77637800  0.67852000  1
  H  H21  1  0.75471400  0.78161000  0.49058600  1
  H  H22  1  0.74716800  0.82542400  0.28596000  1
  C  C1  1  0.79194300  0.00231800  0.19519500  1
  C  C2  1  0.87838300  0.01879300  0.17154000  1
  C  C3  1  0.89223700  0.02531700  0.05857200  1
  C  C4  1  0.81846700  0.02074600  0.96721300  1
  C  C5  1  0.73009400  0.00698800  0.98858300  1
  C  C6  1  0.71663400  0.99605600  0.10504000  1
  C  C7  1  0.98614000  0.03466900  0.04170900  1
  C  C8  1  0.00290000  0.99634100  0.94945700  1
  C  C9  1  0.11092400  0.99131300  0.82557400  1
  C  C10  1  0.19637400  0.99313700  0.80796300  1
  C  C11  1  0.26866300  0.00088600  0.90116000  1
  C  C12  1  0.25411900  0.00123600  0.01566700  1
  C  C13  1  0.16727200  0.00039400  0.03221200  1
  C  C14  1  0.09620000  0.99786400  0.93704600  1
  C  C15  1  0.45979500  0.13478800  0.58949200  1
  C  C16  1  0.35791800  0.00897300  0.87190400  1
  C  C17  1  0.65523100  0.00575000  0.88599100  1
  C  C18  1  0.49268500  0.81747200  0.66008700  1
  C  C19  1  0.49156200  0.16697100  0.34947200  1
  C  C20  1  0.32617300  0.99779900  0.11976100  1
  C  C21  1  0.62628800  0.97950600  0.13751500  1
  C  C22  1  0.51660500  0.84948200  0.41779000  1
  C  C23  1  0.50473300  0.75243800  0.47122100  1
  C  C24  1  0.48485300  0.73518000  0.58342300  1
  C  C25  1  0.46276000  0.63951300  0.62506800  1
  C  C26  1  0.42512700  0.61539500  0.72544600  1
  C  C27  1  0.40866500  0.52239200  0.76892900  1
  C  C28  1  0.54570300  0.69602200  0.30364600  1
  C  C29  1  0.51683900  0.67786500  0.41029000  1
  C  C30  1  0.50430200  0.58539600  0.45813900  1
  C  C31  1  0.56424900  0.62425500  0.24811100  1
  C  C32  1  0.55205300  0.53291100  0.29620500  1
  C  C33  1  0.47496200  0.56568000  0.56352100  1
  C  C34  1  0.45875200  0.47189600  0.60808100  1
  C  C35  1  0.42720900  0.45139400  0.71195500  1
  C  C36  1  0.41208800  0.35927100  0.75817000  1
  C  C37  1  0.52018200  0.51216100  0.39979200  1
  C  C38  1  0.50486100  0.41850500  0.44489000  1
  C  C39  1  0.47380300  0.39844700  0.54917400  1
  C  C40  1  0.45943100  0.30559400  0.59590100  1
  C  C41  1  0.42853000  0.28685900  0.70132300  1
  C  C42  1  0.57433000  0.46314200  0.24183300  1
  C  C43  1  0.56046000  0.37079600  0.28702900  1
  C  C44  1  0.51986500  0.34529700  0.38502400  1
  C  C45  1  0.49748600  0.24919100  0.42607400  1
  C  C46  1  0.47294300  0.23143000  0.53588800  1
  C  C47  1  0.78226800  0.97822000  0.31636900  1
  C  C48  1  0.80903400  0.05067400  0.39991800  1
  C  C49  1  0.81404800  0.02678800  0.51704300  1
  C  C50  1  0.79458100  0.93057600  0.55206800  1
  C  C51  1  0.78229500  0.81807500  0.71332300  1
  C  C52  1  0.76947100  0.85785800  0.46788800  1
  C  C53  1  0.76363900  0.88211300  0.35085300  1
  O  O1  1  0.52658200  0.11714400  0.66868500  1
  O  O2  1  0.42790900  0.08595500  0.90450700  1
  O  O3  1  0.37826000  0.07061700  0.56979200  1
  O  O4  1  0.36267000  0.94820300  0.79517100  1
  O  O5  1  0.56960200  0.99133000  0.89786900  1
  O  O6  1  0.67436100  0.01819700  0.78026900  1
  O  O7  1  0.47518900  0.89776200  0.61651300  1
  O  O8  1  0.52380400  0.81354100  0.77310300  1
  O  O9  1  0.50122300  0.08304000  0.39225100  1
  O  O10  1  0.46835300  0.17450800  0.23541600  1
  O  O11  1  0.40834900  0.99510600  0.10826900  1
  O  O12  1  0.30764600  0.99591900  0.22529200  1
  O  O13  1  0.59284800  0.91940900  0.45052300  1
  O  O14  1  0.61559600  0.03995800  0.21071100  1
  O  O15  1  0.45264300  0.86496600  0.33257400  1
  O  O16  1  0.55993200  0.89967200  0.10426400  1
  O  O17  1  0.80073200  0.91057200  0.66771200  1
