# generated using pymatgen
data_Fe2H22C47(NO4)4
_symmetry_space_group_name_H-M   'P 1'
_cell_length_a   14.01278000
_cell_length_b   9.29421100
_cell_length_c   17.98755300
_cell_angle_alpha   92.60329000
_cell_angle_beta   90.94862300
_cell_angle_gamma   69.39869700
_symmetry_Int_Tables_number   1
_chemical_formula_structural   Fe2H22C47(NO4)4
_chemical_formula_sum   'Fe2 H22 C47 N4 O16'
_cell_volume   2190.58523554
_cell_formula_units_Z   1
loop_
 _symmetry_equiv_pos_site_id
 _symmetry_equiv_pos_as_xyz
  1  'x, y, z'
loop_
 _atom_site_type_symbol
 _atom_site_label
 _atom_site_symmetry_multiplicity
 _atom_site_fract_x
 _atom_site_fract_y
 _atom_site_fract_z
 _atom_site_occupancy
  Fe  Fe1  1  0.46087100  0.02914100  0.78353700  1
  Fe  Fe2  1  0.50700200  0.00284800  0.21228700  1
  H  H1  1  0.06873200  0.19052100  0.76083300  1
  H  H2  1  0.26244500  0.79179900  0.19973500  1
  H  H3  1  0.09391400  0.75161800  0.20063300  1
  H  H4  1  0.89949600  0.82948900  0.23263200  1
  H  H5  1  0.67878900  0.94444400  0.00381500  1
  H  H6  1  0.70171300  0.25246500  0.79906600  1
  H  H7  1  0.87258700  0.28578700  0.79619900  1
  H  H8  1  0.28893500  0.08632600  0.99032500  1
  H  H9  1  0.96809800  0.88172500  0.00936500  1
  H  H10  1  0.99974400  0.15477700  0.98606300  1
  H  H11  1  0.49112100  0.73431000  0.56965000  1
  H  H12  1  0.48443800  0.27456400  0.53836500  1
  H  H13  1  0.52325500  0.27206900  0.42935800  1
  H  H14  1  0.45998100  0.76089700  0.45572400  1
  H  H15  1  0.45326300  0.48488600  0.75171900  1
  H  H16  1  0.69643900  0.52892800  0.28927500  1
  H  H17  1  0.73300800  0.60778900  0.20959000  1
  H  H18  1  0.76800900  0.40285500  0.21504200  1
  H  H19  1  0.68621400  0.50190600  0.08180200  1
  H  H20  1  0.53889200  0.49239800  0.00895000  1
  H  H21  1  0.38328500  0.49954700  0.07264500  1
  H  H22  1  0.37468000  0.52003300  0.20912900  1
  C  C1  1  0.27081300  0.93448500  0.10791600  1
  C  C2  1  0.22954100  0.85210100  0.15030700  1
  C  C3  1  0.13638000  0.86729800  0.11937500  1
  C  C4  1  0.20180500  0.99323200  0.05133300  1
  C  C5  1  0.07142300  0.81116700  0.14921500  1
  C  C6  1  0.96533300  0.84718400  0.12535700  1
  C  C7  1  0.89003300  0.85111200  0.17393500  1
  C  C8  1  0.80039200  0.89551700  0.13442400  1
  C  C9  1  0.82446700  0.91509000  0.06205500  1
  C  C10  1  0.75081300  0.96239300  0.00037500  1
  C  C11  1  0.76540300  0.04019900  0.94390200  1
  C  C12  1  0.69523200  0.10323100  0.88855100  1
  C  C13  1  0.73573100  0.18836800  0.84731800  1
  C  C14  1  0.82997600  0.16946100  0.87719200  1
  C  C15  1  0.89544400  0.22408500  0.84700300  1
  C  C16  1  0.00248000  0.18157600  0.86931300  1
  C  C17  1  0.07819800  0.17095100  0.81971900  1
  C  C18  1  0.16805200  0.12534200  0.85897400  1
  C  C19  1  0.14374300  0.11172200  0.93199800  1
  C  C20  1  0.21711100  0.06782700  0.99391200  1
  C  C21  1  0.46248700  0.75527500  0.71769600  1
  C  C22  1  0.26654100  0.09230400  0.82299300  1
  C  C23  1  0.59429400  0.09580300  0.87299000  1
  C  C24  1  0.47703700  0.22357700  0.67698100  1
  C  C25  1  0.48375400  0.80463300  0.31583500  1
  C  C26  1  0.37229600  0.94090400  0.12249500  1
  C  C27  1  0.70228600  0.92577000  0.17061200  1
  C  C28  1  0.53537300  0.25295000  0.28452200  1
  C  C29  1  0.46892200  0.62544900  0.66494700  1
  C  C30  1  0.48255500  0.63165600  0.58885800  1
  C  C31  1  0.48551000  0.50816000  0.53978300  1
  C  C32  1  0.48185500  0.37566000  0.57069200  1
  C  C33  1  0.47121100  0.36859100  0.64592700  1
  C  C34  1  0.46113200  0.49409900  0.69264600  1
  C  C35  1  0.51260000  0.38388800  0.40967300  1
  C  C36  1  0.52180500  0.39024100  0.33368800  1
  C  C37  1  0.51824200  0.52583200  0.30357900  1
  C  C38  1  0.49590500  0.65798600  0.34867500  1
  C  C39  1  0.48101800  0.65335800  0.42410300  1
  C  C40  1  0.49393500  0.51491000  0.45697400  1
  C  C41  1  0.52327600  0.53209500  0.22267700  1
  C  C42  1  0.61272600  0.52167900  0.18679100  1
  C  C43  1  0.70736700  0.51530300  0.22822800  1
  C  C44  1  0.61695500  0.50968900  0.11001300  1
  C  C45  1  0.53449400  0.50336300  0.06899600  1
  C  C46  1  0.44731600  0.50763700  0.10464900  1
  C  C47  1  0.44213500  0.52102600  0.18121400  1
  N  N1  1  0.11901200  0.95264100  0.05872600  1
  N  N2  1  0.92610000  0.88472100  0.05697000  1
  N  N3  1  0.84842400  0.08022800  0.93651200  1
  N  N4  1  0.04180000  0.14648600  0.93785100  1
  O  O1  1  0.48530700  0.87390500  0.69793500  1
  O  O2  1  0.43340900  0.75244900  0.78641100  1
  O  O3  1  0.35335300  0.04643800  0.85925900  1
  O  O4  1  0.26776000  0.10737600  0.75091000  1
  O  O5  1  0.55231800  0.09687500  0.65772200  1
  O  O6  1  0.58545200  0.96714600  0.84580500  1
  O  O7  1  0.41497100  0.22428200  0.73079100  1
  O  O8  1  0.52068700  0.22565600  0.85970000  1
  O  O9  1  0.54996900  0.80940700  0.26624700  1
  O  O10  1  0.44616300  0.81084500  0.13449800  1
  O  O11  1  0.40529500  0.92844000  0.33348200  1
  O  O12  1  0.38190500  0.06806900  0.15060000  1
  O  O13  1  0.61460000  0.97895100  0.13567300  1
  O  O14  1  0.70223800  0.90835900  0.24254900  1
  O  O15  1  0.48561200  0.15969600  0.29680200  1
  O  O16  1  0.59233600  0.22826800  0.22487000  1
