# generated using pymatgen
data_ZnH17C31N3O7
_symmetry_space_group_name_H-M   'P 1'
_cell_length_a   11.88660100
_cell_length_b   13.07700300
_cell_length_c   27.63789800
_cell_angle_alpha   89.98423400
_cell_angle_beta   85.86392900
_cell_angle_gamma   91.19226800
_symmetry_Int_Tables_number   1
_chemical_formula_structural   ZnH17C31N3O7
_chemical_formula_sum   'Zn2 H34 C62 N6 O14'
_cell_volume   4283.94248006
_cell_formula_units_Z   2
loop_
 _symmetry_equiv_pos_site_id
 _symmetry_equiv_pos_as_xyz
  1  'x, y, z'
loop_
 _atom_site_type_symbol
 _atom_site_label
 _atom_site_symmetry_multiplicity
 _atom_site_fract_x
 _atom_site_fract_y
 _atom_site_fract_z
 _atom_site_occupancy
  Zn  Zn1  1  0.37066900  0.50831900  0.50396100  1
  Zn  Zn2  1  0.62616600  0.49199100  0.49614400  1
  H  H1  1  0.67338600  0.46350200  0.64883200  1
  H  H2  1  0.67917900  0.51386600  0.34030300  1
  H  H3  1  0.67275300  0.46405500  0.73701100  1
  H  H4  1  0.67860300  0.51335000  0.25215500  1
  H  H5  1  0.31855400  0.48531600  0.35122900  1
  H  H6  1  0.32317400  0.53782800  0.65982400  1
  H  H7  1  0.32002400  0.48380900  0.26298600  1
  H  H8  1  0.32477000  0.53911000  0.74798400  1
  H  H9  1  0.56017400  0.74650800  0.11922700  1
  H  H10  1  0.50801500  0.24896900  0.87862900  1
  H  H11  1  0.55935600  0.75142100  0.03448400  1
  H  H12  1  0.50660500  0.24420300  0.96344200  1
  H  H13  1  0.49581000  0.75689600  0.96693600  1
  H  H14  1  0.44311700  0.24716300  0.03498500  1
  H  H15  1  0.64535700  0.16353600  0.49551800  1
  H  H16  1  0.35147800  0.83677400  0.50457300  1
  H  H17  1  0.28565000  0.18624200  0.50679200  1
  H  H18  1  0.71118500  0.81406700  0.49333000  1
  H  H19  1  0.72915300  0.99953500  0.49283800  1
  H  H20  1  0.26768200  0.00077400  0.50727100  1
  H  H21  1  0.18169800  0.40649000  0.45590500  1
  H  H22  1  0.81514000  0.59382900  0.54419400  1
  H  H23  1  0.20389400  0.63306400  0.56288000  1
  H  H24  1  0.79294200  0.36723200  0.43723100  1
  H  H25  1  0.99887800  0.35230000  0.43025200  1
  H  H26  1  0.99795700  0.64800500  0.56985400  1
  H  H27  1  0.43849300  0.83153300  0.89182700  1
  H  H28  1  0.53042500  0.97411200  0.86014700  1
  H  H29  1  0.65685600  0.95077000  0.82192300  1
  H  H30  1  0.66560500  0.97126200  0.88623700  1
  H  H31  1  0.37150000  0.18113800  0.11416200  1
  H  H32  1  0.43282800  0.02834400  0.14104100  1
  H  H33  1  0.56255600  0.03458100  0.17117000  1
  H  H34  1  0.56653200  0.01318300  0.10645800  1
  C  C1  1  0.51854000  0.70000800  0.49932400  1
  C  C2  1  0.47829500  0.30030200  0.50078000  1
  C  C3  1  0.49818000  0.50034600  0.59482000  1
  C  C4  1  0.49867500  0.49995900  0.40528400  1
  C  C5  1  0.49692000  0.59205300  0.82343600  1
  C  C6  1  0.47884800  0.40955600  0.17732600  1
  C  C7  1  0.50280000  0.41332900  0.82360300  1
  C  C8  1  0.52143300  0.58506500  0.17563700  1
  C  C9  1  0.40125900  0.52251800  0.72609200  1
  C  C10  1  0.39883200  0.49040000  0.28008300  1
  C  C11  1  0.40063700  0.52136600  0.67621100  1
  C  C12  1  0.39836400  0.49164000  0.32999500  1
  C  C13  1  0.59608900  0.48031300  0.67006400  1
  C  C14  1  0.59954000  0.50715600  0.32390900  1
  C  C15  1  0.59602600  0.48021500  0.71995100  1
  C  C16  1  0.59958400  0.50723200  0.27401900  1
  C  C17  1  0.49883600  0.50172700  0.74806200  1
  C  C18  1  0.49936400  0.49841900  0.25199800  1
  C  C19  1  0.50108300  0.50289200  0.89916600  1
  C  C20  1  0.50099600  0.49696800  0.10076900  1
  C  C21  1  0.50005300  0.59431300  0.87387100  1
  C  C22  1  0.48126800  0.40692500  0.12671600  1
  C  C23  1  0.49994700  0.68536600  0.89979500  1
  C  C24  1  0.46227600  0.31714200  0.10139300  1
  C  C25  1  0.50221900  0.41237500  0.87356200  1
  C  C26  1  0.52086900  0.58609000  0.12571300  1
  C  C27  1  0.49824700  0.50062600  0.64789300  1
  C  C28  1  0.49883400  0.49963800  0.35220400  1
  C  C29  1  0.51467800  0.59051000  0.02530400  1
  C  C30  1  0.49570400  0.40880200  0.97437000  1
  C  C31  1  0.48703100  0.40808300  0.02518800  1
  C  C32  1  0.50600300  0.59237900  0.97503100  1
  C  C33  1  0.50097900  0.49847500  0.05033500  1
  C  C34  1  0.50101100  0.50139300  0.94960400  1
  C  C35  1  0.53834600  0.67864300  0.05123800  1
  C  C36  1  0.50077200  0.31876000  0.94753200  1
  C  C37  1  0.54147200  0.67612700  0.10069100  1
  C  C38  1  0.50413100  0.32084500  0.89787600  1
  C  C39  1  0.50138300  0.68357100  0.94947100  1
  C  C40  1  0.46381900  0.31874000  0.05162400  1
  C  C41  1  0.46700500  0.18832900  0.50112300  1
  C  C42  1  0.52983000  0.81198100  0.49898000  1
  C  C43  1  0.64603100  0.96394900  0.49541700  1
  C  C44  1  0.35080400  0.03636000  0.50468900  1
  C  C45  1  0.63555500  0.85876200  0.49570300  1
  C  C46  1  0.36128000  0.14154700  0.50441300  1
  C  C47  1  0.43486100  0.87172500  0.50197100  1
  C  C48  1  0.56197400  0.12858500  0.49812100  1
  C  C49  1  0.44566400  0.97706600  0.50168700  1
  C  C50  1  0.55117100  0.02324300  0.49841000  1
  C  C51  1  0.95968200  0.40604200  0.45560000  1
  C  C52  1  0.03715400  0.59426600  0.54450500  1
  C  C53  1  0.84391900  0.41450300  0.45954700  1
  C  C54  1  0.15291700  0.58580100  0.54056000  1
  C  C55  1  0.85642400  0.54072300  0.51913300  1
  C  C56  1  0.14041200  0.45959100  0.48096800  1
  C  C57  1  0.97241500  0.53396300  0.51599900  1
  C  C58  1  0.02442100  0.46634800  0.48410300  1
  C  C59  1  0.60045200  0.82475000  0.86695300  1
  C  C60  1  0.61374100  0.93717600  0.85835600  1
  C  C61  1  0.53273800  0.16633500  0.12884300  1
  C  C62  1  0.52263100  0.05370100  0.13735700  1
  N  N1  1  0.49935300  0.50234200  0.79959400  1
  N  N2  1  0.49979600  0.49771800  0.20043500  1
  N  N3  1  0.20261800  0.51907300  0.50908100  1
  N  N4  1  0.79421700  0.48123600  0.49102300  1
  N  N5  1  0.49711000  0.78167400  0.87688000  1
  N  N6  1  0.43969600  0.22252700  0.12510700  1
  O  O1  1  0.41686500  0.65836000  0.50238400  1
  O  O2  1  0.57997000  0.34194900  0.49753800  1
  O  O3  1  0.61059000  0.64598500  0.49660300  1
  O  O4  1  0.38624500  0.35432500  0.50368400  1
  O  O5  1  0.40135400  0.50671700  0.57512100  1
  O  O6  1  0.59552400  0.49404800  0.42498700  1
  O  O7  1  0.59505700  0.49387500  0.56917900  1
  O  O8  1  0.40172900  0.50597900  0.43092200  1
  O  O9  1  0.49252500  0.67852100  0.79745300  1
  O  O10  1  0.45681900  0.32483800  0.20413500  1
  O  O11  1  0.54124600  0.67186700  0.19990700  1
  O  O12  1  0.50444100  0.32511400  0.79865600  1
  O  O13  1  0.68377500  0.77165300  0.86473200  1
  O  O14  1  0.62589000  0.20764400  0.12549400  1
