# generated using pymatgen
data_Cu2H25C30N5O11
_symmetry_space_group_name_H-M   'P 1'
_cell_length_a   9.52257700
_cell_length_b   11.06905600
_cell_length_c   13.53947000
_cell_angle_alpha   89.99254400
_cell_angle_beta   74.57542000
_cell_angle_gamma   90.01976600
_symmetry_Int_Tables_number   1
_chemical_formula_structural   Cu2H25C30N5O11
_chemical_formula_sum   'Cu2 H25 C30 N5 O11'
_cell_volume   1375.73680176
_cell_formula_units_Z   1
loop_
 _symmetry_equiv_pos_site_id
 _symmetry_equiv_pos_as_xyz
  1  'x, y, z'
loop_
 _atom_site_type_symbol
 _atom_site_label
 _atom_site_symmetry_multiplicity
 _atom_site_fract_x
 _atom_site_fract_y
 _atom_site_fract_z
 _atom_site_occupancy
  Cu  Cu1  1  0.36770900  0.50798700  0.51506000  1
  Cu  Cu2  1  0.64653900  0.50330800  0.51554600  1
  H  H1  1  0.80691300  0.34268400  0.86454900  1
  H  H2  1  0.88799400  0.37344100  0.01051900  1
  H  H3  1  0.42301200  0.55380700  0.19278100  1
  H  H4  1  0.17659800  0.58173400  0.82953400  1
  H  H5  1  0.27238000  0.58152700  0.11260700  1
  H  H6  1  0.11480400  0.62335400  0.00914100  1
  H  H7  1  0.62804900  0.36467600  0.77121000  1
  H  H8  1  0.71288700  0.11653700  0.51196100  1
  H  H9  1  0.40227600  0.90618400  0.56276500  1
  H  H10  1  0.08445800  0.59300400  0.65117600  1
  H  H11  1  0.13858500  0.49872800  0.44581800  1
  H  H12  1  0.83142600  0.62546400  0.62241300  1
  H  H13  1  0.92486300  0.43449300  0.47133900  1
  H  H14  1  0.97408700  0.42529500  0.15775100  1
  H  H15  1  0.07363200  0.30679500  0.25364000  1
  H  H16  1  0.00092000  0.15975900  0.23211700  1
  H  H17  1  0.94809900  0.22860800  0.35891200  1
  H  H18  1  0.27468900  0.12039000  0.50714100  1
  H  H19  1  0.17128800  0.03967300  0.38695900  1
  H  H20  1  0.28838400  0.94275600  0.29251000  1
  H  H21  1  0.27888700  0.10410900  0.26761900  1
  H  H22  1  0.85334700  0.94346700  0.45499100  1
  H  H23  1  0.01418300  0.84043600  0.32900800  1
  H  H24  1  0.95539600  0.88128600  0.21626300  1
  H  H25  1  0.93947500  0.72652100  0.26219300  1
  C  C1  1  0.51316800  0.73827300  0.51903600  1
  C  C2  1  0.42929300  0.49849400  0.71292400  1
  C  C3  1  0.50086700  0.27360300  0.51107900  1
  C  C4  1  0.58344500  0.50748100  0.31736100  1
  C  C5  1  0.78475300  0.41364400  0.05006700  1
  C  C6  1  0.62437100  0.48837500  0.20479800  1
  C  C7  1  0.25272600  0.55496700  0.87218800  1
  C  C8  1  0.21654100  0.58060300  0.97435300  1
  C  C9  1  0.31028200  0.55707200  0.03294000  1
  C  C10  1  0.44566000  0.50552200  0.98942500  1
  C  C11  1  0.48123500  0.47489100  0.88543400  1
  C  C12  1  0.54738500  0.48409200  0.04653700  1
  C  C13  1  0.68002900  0.43172300  0.99852500  1
  C  C14  1  0.70785100  0.39188000  0.89925700  1
  C  C15  1  0.60890400  0.41146100  0.84358500  1
  C  C16  1  0.52228000  0.51243500  0.15075100  1
  C  C17  1  0.75849000  0.43996400  0.15263500  1
  C  C18  1  0.38565200  0.50470800  0.82576400  1
  C  C19  1  0.61484600  0.07347700  0.50422300  1
  C  C20  1  0.49799300  0.14004300  0.49894100  1
  C  C21  1  0.62547400  0.94161400  0.48956100  1
  C  C22  1  0.50877700  0.87011500  0.52504000  1
  C  C23  1  0.05636500  0.55747300  0.58443200  1
  C  C24  1  0.90563900  0.56412400  0.57420900  1
  C  C25  1  0.85041600  0.30628500  0.24907900  1
  C  C26  1  0.97673300  0.24630100  0.27507800  1
  C  C27  1  0.40023200  0.05681900  0.37321700  1
  C  C28  1  0.27654200  0.03441400  0.32735300  1
  C  C29  1  0.78401100  0.84823300  0.35087900  1
  C  C30  1  0.93302000  0.82283300  0.28529200  1
  N  N1  1  0.15948400  0.51308300  0.51311200  1
  N  N2  1  0.85716800  0.49860200  0.51300100  1
  N  N3  1  0.86856800  0.41403900  0.20157100  1
  N  N4  1  0.37669600  0.08589100  0.47354300  1
  N  N5  1  0.76608300  0.89299600  0.44610200  1
  O  O1  1  0.39154600  0.68430000  0.51801200  1
  O  O2  1  0.63271200  0.67893400  0.51394200  1
  O  O3  1  0.32777600  0.49736200  0.66383300  1
  O  O4  1  0.56973500  0.50628600  0.66463500  1
  O  O5  1  0.38464700  0.33370700  0.50580100  1
  O  O6  1  0.62149100  0.32779800  0.51469100  1
  O  O7  1  0.44499900  0.51099800  0.36617000  1
  O  O8  1  0.68228900  0.50470700  0.36683900  1
  O  O9  1  0.73258400  0.25555300  0.26686700  1
  O  O10  1  0.52396000  0.05720600  0.31769900  1
  O  O11  1  0.67918900  0.82918600  0.31729200  1
