# generated using pymatgen
data_Cu2H5(C9O4)2
_symmetry_space_group_name_H-M   'P 1'
_cell_length_a   17.16663800
_cell_length_b   16.60874300
_cell_length_c   13.75328900
_cell_angle_alpha   89.51805000
_cell_angle_beta   78.44396300
_cell_angle_gamma   111.06984600
_symmetry_Int_Tables_number   1
_chemical_formula_structural   Cu2H5(C9O4)2
_chemical_formula_sum   'Cu4 H10 C36 O16'
_cell_volume   3571.04722150
_cell_formula_units_Z   2
loop_
 _symmetry_equiv_pos_site_id
 _symmetry_equiv_pos_as_xyz
  1  'x, y, z'
loop_
 _atom_site_type_symbol
 _atom_site_label
 _atom_site_symmetry_multiplicity
 _atom_site_fract_x
 _atom_site_fract_y
 _atom_site_fract_z
 _atom_site_occupancy
  Cu  Cu1  1  0.56363300  0.56895500  0.42973600  1
  Cu  Cu2  1  0.52747000  0.55087900  0.61848900  1
  Cu  Cu3  1  0.11088000  0.77595800  0.58398400  1
  Cu  Cu4  1  0.14703600  0.79401200  0.39523500  1
  H  H1  1  0.49093100  0.17064500  0.48201100  1
  H  H2  1  0.50476000  0.29322700  0.75223800  1
  H  H3  1  0.31791600  0.04114800  0.75277000  1
  H  H4  1  0.35651200  0.30379300  0.26087400  1
  H  H5  1  0.16977700  0.05164400  0.26144100  1
  H  H6  1  0.18354400  0.17426500  0.53164800  1
  H  H7  1  0.34954000  0.70927600  0.60612800  1
  H  H8  1  0.32496600  0.63562300  0.40761900  1
  H  H9  1  0.81926300  0.71103500  0.60504200  1
  H  H10  1  0.85524000  0.63386900  0.40870400  1
  C  C1  1  0.60651500  0.43718700  0.51905900  1
  C  C2  1  0.71004300  0.65272800  0.52900300  1
  C  C3  1  0.44334500  0.65212600  0.52930300  1
  C  C4  1  0.40117300  0.43616800  0.52035100  1
  C  C5  1  0.27334500  0.90873100  0.49334500  1
  C  C6  1  0.23116200  0.69277400  0.48443800  1
  C  C7  1  0.96446200  0.69217600  0.48473900  1
  C  C8  1  0.06799700  0.90771600  0.49463500  1
  C  C9  1  0.40038600  0.09830300  0.61198400  1
  C  C10  1  0.50509800  0.23956900  0.61167500  1
  C  C11  1  0.40815500  0.16704100  0.76342200  1
  C  C12  1  0.46762000  0.16957500  0.56127100  1
  C  C13  1  0.47538400  0.23831400  0.71275100  1
  C  C14  1  0.37064400  0.09702200  0.71305400  1
  C  C15  1  0.64071700  0.36992100  0.51684600  1
  C  C16  1  0.57492500  0.31381800  0.55890600  1
  C  C17  1  0.34860900  0.16980100  0.95504500  1
  C  C18  1  0.37719600  0.16574700  0.86856800  1
  C  C19  1  0.35335800  0.97667200  0.49481200  1
  C  C20  1  0.36127500  0.02547700  0.55960800  1
  C  C21  1  0.27406200  0.24662500  0.40166700  1
  C  C22  1  0.26632800  0.17786500  0.25024000  1
  C  C23  1  0.16941200  0.10531900  0.40199500  1
  C  C24  1  0.30380700  0.24790400  0.30059800  1
  C  C25  1  0.19912900  0.10657300  0.30092000  1
  C  C26  1  0.20685700  0.17533400  0.45238900  1
  C  C27  1  0.32576600  0.17518100  0.05856100  1
  C  C28  1  0.29729100  0.17915700  0.14509400  1
  C  C29  1  0.03379800  0.97498300  0.49683500  1
  C  C30  1  0.09961600  0.03105100  0.45477400  1
  C  C31  1  0.32116300  0.36822400  0.51887700  1
  C  C32  1  0.31313900  0.31947200  0.45403200  1
  C  C33  1  0.36556100  0.68047400  0.53825200  1
  C  C34  1  0.30894500  0.66442600  0.47549300  1
  C  C35  1  0.80467500  0.68114200  0.53781500  1
  C  C36  1  0.86982900  0.66376200  0.47593000  1
  O  O1  1  0.60708800  0.47577300  0.43502900  1
  O  O2  1  0.57548300  0.45999600  0.60510900  1
  O  O3  1  0.68488400  0.64359900  0.44290000  1
  O  O4  1  0.64915700  0.63063000  0.61160300  1
  O  O5  1  0.48990700  0.64337600  0.44311700  1
  O  O6  1  0.46237000  0.62977900  0.61180500  1
  O  O7  1  0.45358200  0.47536200  0.43603200  1
  O  O8  1  0.42104600  0.45890000  0.60612100  1
  O  O9  1  0.22093400  0.86955000  0.57766800  1
  O  O10  1  0.25347000  0.88598900  0.40757800  1
  O  O11  1  0.18460200  0.70153300  0.57062100  1
  O  O12  1  0.21213500  0.71511300  0.40193300  1
  O  O13  1  0.98962300  0.70131200  0.57084100  1
  O  O14  1  0.02534500  0.71426300  0.40213700  1
  O  O15  1  0.06742200  0.86913700  0.57867100  1
  O  O16  1  0.09903000  0.88489900  0.40859000  1
