# generated using pymatgen
data_ZnH10C17NO6
_symmetry_space_group_name_H-M   'P 1'
_cell_length_a   14.53008700
_cell_length_b   11.00021500
_cell_length_c   9.83169900
_cell_angle_alpha   90.00017700
_cell_angle_beta   89.99661600
_cell_angle_gamma   90.00091200
_symmetry_Int_Tables_number   1
_chemical_formula_structural   ZnH10C17NO6
_chemical_formula_sum   'Zn2 H20 C34 N2 O12'
_cell_volume   1571.44057108
_cell_formula_units_Z   2
loop_
 _symmetry_equiv_pos_site_id
 _symmetry_equiv_pos_as_xyz
  1  'x, y, z'
loop_
 _atom_site_type_symbol
 _atom_site_label
 _atom_site_symmetry_multiplicity
 _atom_site_fract_x
 _atom_site_fract_y
 _atom_site_fract_z
 _atom_site_occupancy
  Zn  Zn1  1  0.50503300  0.49706200  0.64503300  1
  Zn  Zn2  1  0.50537000  0.49840500  0.33545300  1
  H  H1  1  0.50128100  0.10763800  0.27767400  1
  H  H2  1  0.60475300  0.19283900  0.73155400  1
  H  H3  1  0.58020600  0.09611300  0.94782700  1
  H  H4  1  0.49174900  0.90621000  0.96108900  1
  H  H5  1  0.43960500  0.80831500  0.75803500  1
  H  H6  1  0.49243300  0.88850000  0.27894300  1
  H  H7  1  0.60030400  0.63636300  0.11394600  1
  H  H8  1  0.38956400  0.33000700  0.23600700  1
  H  H9  1  0.38703600  0.32903200  0.74587900  1
  H  H10  1  0.60054300  0.63479400  0.86474400  1
  H  H11  1  0.09770800  0.18121900  0.67697900  1
  H  H12  1  0.15335700  0.04489300  0.73430200  1
  H  H13  1  0.19671300  0.18939200  0.47630200  1
  H  H14  1  0.14038600  0.04245800  0.48694800  1
  H  H15  1  0.26030800  0.05732100  0.53437300  1
  H  H16  1  0.10787700  0.13395400  0.25881700  1
  H  H17  1  0.15803100  0.99317600  0.19642000  1
  H  H18  1  0.01108600  0.14694500  0.05222500  1
  H  H19  1  0.99148200  0.00624400  0.14336700  1
  H  H20  1  0.06070300  0.00645800  0.99020300  1
  C  C1  1  0.51685500  0.25906300  0.49064800  1
  C  C2  1  0.32523400  0.49009700  0.49028200  1
  C  C3  1  0.49677200  0.73657300  0.49175900  1
  C  C4  1  0.68477300  0.50868300  0.49021600  1
  C  C5  1  0.22647900  0.49134400  0.49001200  1
  C  C6  1  0.14357500  0.49422800  0.48999700  1
  C  C7  1  0.04645900  0.49882500  0.49012500  1
  C  C8  1  0.96358400  0.50291100  0.49026700  1
  C  C9  1  0.86645400  0.50700800  0.49039500  1
  C  C10  1  0.78353500  0.50902300  0.49040500  1
  C  C11  1  0.56490400  0.11022400  0.73274100  1
  C  C12  1  0.55438300  0.05374900  0.85625400  1
  C  C13  1  0.50650800  0.94691800  0.86342000  1
  C  C14  1  0.48065400  0.88893500  0.74570000  1
  C  C15  1  0.50164800  0.93803700  0.61854000  1
  C  C16  1  0.52930400  0.05878500  0.61441500  1
  C  C17  1  0.52150900  0.12421200  0.49288500  1
  C  C18  1  0.50602700  0.06056800  0.37386500  1
  C  C19  1  0.49859300  0.93546100  0.37501900  1
  C  C20  1  0.49511300  0.87190500  0.49643100  1
  C  C21  1  0.39314300  0.33297700  0.12874600  1
  C  C22  1  0.33633000  0.25320500  0.06141700  1
  C  C23  1  0.33596600  0.25333000  0.92190700  1
  C  C24  1  0.39039900  0.33483100  0.85326600  1
  C  C25  1  0.44816800  0.41623100  0.91991300  1
  C  C26  1  0.44916600  0.41577500  0.06115000  1
  C  C27  1  0.55665600  0.57282500  0.06035600  1
  C  C28  1  0.55678200  0.57191700  0.91910800  1
  C  C29  1  0.28194900  0.16480100  0.84410700  1
  C  C30  1  0.16395500  0.13116400  0.67841100  1
  C  C31  1  0.19230600  0.10309800  0.53410000  1
  C  C32  1  0.27331200  0.17598500  0.14086200  1
  C  C33  1  0.12737800  0.08169400  0.16689200  1
  C  C34  1  0.04195200  0.05881000  0.08252500  1
  N  N1  1  0.50312700  0.49525300  0.13121400  1
  N  N2  1  0.50286400  0.49412000  0.84913200  1
  O  O1  1  0.51134400  0.31670700  0.60602000  1
  O  O2  1  0.51393900  0.31744400  0.37429500  1
  O  O3  1  0.36807700  0.49236600  0.60663900  1
  O  O4  1  0.36847900  0.49183100  0.37419500  1
  O  O5  1  0.50079100  0.67776300  0.60779200  1
  O  O6  1  0.49950600  0.67994800  0.37244400  1
  O  O7  1  0.64216400  0.50494600  0.60846100  1
  O  O8  1  0.64243800  0.50859000  0.37171100  1
  O  O9  1  0.28526300  0.05728300  0.87430200  1
  O  O10  1  0.23000400  0.20281500  0.73846400  1
  O  O11  1  0.29521700  0.14299700  0.25470000  1
  O  O12  1  0.18934800  0.14734800  0.09164100  1
