# generated using pymatgen
data_ZnH6C14NO6
_symmetry_space_group_name_H-M   'P 1'
_cell_length_a   7.06073600
_cell_length_b   12.43899600
_cell_length_c   12.40263300
_cell_angle_alpha   90.90171100
_cell_angle_beta   95.53245700
_cell_angle_gamma   79.69532700
_symmetry_Int_Tables_number   1
_chemical_formula_structural   ZnH6C14NO6
_chemical_formula_sum   'Zn2 H12 C28 N2 O12'
_cell_volume   1066.74057718
_cell_formula_units_Z   2
loop_
 _symmetry_equiv_pos_site_id
 _symmetry_equiv_pos_as_xyz
  1  'x, y, z'
loop_
 _atom_site_type_symbol
 _atom_site_label
 _atom_site_symmetry_multiplicity
 _atom_site_fract_x
 _atom_site_fract_y
 _atom_site_fract_z
 _atom_site_occupancy
  Zn  Zn1  1  0.51686600  0.49544800  0.12025000  1
  Zn  Zn2  1  0.48385500  0.50459200  0.88038100  1
  H  H1  1  0.41556200  0.16271400  0.94517000  1
  H  H2  1  0.58636100  0.83813700  0.05744800  1
  H  H3  1  0.46086800  0.94173300  0.95413600  1
  H  H4  1  0.54095800  0.05818900  0.04768300  1
  H  H5  1  0.59130500  0.04056000  0.89739100  1
  H  H6  1  0.40863200  0.95987800  0.10409700  1
  H  H7  1  0.71135000  0.44232700  0.51440000  1
  H  H8  1  0.28936400  0.55765200  0.48626800  1
  H  H9  1  0.28788200  0.76628400  0.85001700  1
  H  H10  1  0.46430800  0.23094600  0.08421900  1
  H  H11  1  0.54289000  0.28155300  0.87273100  1
  H  H12  1  0.45855500  0.71854500  0.12734500  1
  C  C1  1  0.16431400  0.25583000  0.98619600  1
  C  C2  1  0.83649100  0.74439500  0.01454100  1
  C  C3  1  0.27940500  0.15595100  0.97165900  1
  C  C4  1  0.72189700  0.84439100  0.02966000  1
  C  C5  1  0.22034800  0.05555500  0.98772900  1
  C  C6  1  0.78095000  0.94466400  0.01302300  1
  C  C7  1  0.35990700  0.95431300  0.01602900  1
  C  C8  1  0.64120700  0.04596000  0.98532900  1
  C  C9  1  0.29600900  0.84617900  0.01193500  1
  C  C10  1  0.70517800  0.15409200  0.98847800  1
  C  C11  1  0.96929700  0.25214700  0.99853000  1
  C  C12  1  0.03155400  0.74800400  0.00194400  1
  C  C13  1  0.91108100  0.15101200  0.99997000  1
  C  C14  1  0.09000000  0.84913700  0.00029700  1
  C  C15  1  0.03346300  0.05292200  0.99737700  1
  C  C16  1  0.96766100  0.94724100  0.00283300  1
  C  C17  1  0.26734700  0.35361900  0.99120200  1
  C  C18  1  0.73327900  0.64655400  0.00944800  1
  C  C19  1  0.80910900  0.34684300  0.99909900  1
  C  C20  1  0.19160300  0.65321600  0.00151000  1
  C  C21  1  0.42646600  0.52019200  0.52830300  1
  C  C22  1  0.57427700  0.47977500  0.47232500  1
  C  C23  1  0.55252500  0.48570800  0.35597800  1
  C  C24  1  0.44822500  0.51429600  0.64464800  1
  C  C25  1  0.38252300  0.78470200  0.91923500  1
  C  C26  1  0.61903300  0.21665600  0.08056200  1
  C  C27  1  0.63897300  0.20538400  0.88079700  1
  C  C28  1  0.36178000  0.79435200  0.11939200  1
  N  N1  1  0.46488900  0.50977900  0.73827400  1
  N  N2  1  0.53585600  0.49025900  0.26235800  1
  O  O1  1  0.31973500  0.39018700  0.90114400  1
  O  O2  1  0.68135800  0.60967900  0.09948600  1
  O  O3  1  0.33966400  0.38587100  0.08623200  1
  O  O4  1  0.66062200  0.61440600  0.91443000  1
  O  O5  1  0.73905700  0.37557700  0.09157100  1
  O  O6  1  0.26134800  0.62425300  0.90902900  1
  O  O7  1  0.72003200  0.38655900  0.90635000  1
  O  O8  1  0.28092700  0.61365600  0.09429600  1
  O  O9  1  0.55548300  0.77431400  0.91135600  1
  O  O10  1  0.72342200  0.23413700  0.16063900  1
  O  O11  1  0.69746000  0.15961500  0.79963700  1
  O  O12  1  0.30230300  0.83948800  0.20062200  1
