# generated using pymatgen
data_Fe2H15C42N4ClO16
_symmetry_space_group_name_H-M   'P 1'
_cell_length_a   12.49108800
_cell_length_b   15.87965500
_cell_length_c   13.19705900
_cell_angle_alpha   99.84428100
_cell_angle_beta   80.73062900
_cell_angle_gamma   70.80216700
_symmetry_Int_Tables_number   1
_chemical_formula_structural   Fe2H15C42N4ClO16
_chemical_formula_sum   'Fe2 H15 C42 N4 Cl1 O16'
_cell_volume   2368.37015052
_cell_formula_units_Z   1
loop_
 _symmetry_equiv_pos_site_id
 _symmetry_equiv_pos_as_xyz
  1  'x, y, z'
loop_
 _atom_site_type_symbol
 _atom_site_label
 _atom_site_symmetry_multiplicity
 _atom_site_fract_x
 _atom_site_fract_y
 _atom_site_fract_z
 _atom_site_occupancy
  Fe  Fe1  1  0.49468600  0.01717200  0.27018000  1
  Fe  Fe2  1  0.50191800  0.98079800  0.71271600  1
  H  H1  1  0.61330600  0.03682500  0.97318300  1
  H  H2  1  0.92938700  0.96881100  0.75003400  1
  H  H3  1  0.38347800  0.96275600  0.00995400  1
  H  H4  1  0.06631200  0.03343500  0.23283300  1
  H  H5  1  0.89581100  0.04353000  0.17800400  1
  H  H6  1  0.10069300  0.95859400  0.80471500  1
  H  H7  1  0.22056500  0.27140700  0.42474700  1
  H  H8  1  0.07996200  0.44108800  0.73812400  1
  H  H9  1  0.19827700  0.31968000  0.80567700  1
  H  H10  1  0.91358100  0.55431600  0.25071300  1
  H  H11  1  0.78703700  0.73451100  0.55738300  1
  H  H12  1  0.60953100  0.65979900  0.19289600  1
  H  H13  1  0.60420000  0.60461000  0.00887700  1
  H  H14  1  0.95384300  0.58659900  0.90533100  1
  H  H15  1  0.95961800  0.64188400  0.08920300  1
  C  C1  1  0.76131400  0.02722200  0.04004300  1
  C  C2  1  0.70398600  0.02904800  0.95846600  1
  C  C3  1  0.76366000  0.00822300  0.85495700  1
  C  C4  1  0.88197000  0.98810200  0.83170700  1
  C  C5  1  0.93903400  0.99466800  0.91250400  1
  C  C6  1  0.87951700  0.01477300  0.01708000  1
  C  C7  1  0.05682600  0.97898100  0.88719600  1
  C  C8  1  0.11712500  0.98606900  0.96572600  1
  C  C9  1  0.05733200  0.00668700  0.07025600  1
  C  C10  1  0.93964000  0.02253700  0.09552600  1
  C  C11  1  0.23570600  0.97254400  0.94296000  1
  C  C12  1  0.29262300  0.97098900  0.02473500  1
  C  C13  1  0.23227200  0.99296500  0.12820300  1
  C  C14  1  0.11398900  0.01357400  0.15119200  1
  C  C15  1  0.69493700  0.02747000  0.14358300  1
  C  C16  1  0.64694200  0.84692100  0.28227900  1
  C  C17  1  0.29234800  0.00951900  0.21127900  1
  C  C18  1  0.35546600  0.12840300  0.46535700  1
  C  C19  1  0.64334000  0.87169700  0.51624400  1
  C  C20  1  0.70306900  0.99186300  0.77203800  1
  C  C21  1  0.35012400  0.15272500  0.70008200  1
  C  C22  1  0.30256000  0.97154900  0.83939700  1
  C  C23  1  0.28187600  0.21197300  0.54600500  1
  C  C24  1  0.21557100  0.28275600  0.50867300  1
  C  C25  1  0.14198200  0.36514000  0.57600700  1
  C  C26  1  0.13666600  0.37726400  0.68307000  1
  C  C27  1  0.20413900  0.30748300  0.72153500  1
  C  C28  1  0.27773600  0.22391800  0.65427100  1
  C  C29  1  0.93633200  0.56664600  0.45237800  1
  C  C30  1  0.06977100  0.43732500  0.53271300  1
  C  C31  1  0.86090300  0.62062400  0.30297500  1
  C  C32  1  0.78860800  0.68622600  0.26251800  1
  C  C33  1  0.71840000  0.77335400  0.32735200  1
  C  C34  1  0.71866700  0.78844800  0.43548000  1
  C  C35  1  0.78895100  0.72046100  0.47399300  1
  C  C36  1  0.86195900  0.63730100  0.40862500  1
  C  C37  1  0.78391300  0.65664400  0.15247800  1
  C  C38  1  0.68487900  0.64474100  0.12974600  1
  C  C39  1  0.68195700  0.61344100  0.02653200  1
  C  C40  1  0.77834200  0.59298700  0.94589200  1
  C  C41  1  0.87799500  0.60323100  0.96851200  1
  C  C42  1  0.88113100  0.63434800  0.07175900  1
  N  N1  1  0.99893900  0.51916000  0.59637600  1
  N  N2  1  0.93314000  0.58296100  0.55662400  1
  N  N3  1  0.00747400  0.48495100  0.38876200  1
  N  N4  1  0.07323600  0.42123500  0.42847800  1
  Cl  Cl1  1  0.77446500  0.55302000  0.81493400  1
  O  O1  1  0.58109900  0.05490200  0.15835000  1
  O  O2  1  0.66132400  0.83752700  0.17974300  1
  O  O3  1  0.74680800  0.98212000  0.20724600  1
  O  O4  1  0.57412600  0.92543500  0.34453700  1
  O  O5  1  0.40048300  0.95440500  0.20063600  1
  O  O6  1  0.25079100  0.09043800  0.27758000  1
  O  O7  1  0.41440100  0.13700800  0.37850700  1
  O  O8  1  0.34363300  0.04973200  0.46892300  1
  O  O9  1  0.58520000  0.86196400  0.60299900  1
  O  O10  1  0.65351700  0.95101600  0.51333300  1
  O  O11  1  0.59349000  0.04504200  0.78448000  1
  O  O12  1  0.74701000  0.91225000  0.70312500  1
  O  O13  1  0.25149600  0.02047300  0.77813300  1
  O  O14  1  0.42081400  0.07268200  0.63932300  1
  O  O15  1  0.41683400  0.94033100  0.82272200  1
  O  O16  1  0.34184700  0.16866600  0.80250300  1
