# generated using pymatgen
data_FeH13(C5O2)5
_symmetry_space_group_name_H-M   'P 1'
_cell_length_a   14.41320700
_cell_length_b   15.61847100
_cell_length_c   13.46724200
_cell_angle_alpha   94.26516700
_cell_angle_beta   92.97204300
_cell_angle_gamma   64.26189600
_symmetry_Int_Tables_number   1
_chemical_formula_structural   FeH13(C5O2)5
_chemical_formula_sum   'Fe2 H26 C50 O20'
_cell_volume   2722.65912120
_cell_formula_units_Z   2
loop_
 _symmetry_equiv_pos_site_id
 _symmetry_equiv_pos_as_xyz
  1  'x, y, z'
loop_
 _atom_site_type_symbol
 _atom_site_label
 _atom_site_symmetry_multiplicity
 _atom_site_fract_x
 _atom_site_fract_y
 _atom_site_fract_z
 _atom_site_occupancy
  Fe  Fe1  1  0.50443600  0.00719300  0.15903800  1
  Fe  Fe2  1  0.50656200  0.00870300  0.73095100  1
  H  H1  1  0.20075800  0.92292400  0.74354700  1
  H  H2  1  0.07489700  0.90901200  0.83956300  1
  H  H3  1  0.94055600  0.05211300  0.86811300  1
  H  H4  1  0.78440600  0.05531500  0.79566600  1
  H  H5  1  0.28408600  0.95777500  0.16859400  1
  H  H6  1  0.15625300  0.94584300  0.26290900  1
  H  H7  1  0.99800400  0.94289500  0.27750200  1
  H  H8  1  0.83947300  0.95049600  0.21034700  1
  H  H9  1  0.43079700  0.10574200  0.44639900  1
  H  H10  1  0.17696000  0.30084400  0.28643100  1
  H  H11  1  0.18892100  0.33417600  0.60436500  1
  H  H12  1  0.95356400  0.62929700  0.34464600  1
  H  H13  1  0.83110500  0.49661100  0.52790100  1
  H  H14  1  0.76459800  0.65840500  0.27903300  1
  H  H15  1  0.55010700  0.89803700  0.44943300  1
  H  H16  1  0.79430200  0.67772800  0.59590100  1
  H  H17  1  0.26443300  0.49840700  0.19563700  1
  H  H18  1  0.23931700  0.60204300  0.27976900  1
  H  H19  1  0.12599800  0.59889400  0.08101200  1
  H  H20  1  0.22357600  0.64224900  0.10315100  1
  H  H21  1  0.10124900  0.70225900  0.16489000  1
  H  H22  1  0.97733500  0.16747200  0.54813200  1
  H  H23  1  0.07970600  0.16812200  0.63217500  1
  H  H24  1  0.10665200  0.07076500  0.42216500  1
  H  H25  1  0.13180900  0.01244000  0.53843700  1
  H  H26  1  0.20885100  0.07152200  0.50584600  1
  C  C1  1  0.27650800  0.96317700  0.86714000  1
  C  C2  1  0.20259900  0.93780600  0.82304700  1
  C  C3  1  0.12724100  0.93333500  0.87821200  1
  C  C4  1  0.89997300  0.02293200  0.90935500  1
  C  C5  1  0.28194700  0.97129400  0.97112600  1
  C  C6  1  0.20640300  0.96345400  0.02645500  1
  C  C7  1  0.12100500  0.95680600  0.97975500  1
  C  C8  1  0.03765200  0.96427600  0.03726400  1
  C  C9  1  0.80744500  0.02987600  0.86953800  1
  C  C10  1  0.74740500  0.00065300  0.92086300  1
  C  C11  1  0.93772700  0.98154800  0.99955300  1
  C  C12  1  0.86823500  0.96876400  0.05879300  1
  C  C13  1  0.77310800  0.97672800  0.01868700  1
  C  C14  1  0.21656900  0.96066400  0.12886400  1
  C  C15  1  0.14391800  0.95224300  0.18342600  1
  C  C16  1  0.05482200  0.95541600  0.13889900  1
  C  C17  1  0.98298000  0.95050200  0.19839000  1
  C  C18  1  0.89220700  0.95395400  0.15882200  1
  C  C19  1  0.69576700  0.96675500  0.07890900  1
  C  C20  1  0.60272800  0.83261200  0.26336100  1
  C  C21  1  0.35807700  0.99925300  0.02335300  1
  C  C22  1  0.35106300  0.13542300  0.27240000  1
  C  C23  1  0.64109600  0.85380900  0.62187600  1
  C  C24  1  0.65943000  0.99234900  0.86916000  1
  C  C25  1  0.36417800  0.16942900  0.62875200  1
  C  C26  1  0.34886900  0.97486900  0.80089100  1
  C  C27  1  0.31241200  0.20201300  0.35843800  1
  C  C28  1  0.21824200  0.28025400  0.35650700  1
  C  C29  1  0.17469900  0.32975400  0.44483700  1
  C  C30  1  0.22426600  0.29760300  0.53528800  1
  C  C31  1  0.31656500  0.21647800  0.53676500  1
  C  C32  1  0.36092800  0.17128000  0.44789300  1
  C  C33  1  0.06020700  0.49173800  0.38954900  1
  C  C34  1  0.96394800  0.56757400  0.38351200  1
  C  C35  1  0.88275800  0.56984300  0.43474100  1
  C  C36  1  0.89621000  0.49423200  0.48939000  1
  C  C37  1  0.98935200  0.41400900  0.49016100  1
  C  C38  1  0.07357400  0.41299700  0.44197800  1
  C  C39  1  0.73416100  0.69419700  0.34997400  1
  C  C40  1  0.64843800  0.78117600  0.35356600  1
  C  C41  1  0.61384300  0.82798600  0.44496900  1
  C  C42  1  0.66485400  0.79053000  0.53190800  1
  C  C43  1  0.75045800  0.70418500  0.52829100  1
  C  C44  1  0.78505200  0.65566100  0.43755500  1
  C  C45  1  0.14623100  0.50068700  0.34378100  1
  C  C46  1  0.20463500  0.56824800  0.22362400  1
  C  C47  1  0.16093300  0.63219100  0.13740700  1
  C  C48  1  0.99351600  0.33168900  0.54066500  1
  C  C49  1  0.05528100  0.16557900  0.55294300  1
  C  C50  1  0.13071300  0.07395900  0.50136400  1
  O  O1  1  0.59808600  0.02865700  0.07211300  1
  O  O2  1  0.61774800  0.78841900  0.17474700  1
  O  O3  1  0.72273000  0.89357000  0.13387300  1
  O  O4  1  0.55579800  0.92596100  0.27424100  1
  O  O5  1  0.43630100  0.93825100  0.07480400  1
  O  O6  1  0.33976800  0.08941300  0.02914000  1
  O  O7  1  0.41978000  0.14000900  0.21521100  1
  O  O8  1  0.34749800  0.05344400  0.27617600  1
  O  O9  1  0.55429700  0.87656300  0.66734000  1
  O  O10  1  0.68615700  0.91102700  0.63461000  1
  O  O11  1  0.60911600  0.04974900  0.79887700  1
  O  O12  1  0.63898100  0.92017900  0.88382000  1
  O  O13  1  0.34430700  0.95539400  0.70480200  1
  O  O14  1  0.45528100  0.09683700  0.62154100  1
  O  O15  1  0.41553400  0.00698400  0.83526400  1
  O  O16  1  0.31150400  0.18854900  0.71060200  1
  O  O17  1  0.23315800  0.46430300  0.37983200  1
  O  O18  1  0.12706200  0.55570400  0.26568600  1
  O  O19  1  0.93601700  0.34512000  0.60940800  1
  O  O20  1  0.05412000  0.24173200  0.50733500  1
