# generated using pymatgen
data_FeH11C14NO4
_symmetry_space_group_name_H-M   'P 1'
_cell_length_a   6.75866800
_cell_length_b   9.02221900
_cell_length_c   16.12534400
_cell_angle_alpha   96.08952900
_cell_angle_beta   98.64041900
_cell_angle_gamma   90.07604400
_symmetry_Int_Tables_number   1
_chemical_formula_structural   FeH11C14NO4
_chemical_formula_sum   'Fe2 H22 C28 N2 O8'
_cell_volume   966.49993208
_cell_formula_units_Z   2
loop_
 _symmetry_equiv_pos_site_id
 _symmetry_equiv_pos_as_xyz
  1  'x, y, z'
loop_
 _atom_site_type_symbol
 _atom_site_label
 _atom_site_symmetry_multiplicity
 _atom_site_fract_x
 _atom_site_fract_y
 _atom_site_fract_z
 _atom_site_occupancy
  Fe  Fe1  1  0.00765200  0.83803800  0.99890200  1
  Fe  Fe2  1  0.98993200  0.16047800  0.00079400  1
  H  H1  1  0.31124200  0.58800400  0.01051600  1
  H  H2  1  0.19319900  0.62466200  0.90618000  1
  H  H3  1  0.04085000  0.38951400  0.87643800  1
  H  H4  1  0.26534900  0.34480100  0.94513300  1
  H  H5  1  0.13642500  0.66611100  0.12859200  1
  H  H6  1  0.24522500  0.42628800  0.09288900  1
  H  H7  1  0.69463300  0.64035700  0.96625200  1
  H  H8  1  0.83570500  0.56771800  0.88422500  1
  H  H9  1  0.72036200  0.34531800  0.92282300  1
  H  H10  1  0.72132900  0.42135000  0.03165100  1
  H  H11  1  0.87435900  0.61055800  0.10663300  1
  H  H12  1  0.01684600  0.38198000  0.13214800  1
  H  H13  1  0.04224400  0.99957000  0.73160100  1
  H  H14  1  0.52943000  0.94532900  0.59137200  1
  H  H15  1  0.75878300  0.93708000  0.72276600  1
  H  H16  1  0.46818900  0.05313300  0.40834100  1
  H  H17  1  0.23880900  0.06138300  0.27695600  1
  H  H18  1  0.95534100  0.99895200  0.26809200  1
  H  H19  1  0.32987400  0.89117800  0.49246500  1
  H  H20  1  0.10101200  0.91185300  0.36350000  1
  H  H21  1  0.66775200  0.10735100  0.50723400  1
  H  H22  1  0.89661000  0.08668300  0.63619600  1
  C  C1  1  0.24377500  0.98788300  0.88085100  1
  C  C2  1  0.32092600  0.02033000  0.12140800  1
  C  C3  1  0.67662500  0.97816200  0.87831300  1
  C  C4  1  0.75376900  0.01066000  0.11884700  1
  C  C5  1  0.17258200  0.57307500  0.96380100  1
  C  C6  1  0.12448300  0.40830500  0.94140500  1
  C  C7  1  0.02189500  0.59673400  0.08482800  1
  C  C8  1  0.82573900  0.57352900  0.95251300  1
  C  C9  1  0.07980400  0.43431700  0.08240200  1
  C  C10  1  0.80342700  0.41742300  0.97687900  1
  C  C11  1  0.32883200  0.97876000  0.80277300  1
  C  C12  1  0.19950400  0.98649500  0.72863100  1
  C  C13  1  0.26886000  0.97480500  0.65201500  1
  C  C14  1  0.47036300  0.95303100  0.65021500  1
  C  C15  1  0.60040200  0.94823900  0.72449600  1
  C  C16  1  0.53099900  0.96287200  0.80112200  1
  C  C17  1  0.18557200  0.94017000  0.49640400  1
  C  C18  1  0.05530100  0.95232800  0.42297200  1
  C  C19  1  0.86770400  0.01167400  0.42590200  1
  C  C20  1  0.81205300  0.05835600  0.50329500  1
  C  C21  1  0.94232400  0.04620100  0.57672600  1
  C  C22  1  0.12991700  0.98684700  0.57379800  1
  C  C23  1  0.52724300  0.04544900  0.34949500  1
  C  C24  1  0.39718700  0.05023800  0.27522000  1
  C  C25  1  0.46657300  0.03564100  0.19859100  1
  C  C26  1  0.66873300  0.01973500  0.19692900  1
  C  C27  1  0.79808300  0.01201900  0.27106800  1
  C  C28  1  0.72874600  0.02370200  0.34768700  1
  N  N1  1  0.00794500  0.64227700  0.00048400  1
  N  N2  1  0.00130900  0.35892600  0.00005900  1
  O  O1  1  0.16643000  0.11422000  0.90675800  1
  O  O2  1  0.20252400  0.86432400  0.91155800  1
  O  O3  1  0.24998700  0.88672300  0.09111000  1
  O  O4  1  0.23647700  0.13973400  0.09314900  1
  O  O5  1  0.74728800  0.11174800  0.90874000  1
  O  O6  1  0.76139700  0.85881300  0.90644200  1
  O  O7  1  0.83066700  0.88420600  0.09278900  1
  O  O8  1  0.79544900  0.13429000  0.08829400  1
