# generated using pymatgen
data_FeH6C23N2O13
_symmetry_space_group_name_H-M   'P 1'
_cell_length_a   15.91885000
_cell_length_b   9.40491800
_cell_length_c   19.94077300
_cell_angle_alpha   93.64682300
_cell_angle_beta   101.09008100
_cell_angle_gamma   97.07633500
_symmetry_Int_Tables_number   1
_chemical_formula_structural   FeH6C23N2O13
_chemical_formula_sum   'Fe2 H12 C46 N4 O26'
_cell_volume   2895.67031738
_cell_formula_units_Z   2
loop_
 _symmetry_equiv_pos_site_id
 _symmetry_equiv_pos_as_xyz
  1  'x, y, z'
loop_
 _atom_site_type_symbol
 _atom_site_label
 _atom_site_symmetry_multiplicity
 _atom_site_fract_x
 _atom_site_fract_y
 _atom_site_fract_z
 _atom_site_occupancy
  Fe  Fe1  1  0.48703700  0.02670400  0.85642100  1
  Fe  Fe2  1  0.49261200  0.97304300  0.14175000  1
  H  H1  1  0.49308700  0.28557800  0.63908500  1
  H  H2  1  0.54691400  0.73015000  0.36836700  1
  H  H3  1  0.16134900  0.01029900  0.78010400  1
  H  H4  1  0.52180200  0.58589300  0.12391200  1
  H  H5  1  0.59041400  0.23454700  0.39776600  1
  H  H6  1  0.98167000  0.96138700  0.85783100  1
  H  H7  1  0.21551200  0.93322800  0.12879000  1
  H  H8  1  0.78434700  0.22872800  0.92556600  1
  H  H9  1  0.78198100  0.68780900  0.15135700  1
  H  H10  1  0.97272200  0.78759700  0.08679300  1
  H  H11  1  0.48580400  0.42001500  0.88019600  1
  H  H12  1  0.50977900  0.80736100  0.61143800  1
  C  C1  1  0.19916500  0.05719800  0.89354000  1
  C  C2  1  0.11781700  0.03816300  0.90973900  1
  C  C3  1  0.10961900  0.02298400  0.97675800  1
  C  C4  1  0.18222800  0.02408500  0.02808900  1
  C  C5  1  0.26398300  0.04187700  0.01195900  1
  C  C6  1  0.27218100  0.05904800  0.94479800  1
  C  C7  1  0.02443000  0.00432100  0.99216200  1
  C  C8  1  0.95278600  0.98875100  0.00460400  1
  C  C9  1  0.80139700  0.03343200  0.98104800  1
  C  C10  1  0.71756400  0.00645900  0.99272500  1
  C  C11  1  0.70355900  0.93453600  0.04951800  1
  C  C12  1  0.77008100  0.87379100  0.08825100  1
  C  C13  1  0.85106000  0.88700900  0.07108300  1
  C  C14  1  0.86676200  0.96831900  0.01834400  1
  C  C15  1  0.47490100  0.23821900  0.76447300  1
  C  C16  1  0.35763200  0.07176300  0.92692900  1
  C  C17  1  0.64441600  0.03392400  0.93881500  1
  C  C18  1  0.52047700  0.77019600  0.80012200  1
  C  C19  1  0.52105400  0.24603500  0.20830400  1
  C  C20  1  0.34139800  0.04100300  0.06581300  1
  C  C21  1  0.61920600  0.92050700  0.06941900  1
  C  C22  1  0.52356100  0.77350400  0.23705800  1
  C  C23  1  0.51338100  0.63761500  0.75419800  1
  C  C24  1  0.52494800  0.64326200  0.68674100  1
  C  C25  1  0.51496900  0.51591100  0.64419700  1
  C  C26  1  0.49784400  0.38527800  0.67052200  1
  C  C27  1  0.49025500  0.37890500  0.73782000  1
  C  C28  1  0.49369100  0.50461000  0.77889600  1
  C  C29  1  0.53472500  0.50108800  0.43905600  1
  C  C30  1  0.52288600  0.51281000  0.57160600  1
  C  C31  1  0.53893500  0.63035100  0.33635800  1
  C  C32  1  0.52384000  0.63357100  0.26614500  1
  C  C33  1  0.50866000  0.50543400  0.22434100  1
  C  C34  1  0.51557600  0.37498800  0.25318500  1
  C  C35  1  0.52563900  0.37261900  0.32415800  1
  C  C36  1  0.53487600  0.50076800  0.36530900  1
  C  C37  1  0.20761500  0.07239300  0.82193400  1
  C  C38  1  0.48616800  0.50837500  0.14945400  1
  C  C39  1  0.53470200  0.23881500  0.35733100  1
  C  C40  1  0.03909300  0.03554100  0.85677800  1
  C  C41  1  0.17202100  0.99525100  0.09816800  1
  C  C42  1  0.82166200  0.13997400  0.93309900  1
  C  C43  1  0.75276300  0.78527800  0.14380800  1
  C  C44  1  0.92344600  0.82538300  0.11133000  1
  C  C45  1  0.46387500  0.49548500  0.84425300  1
  C  C46  1  0.54538200  0.78320400  0.66045500  1
  N  N1  1  0.48001800  0.40150800  0.52759500  1
  N  N2  1  0.48541400  0.39616700  0.46223100  1
  N  N3  1  0.57805200  0.61227100  0.48301900  1
  N  N4  1  0.57289700  0.61721600  0.54854900  1
  O  O1  1  0.52394100  0.21230100  0.82207600  1
  O  O2  1  0.41871400  0.17555200  0.95682000  1
  O  O3  1  0.41485600  0.13770200  0.73001600  1
  O  O4  1  0.37158400  0.98065500  0.87903000  1
  O  O5  1  0.56444400  0.01964200  0.94800300  1
  O  O6  1  0.65617000  0.04439700  0.87584200  1
  O  O7  1  0.49169700  0.88704800  0.77725000  1
  O  O8  1  0.54994100  0.76833000  0.86610200  1
  O  O9  1  0.49342900  0.11533900  0.22143700  1
  O  O10  1  0.55354400  0.26200900  0.15319000  1
  O  O11  1  0.40416400  0.96930200  0.05480500  1
  O  O12  1  0.34671400  0.10834000  0.12642700  1
  O  O13  1  0.58115500  0.88281700  0.26614800  1
  O  O14  1  0.60112700  0.02505800  0.10887400  1
  O  O15  1  0.46717300  0.78864500  0.18133200  1
  O  O16  1  0.56781000  0.79766700  0.05628700  1
  O  O17  1  0.26397100  0.15959400  0.80852900  1
  O  O18  1  0.42600800  0.42488500  0.11558900  1
  O  O19  1  0.47456400  0.14116900  0.34754900  1
  O  O20  1  0.03608800  0.12040400  0.81288600  1
  O  O21  1  0.11606600  0.04274100  0.12337900  1
  O  O22  1  0.87823100  0.12956400  0.90042800  1
  O  O23  1  0.70870200  0.82262100  0.18365800  1
  O  O24  1  0.93213500  0.82400500  0.17338800  1
  O  O25  1  0.40989600  0.56876200  0.85717800  1
  O  O26  1  0.60457400  0.87123800  0.69232600  1
