# generated using pymatgen
data_Fe2H15C43NO17
_symmetry_space_group_name_H-M   'P 1'
_cell_length_a   16.02338000
_cell_length_b   14.09369400
_cell_length_c   11.13916800
_cell_angle_alpha   84.89600200
_cell_angle_beta   97.18387100
_cell_angle_gamma   86.83100700
_symmetry_Int_Tables_number   1
_chemical_formula_structural   Fe2H15C43NO17
_chemical_formula_sum   'Fe2 H15 C43 N1 O17'
_cell_volume   2480.28051427
_cell_formula_units_Z   1
loop_
 _symmetry_equiv_pos_site_id
 _symmetry_equiv_pos_as_xyz
  1  'x, y, z'
loop_
 _atom_site_type_symbol
 _atom_site_label
 _atom_site_symmetry_multiplicity
 _atom_site_fract_x
 _atom_site_fract_y
 _atom_site_fract_z
 _atom_site_occupancy
  Fe  Fe1  1  0.49200400  0.99690200  0.73489200  1
  Fe  Fe2  1  0.49916600  0.99735700  0.26416000  1
  H  H1  1  0.22852800  0.03069200  0.72517400  1
  H  H2  1  0.08421800  0.01640600  0.76870400  1
  H  H3  1  0.16687800  0.01095600  0.14714700  1
  H  H4  1  0.81959300  0.98216600  0.84148100  1
  H  H5  1  0.91597200  0.98160600  0.21325800  1
  H  H6  1  0.67907300  0.55274000  0.37096800  1
  H  H7  1  0.67525500  0.40824600  0.38008200  1
  H  H8  1  0.64397800  0.25474800  0.33272800  1
  H  H9  1  0.33423300  0.57312700  0.65824300  1
  H  H10  1  0.30182800  0.44622600  0.59449600  1
  H  H11  1  0.36348700  0.72817300  0.69865300  1
  H  H12  1  0.67879100  0.71845400  0.36285600  1
  H  H13  1  0.30130600  0.27887800  0.61062200  1
  H  H14  1  0.74939800  0.03931800  0.44849300  1
  H  H15  1  0.77518400  0.11040100  0.33049100  1
  C  C1  1  0.21562700  0.02726600  0.81834000  1
  C  C2  1  0.13449200  0.01946400  0.84235000  1
  C  C3  1  0.11732800  0.01413000  0.96007200  1
  C  C4  1  0.18179200  0.01722700  0.05492900  1
  C  C5  1  0.26471800  0.02462400  0.03189500  1
  C  C6  1  0.28059400  0.03071100  0.91114500  1
  C  C7  1  0.03190100  0.00234000  0.98153600  1
  C  C8  1  0.95986500  0.99231500  0.99794800  1
  C  C9  1  0.80802100  0.97770700  0.93525000  1
  C  C10  1  0.72649400  0.97138800  0.96515200  1
  C  C11  1  0.71447400  0.96841600  0.08799000  1
  C  C12  1  0.78347700  0.97334400  0.17612200  1
  C  C13  1  0.86288000  0.97795000  0.14403900  1
  C  C14  1  0.87552000  0.98126500  0.02488800  1
  C  C15  1  0.42727500  0.15626000  0.58735700  1
  C  C16  1  0.36454900  0.03431300  0.87464500  1
  C  C17  1  0.65557200  0.97341900  0.86504900  1
  C  C18  1  0.49515300  0.81803400  0.66443600  1
  C  C19  1  0.50365000  0.17383400  0.34244700  1
  C  C20  1  0.33370100  0.01952800  0.13491400  1
  C  C21  1  0.63149000  0.95907300  0.12867000  1
  C  C22  1  0.56194500  0.83792500  0.41365900  1
  C  C23  1  0.63291800  0.68357200  0.41152000  1
  C  C24  1  0.57303200  0.73670300  0.45866400  1
  C  C25  1  0.51456600  0.69060000  0.52066100  1
  C  C26  1  0.46679500  0.73794100  0.59638400  1
  C  C27  1  0.40130400  0.69303300  0.63965200  1
  C  C28  1  0.63090500  0.58652300  0.41440500  1
  C  C29  1  0.56538400  0.53960000  0.45945200  1
  C  C30  1  0.50605200  0.59295900  0.51116200  1
  C  C31  1  0.43858200  0.54896400  0.55413300  1
  C  C32  1  0.61734400  0.38419500  0.40683800  1
  C  C33  1  0.55777400  0.44129000  0.45311500  1
  C  C34  1  0.48843800  0.39846600  0.49189600  1
  C  C35  1  0.60171200  0.29287100  0.38296700  1
  C  C36  1  0.53142600  0.25142000  0.41523700  1
  C  C37  1  0.38506000  0.60197500  0.61561200  1
  C  C38  1  0.42745600  0.45262000  0.53883800  1
  C  C39  1  0.35593000  0.40876200  0.56843800  1
  C  C40  1  0.47959900  0.30100700  0.48306000  1
  C  C41  1  0.41707800  0.25668400  0.53780800  1
  C  C42  1  0.35255500  0.31168700  0.57203400  1
  C  C43  1  0.77627300  0.97107400  0.30609800  1
  N  N1  1  0.74062800  0.05243700  0.35388200  1
  O  O1  1  0.50219500  0.11921700  0.63762800  1
  O  O2  1  0.40820900  0.10949300  0.88951600  1
  O  O3  1  0.36026900  0.10949300  0.60246000  1
  O  O4  1  0.38853200  0.96878400  0.80765500  1
  O  O5  1  0.57711100  0.99139100  0.88425400  1
  O  O6  1  0.67147400  0.96314800  0.75402500  1
  O  O7  1  0.50348500  0.90335000  0.61135100  1
  O  O8  1  0.49261500  0.80936000  0.78215000  1
  O  O9  1  0.48994500  0.08860900  0.39108500  1
  O  O10  1  0.50966500  0.18497700  0.22575700  1
  O  O11  1  0.41275800  0.00651500  0.11588500  1
  O  O12  1  0.31600100  0.02330500  0.24634200  1
  O  O13  1  0.62853100  0.88657000  0.40507300  1
  O  O14  1  0.60215300  0.02571900  0.19007600  1
  O  O15  1  0.48808100  0.87379000  0.35834800  1
  O  O16  1  0.59112200  0.88149600  0.11419000  1
  O  O17  1  0.81211400  0.90553800  0.37570500  1
