# generated using pymatgen
data_ZnH20C31(NO3)2
_symmetry_space_group_name_H-M   'P 1'
_cell_length_a   11.07083300
_cell_length_b   9.87739300
_cell_length_c   23.44044000
_cell_angle_alpha   90.00000000
_cell_angle_beta   90.00918900
_cell_angle_gamma   90.00000000
_symmetry_Int_Tables_number   1
_chemical_formula_structural   ZnH20C31(NO3)2
_chemical_formula_sum   'Zn2 H40 C62 N4 O12'
_cell_volume   2563.23478025
_cell_formula_units_Z   2
loop_
 _symmetry_equiv_pos_site_id
 _symmetry_equiv_pos_as_xyz
  1  'x, y, z'
loop_
 _atom_site_type_symbol
 _atom_site_label
 _atom_site_symmetry_multiplicity
 _atom_site_fract_x
 _atom_site_fract_y
 _atom_site_fract_z
 _atom_site_occupancy
  Zn  Zn1  1  0.50904200  0.65186600  0.50021000  1
  Zn  Zn2  1  0.50070900  0.34415400  0.50070700  1
  H  H1  1  0.24464200  0.34996700  0.94269700  1
  H  H2  1  0.77053300  0.64801300  0.05828100  1
  H  H3  1  0.50436100  0.71065100  0.21480600  1
  H  H4  1  0.52282300  0.71630400  0.78612300  1
  H  H5  1  0.50385500  0.71170900  0.31854400  1
  H  H6  1  0.52138200  0.71757100  0.68235300  1
  H  H7  1  0.49277400  0.27817300  0.31862300  1
  H  H8  1  0.50524500  0.28417000  0.68221300  1
  H  H9  1  0.49474000  0.27899200  0.21484100  1
  H  H10  1  0.50834800  0.28478000  0.78592300  1
  H  H11  1  0.11528500  0.09109500  0.59029300  1
  H  H12  1  0.89485600  0.90483100  0.41029100  1
  H  H13  1  0.92455400  0.04144800  0.54147200  1
  H  H14  1  0.08544600  0.95456100  0.45925800  1
  H  H15  1  0.19018700  0.78101600  0.50995000  1
  H  H16  1  0.81950200  0.21499000  0.49099700  1
  H  H17  1  0.80343600  0.68470100  0.41983900  1
  H  H18  1  0.20613600  0.31162800  0.58111300  1
  H  H19  1  0.77867200  0.12529900  0.64285400  1
  H  H20  1  0.23121000  0.87076600  0.35800300  1
  H  H21  1  0.22275600  0.11823100  0.36049700  1
  H  H22  1  0.78662900  0.87781500  0.64061600  1
  H  H23  1  0.33615100  0.23890000  0.42879500  1
  H  H24  1  0.67341500  0.75713800  0.57228400  1
  H  H25  1  0.65948200  0.24340100  0.57643200  1
  H  H26  1  0.35040600  0.75261300  0.42446400  1
  H  H27  1  0.96015000  0.28472300  0.06870900  1
  H  H28  1  0.03249000  0.31745200  0.13671300  1
  H  H29  1  0.93258300  0.44227400  0.10577800  1
  H  H30  1  0.14734000  0.50740500  0.09320300  1
  H  H31  1  0.07402700  0.47755900  0.02599000  1
  H  H32  1  0.15816100  0.25616000  0.01668000  1
  H  H33  1  0.21989700  0.25081600  0.08530800  1
  H  H34  1  0.97091600  0.88649100  0.93249600  1
  H  H35  1  0.91906800  0.82330200  0.86413900  1
  H  H36  1  0.87137500  0.98821600  0.88882700  1
  H  H37  1  0.70787400  0.82071300  0.90098300  1
  H  H38  1  0.76010800  0.88258700  0.96871200  1
  H  H39  1  0.88436500  0.68770300  0.98476600  1
  H  H40  1  0.85981900  0.61655100  0.91744300  1
  C  C1  1  0.26639700  0.50379500  0.50606300  1
  C  C2  1  0.74333900  0.49226000  0.49484600  1
  C  C3  1  0.49925400  0.49497500  0.38872700  1
  C  C4  1  0.51065900  0.50103000  0.61217500  1
  C  C5  1  0.60966800  0.55184100  0.88239900  1
  C  C6  1  0.40693200  0.44294600  0.11839600  1
  C  C7  1  0.41941100  0.44805600  0.88114600  1
  C  C8  1  0.59688900  0.54736800  0.11978000  1
  C  C9  1  0.41668400  0.44575800  0.93988900  1
  C  C10  1  0.59997400  0.54925100  0.06099500  1
  C  C11  1  0.51111800  0.49887700  0.97084100  1
  C  C12  1  0.50558100  0.49615000  0.03000900  1
  C  C13  1  0.60995600  0.55454100  0.94228600  1
  C  C14  1  0.40653100  0.44092200  0.05853000  1
  C  C15  1  0.31855600  0.39051100  0.96738600  1
  C  C16  1  0.69802800  0.60478000  0.03348000  1
  C  C17  1  0.31156500  0.38625000  0.02604000  1
  C  C18  1  0.70492300  0.60943600  0.97476600  1
  C  C19  1  0.50250200  0.61554900  0.23762100  1
  C  C20  1  0.52023500  0.62127000  0.76326400  1
  C  C21  1  0.50165800  0.61578800  0.29641600  1
  C  C22  1  0.51881900  0.62162700  0.70446300  1
  C  C23  1  0.49817500  0.49495100  0.32618400  1
  C  C24  1  0.51327800  0.50089400  0.67468400  1
  C  C25  1  0.49504700  0.37404500  0.29645200  1
  C  C26  1  0.50954800  0.37996600  0.70437600  1
  C  C27  1  0.49577600  0.37413200  0.23764900  1
  C  C28  1  0.51082300  0.37994600  0.76316100  1
  C  C29  1  0.49972400  0.49481500  0.20803200  1
  C  C30  1  0.51600200  0.50050200  0.79281800  1
  C  C31  1  0.10997100  0.75125500  0.48756500  1
  C  C32  1  0.89977400  0.24481800  0.51331700  1
  C  C33  1  0.88739400  0.70278600  0.44194900  1
  C  C34  1  0.12231800  0.29338800  0.55891500  1
  C  C35  1  0.04814100  0.85361600  0.46063600  1
  C  C36  1  0.96176900  0.14242000  0.54013400  1
  C  C37  1  0.94041800  0.82692200  0.43450100  1
  C  C38  1  0.06953300  0.16909600  0.56621800  1
  C  C39  1  0.94235500  0.60340000  0.47509800  1
  C  C40  1  0.06734700  0.39272600  0.52576000  1
  C  C41  1  0.06294400  0.62054300  0.49047800  1
  C  C42  1  0.94677400  0.37555400  0.51037800  1
  C  C43  1  0.87928900  0.48637000  0.49020600  1
  C  C44  1  0.13042200  0.50973200  0.51066100  1
  C  C45  1  0.34993800  0.13290400  0.42834900  1
  C  C46  1  0.65962100  0.86311200  0.57268300  1
  C  C47  1  0.65061000  0.13694500  0.57526300  1
  C  C48  1  0.35920000  0.85906500  0.42564100  1
  C  C49  1  0.28238500  0.06401700  0.38899300  1
  C  C50  1  0.72716900  0.93200900  0.61203500  1
  C  C51  1  0.72245300  0.06945600  0.61338400  1
  C  C52  1  0.28732900  0.92657200  0.38753300  1
  C  C53  1  0.43478700  0.92618100  0.46378000  1
  C  C54  1  0.57495300  0.06982400  0.53715200  1
  C  C55  1  0.58018400  0.92828800  0.53575000  1
  C  C56  1  0.42949100  0.06771300  0.46521500  1
  C  C57  1  0.19970100  0.32114100  0.04983500  1
  C  C58  1  0.10701800  0.42848900  0.06559100  1
  C  C59  1  0.00120400  0.36370200  0.09620000  1
  C  C60  1  0.81526100  0.67785800  0.95085300  1
  C  C61  1  0.78497900  0.82059300  0.93104800  1
  C  C62  1  0.89390600  0.88355300  0.90225400  1
  N  N1  1  0.51489800  0.50033100  0.85366000  1
  N  N2  1  0.50142700  0.49480300  0.14719600  1
  N  N3  1  0.51041900  0.85568700  0.49897600  1
  N  N4  1  0.49932400  0.14032800  0.50195300  1
  O  O1  1  0.32887100  0.61631000  0.50359900  1
  O  O2  1  0.68088200  0.37971200  0.49729600  1
  O  O3  1  0.68870000  0.61107700  0.49776300  1
  O  O4  1  0.32105400  0.38497800  0.50317600  1
  O  O5  1  0.50491600  0.61114200  0.41547100  1
  O  O6  1  0.50493200  0.38488300  0.58544000  1
  O  O7  1  0.51389200  0.61717900  0.58538800  1
  O  O8  1  0.49587200  0.37883100  0.41552800  1
  O  O9  1  0.70403500  0.59617200  0.85179700  1
  O  O10  1  0.31303000  0.39725700  0.14895400  1
  O  O11  1  0.32561500  0.39990700  0.85091200  1
  O  O12  1  0.69040100  0.59584300  0.15011600  1
