# generated using pymatgen
data_ZnH13C25NO4
_symmetry_space_group_name_H-M   'P 1'
_cell_length_a   17.49703800
_cell_length_b   8.54058600
_cell_length_c   10.82091300
_cell_angle_alpha   90.00000000
_cell_angle_beta   97.68539100
_cell_angle_gamma   90.00000000
_symmetry_Int_Tables_number   1
_chemical_formula_structural   ZnH13C25NO4
_chemical_formula_sum   'Zn2 H26 C50 N2 O8'
_cell_volume   1602.49749730
_cell_formula_units_Z   2
loop_
 _symmetry_equiv_pos_site_id
 _symmetry_equiv_pos_as_xyz
  1  'x, y, z'
loop_
 _atom_site_type_symbol
 _atom_site_label
 _atom_site_symmetry_multiplicity
 _atom_site_fract_x
 _atom_site_fract_y
 _atom_site_fract_z
 _atom_site_occupancy
  Zn  Zn1  1  0.08478600  0.50668400  0.49552600  1
  Zn  Zn2  1  0.91491700  0.50594300  0.50317500  1
  H  H1  1  0.00348800  0.39370300  0.88662500  1
  H  H2  1  0.94622700  0.63683800  0.08279900  1
  H  H3  1  0.99778300  0.39292300  0.11450800  1
  H  H4  1  0.05315400  0.63794400  0.91399600  1
  H  H5  1  0.08141000  0.29087700  0.07430700  1
  H  H6  1  0.94971000  0.65323300  0.87979700  1
  H  H7  1  0.91954000  0.29235500  0.92625700  1
  H  H8  1  0.04962300  0.65273600  0.11702100  1
  H  H9  1  0.04307000  0.00933900  0.59273400  1
  H  H10  1  0.95645200  0.00637600  0.40585800  1
  H  H11  1  0.17715300  0.48241700  0.29848900  1
  H  H12  1  0.82265900  0.53853900  0.69957400  1
  H  H13  1  0.28720100  0.46354700  0.19004400  1
  H  H14  1  0.71269500  0.55823300  0.80862700  1
  H  H15  1  0.39602200  0.44295200  0.08416000  1
  H  H16  1  0.60286800  0.57638900  0.91734600  1
  H  H17  1  0.53319700  0.43234200  0.08121000  1
  H  H18  1  0.46490100  0.56902900  0.91828000  1
  H  H19  1  0.20375500  0.53425100  0.68531000  1
  H  H20  1  0.79558300  0.47919300  0.31295700  1
  H  H21  1  0.36766800  0.38470900  0.88880100  1
  H  H22  1  0.32902700  0.58270900  0.89891500  1
  H  H23  1  0.27202400  0.41953600  0.82949200  1
  H  H24  1  0.63634500  0.30167700  0.11498500  1
  H  H25  1  0.69078400  0.48357200  0.11413200  1
  H  H26  1  0.72718600  0.31036800  0.20060400  1
  C  C1  1  0.03445600  0.00815200  0.68966700  1
  C  C2  1  0.96515800  0.00601100  0.30896200  1
  C  C3  1  0.02348200  0.14732700  0.74866200  1
  C  C4  1  0.97527700  0.86577800  0.25085900  1
  C  C5  1  0.97708100  0.14551400  0.25111900  1
  C  C6  1  0.02357100  0.86759200  0.74674200  1
  C  C7  1  0.00655900  0.14451000  0.87053300  1
  C  C8  1  0.98766300  0.86361600  0.12727000  1
  C  C9  1  0.99393500  0.14352700  0.12917800  1
  C  C10  1  0.01151000  0.86454700  0.87049100  1
  C  C11  1  0.98329700  0.28910500  0.93236100  1
  C  C12  1  0.99691700  0.70891300  0.06821700  1
  C  C13  1  0.01764400  0.28839400  0.06819800  1
  C  C14  1  0.00233400  0.70943300  0.92886600  1
  C  C15  1  0.00606000  0.00355500  0.93391200  1
  C  C16  1  0.99381300  0.00310400  0.06483800  1
  C  C17  1  0.01634200  0.28862400  0.67079500  1
  C  C18  1  0.98305900  0.72421300  0.32816500  1
  C  C19  1  0.98423700  0.28635200  0.32965800  1
  C  C20  1  0.01578100  0.72645000  0.66882000  1
  C  C21  1  0.21495300  0.49185300  0.38573900  1
  C  C22  1  0.78483800  0.52248500  0.61302300  1
  C  C23  1  0.23075200  0.51625000  0.60282200  1
  C  C24  1  0.76894400  0.48409300  0.39704400  1
  C  C25  1  0.32479800  0.47340600  0.27748100  1
  C  C26  1  0.67507500  0.54108900  0.72199200  1
  C  C27  1  0.29387800  0.48918300  0.38713300  1
  C  C28  1  0.70593900  0.52113900  0.61236800  1
  C  C29  1  0.34193400  0.50020200  0.49844500  1
  C  C30  1  0.65797000  0.49798200  0.50213800  1
  C  C31  1  0.31038600  0.50906800  0.60819600  1
  C  C32  1  0.68952400  0.47430300  0.39351400  1
  C  C33  1  0.35890900  0.51138600  0.72088400  1
  C  C34  1  0.64164900  0.44167500  0.28328100  1
  C  C35  1  0.43407900  0.45037900  0.17020500  1
  C  C36  1  0.56547900  0.55678900  0.83088500  1
  C  C37  1  0.40365800  0.46809700  0.27951900  1
  C  C38  1  0.59622100  0.53798900  0.72125300  1
  C  C39  1  0.45200900  0.48184100  0.38999800  1
  C  C40  1  0.54803700  0.51718500  0.61092100  1
  C  C41  1  0.51249000  0.44195300  0.17011900  1
  C  C42  1  0.48689600  0.54986900  0.83115200  1
  C  C43  1  0.56201900  0.45285000  0.28091500  1
  C  C44  1  0.43803600  0.52619300  0.72101800  1
  C  C45  1  0.42099300  0.49853100  0.49981100  1
  C  C46  1  0.57905400  0.49689700  0.50122000  1
  C  C47  1  0.46899200  0.51502700  0.61056000  1
  C  C48  1  0.53110400  0.47763700  0.39056600  1
  C  C49  1  0.32938600  0.47549000  0.84115800  1
  C  C50  1  0.67567000  0.38349900  0.17149500  1
  N  N1  1  0.18479300  0.50726100  0.49300700  1
  N  N2  1  0.81491900  0.50487700  0.50579300  1
  O  O1  1  0.94656400  0.33849000  0.63083700  1
  O  O2  1  0.05313500  0.67469300  0.36820900  1
  O  O3  1  0.05390600  0.33726200  0.36919500  1
  O  O4  1  0.94584100  0.67584500  0.62920100  1
  O  O5  1  0.07808400  0.34328500  0.62824900  1
  O  O6  1  0.92142600  0.66908700  0.37032100  1
  O  O7  1  0.92243000  0.34083500  0.37203500  1
  O  O8  1  0.07745000  0.67146400  0.62685200  1
