# generated using pymatgen
data_Zn2H13C31N5O8
_symmetry_space_group_name_H-M   'P 1'
_cell_length_a   8.53401600
_cell_length_b   13.11622800
_cell_length_c   13.42278000
_cell_angle_alpha   90.60295300
_cell_angle_beta   89.99253300
_cell_angle_gamma   95.28785400
_symmetry_Int_Tables_number   1
_chemical_formula_structural   Zn2H13C31N5O8
_chemical_formula_sum   'Zn2 H13 C31 N5 O8'
_cell_volume   1495.98930962
_cell_formula_units_Z   1
loop_
 _symmetry_equiv_pos_site_id
 _symmetry_equiv_pos_as_xyz
  1  'x, y, z'
loop_
 _atom_site_type_symbol
 _atom_site_label
 _atom_site_symmetry_multiplicity
 _atom_site_fract_x
 _atom_site_fract_y
 _atom_site_fract_z
 _atom_site_occupancy
  Zn  Zn1  1  0.49918000  0.49672100  0.11004200  1
  Zn  Zn2  1  0.50100900  0.50083500  0.88758300  1
  H  H1  1  0.79201900  0.83762600  0.97964000  1
  H  H2  1  0.16460100  0.00840200  0.95084800  1
  H  H3  1  0.83546600  0.98896800  0.04552600  1
  H  H4  1  0.20812300  0.15964500  0.01688300  1
  H  H5  1  0.29576400  0.85065800  0.98097700  1
  H  H6  1  0.01977100  0.57140400  0.03478700  1
  H  H7  1  0.70433100  0.14668900  0.01555800  1
  H  H8  1  0.98046700  0.42631100  0.96357600  1
  H  H9  1  0.53045500  0.66227800  0.75327400  1
  H  H10  1  0.45507900  0.24792300  0.41384200  1
  H  H11  1  0.53144900  0.67106900  0.57622500  1
  H  H12  1  0.52933900  0.66859600  0.42373600  1
  H  H13  1  0.47321200  0.34105300  0.74268200  1
  C  C1  1  0.17162400  0.70359200  0.00398000  1
  C  C2  1  0.18183500  0.80819700  0.98902200  1
  C  C3  1  0.04550200  0.85877600  0.98833000  1
  C  C4  1  0.89997600  0.80238100  0.99051600  1
  C  C5  1  0.89182300  0.69850900  0.00524100  1
  C  C6  1  0.02699500  0.65151500  0.01840900  1
  C  C7  1  0.05755400  0.97112400  0.98185200  1
  C  C8  1  0.94249100  0.02625800  0.01450300  1
  C  C9  1  0.81826700  0.18921000  0.00778800  1
  C  C10  1  0.82845600  0.29391300  0.99345700  1
  C  C11  1  0.97320900  0.34609800  0.97948800  1
  C  C12  1  0.10844600  0.29897100  0.99220400  1
  C  C13  1  0.10019000  0.19499300  0.00628900  1
  C  C14  1  0.95461300  0.13862600  0.00828600  1
  C  C15  1  0.30712400  0.64271100  0.00133300  1
  C  C16  1  0.25766900  0.36240500  0.99517000  1
  C  C17  1  0.69274300  0.35470600  0.99611700  1
  C  C18  1  0.74282000  0.63496700  0.00228400  1
  C  C19  1  0.48609100  0.41336900  0.70429300  1
  C  C20  1  0.51788900  0.59188500  0.71023500  1
  C  C21  1  0.51816800  0.59590900  0.60779000  1
  C  C22  1  0.50176000  0.50605900  0.55131800  1
  C  C23  1  0.48576200  0.41429500  0.60140900  1
  C  C24  1  0.51591400  0.59303200  0.39160000  1
  C  C25  1  0.50074300  0.50460100  0.44722000  1
  C  C26  1  0.48399600  0.41168300  0.39674700  1
  C  C27  1  0.46841100  0.32185000  0.45060100  1
  C  C28  1  0.51457700  0.58794800  0.28951700  1
  C  C29  1  0.48306100  0.40918600  0.29291700  1
  C  C30  1  0.46598100  0.31321500  0.23973500  1
  C  C31  1  0.53124100  0.68260800  0.23634500  1
  N  N1  1  0.50196100  0.50156600  0.75697900  1
  N  N2  1  0.46956000  0.32495400  0.55075900  1
  N  N3  1  0.49839300  0.49695100  0.24088100  1
  N  N4  1  0.45222100  0.23590100  0.19689100  1
  N  N5  1  0.54469300  0.75899000  0.19348900  1
  O  O1  1  0.35087800  0.60791900  0.91451400  1
  O  O2  1  0.35477700  0.60724200  0.08596200  1
  O  O3  1  0.31230600  0.39485200  0.08255600  1
  O  O4  1  0.31825100  0.39513300  0.91030100  1
  O  O5  1  0.64907600  0.38942300  0.08325500  1
  O  O6  1  0.64493400  0.38993700  0.91115100  1
  O  O7  1  0.68806400  0.60246000  0.91521300  1
  O  O8  1  0.68225400  0.60205900  0.08682300  1
