# generated using pymatgen
data_Fe2H18C47N2O17
_symmetry_space_group_name_H-M   'P 1'
_cell_length_a   14.41839900
_cell_length_b   11.72361100
_cell_length_c   15.62865300
_cell_angle_alpha   90.72411500
_cell_angle_beta   91.87657400
_cell_angle_gamma   101.08383000
_symmetry_Int_Tables_number   1
_chemical_formula_structural   Fe2H18C47N2O17
_chemical_formula_sum   'Fe2 H18 C47 N2 O17'
_cell_volume   2590.64950333
_cell_formula_units_Z   1
loop_
 _symmetry_equiv_pos_site_id
 _symmetry_equiv_pos_as_xyz
  1  'x, y, z'
loop_
 _atom_site_type_symbol
 _atom_site_label
 _atom_site_symmetry_multiplicity
 _atom_site_fract_x
 _atom_site_fract_y
 _atom_site_fract_z
 _atom_site_occupancy
  Fe  Fe1  1  0.49949200  0.98509000  0.17839800  1
  Fe  Fe2  1  0.50587200  0.02514100  0.82389500  1
  H  H1  1  0.84677700  0.98974400  0.16649100  1
  H  H2  1  0.99457900  0.02215700  0.84691500  1
  H  H3  1  0.15337500  0.02634100  0.83782800  1
  H  H4  1  0.18854400  0.98946300  0.14872700  1
  H  H5  1  0.07942700  0.15681900  0.22179900  1
  H  H6  1  0.07406400  0.07901900  0.37509800  1
  H  H7  1  0.00010500  0.85269700  0.36776200  1
  H  H8  1  0.96061900  0.79612900  0.20250300  1
  H  H9  1  0.49588600  0.77545300  0.41056500  1
  H  H10  1  0.52549700  0.80503200  0.53875200  1
  H  H11  1  0.48493500  0.20624500  0.46331700  1
  H  H12  1  0.51307700  0.23542000  0.59170300  1
  H  H13  1  0.52479200  0.55367100  0.20336200  1
  H  H14  1  0.52500400  0.35859600  0.22240900  1
  H  H15  1  0.48453300  0.65261100  0.77956000  1
  H  H16  1  0.48445600  0.45766100  0.79870000  1
  H  H17  1  0.80897800  0.09630700  0.72023600  1
  H  H18  1  0.87374800  0.17441400  0.80061800  1
  C  C1  1  0.84250200  0.99362900  0.09776900  1
  C  C2  1  0.75509000  0.99466000  0.05861000  1
  C  C3  1  0.74839100  0.00155500  0.96969600  1
  C  C4  1  0.82883100  0.00837200  0.92242200  1
  C  C5  1  0.91600900  0.00601800  0.96261800  1
  C  C6  1  0.92287900  0.99716300  0.05061600  1
  C  C7  1  0.99662300  0.01307000  0.91550900  1
  C  C8  1  0.08286300  0.01057100  0.95530600  1
  C  C9  1  0.09034400  0.99974700  0.04267500  1
  C  C10  1  0.01012200  0.99309900  0.09091900  1
  C  C11  1  0.16168600  0.01905400  0.90633600  1
  C  C12  1  0.25000700  0.01909800  0.94358100  1
  C  C13  1  0.25807500  0.00869100  0.03212100  1
  C  C14  1  0.17840800  0.99666000  0.08045500  1
  C  C15  1  0.05009800  0.02791300  0.31774400  1
  C  C16  1  0.01174700  0.91048400  0.31417200  1
  C  C17  1  0.99130000  0.88119700  0.22889800  1
  C  C18  1  0.01797700  0.98214300  0.18408800  1
  C  C19  1  0.67338900  0.98994600  0.11446600  1
  C  C20  1  0.50752900  0.77080300  0.24357800  1
  C  C21  1  0.34967800  0.01951400  0.07799000  1
  C  C22  1  0.49813600  0.15737800  0.30231300  1
  C  C23  1  0.51083800  0.85366000  0.69971100  1
  C  C24  1  0.65692200  0.98995100  0.92320400  1
  C  C25  1  0.50062400  0.24022300  0.75869400  1
  C  C26  1  0.33079200  0.02595000  0.88686400  1
  C  C27  1  0.51147700  0.67506200  0.30279200  1
  C  C28  1  0.52003800  0.56788300  0.27136900  1
  C  C29  1  0.51781600  0.47619000  0.32584300  1
  C  C30  1  0.52016200  0.36873700  0.29084000  1
  C  C31  1  0.50753000  0.27295300  0.34157100  1
  C  C32  1  0.50578700  0.69119600  0.38992600  1
  C  C33  1  0.50859800  0.60055500  0.44686500  1
  C  C34  1  0.51079500  0.49081400  0.41347300  1
  C  C35  1  0.50470800  0.39520200  0.46638800  1
  C  C36  1  0.51198400  0.72579300  0.57381200  1
  C  C37  1  0.50547400  0.61603000  0.53572000  1
  C  C38  1  0.49928000  0.52041800  0.58862900  1
  C  C39  1  0.50246800  0.73828400  0.66044400  1
  C  C40  1  0.48971200  0.64251500  0.71116400  1
  C  C41  1  0.49829800  0.28548100  0.42825700  1
  C  C42  1  0.50135200  0.41062500  0.55526000  1
  C  C43  1  0.50357400  0.31987200  0.61226000  1
  C  C44  1  0.49209400  0.53508100  0.67622300  1
  C  C45  1  0.48945200  0.44340200  0.73072800  1
  C  C46  1  0.49760500  0.33607600  0.69938000  1
  C  C47  1  0.81893000  0.00917600  0.82869800  1
  N  N1  1  0.05372200  0.07088000  0.23826400  1
  N  N2  1  0.81175700  0.11415900  0.78598900  1
  O  O1  1  0.58788900  0.99158500  0.08360700  1
  O  O2  1  0.51410300  0.75421000  0.16098800  1
  O  O3  1  0.68635200  0.98548900  0.19776800  1
  O  O4  1  0.49778100  0.87342300  0.27260600  1
  O  O5  1  0.36832900  0.93580300  0.12694400  1
  O  O6  1  0.41240900  0.11632400  0.07324600  1
  O  O7  1  0.53978800  0.14508400  0.23028400  1
  O  O8  1  0.44215900  0.06835200  0.33512200  1
  O  O9  1  0.46832200  0.86508700  0.77139000  1
  O  O10  1  0.56626400  0.94336100  0.66716000  1
  O  O11  1  0.63563000  0.07601600  0.87814700  1
  O  O12  1  0.59622500  0.89106800  0.92508100  1
  O  O13  1  0.31776600  0.03704200  0.80413200  1
  O  O14  1  0.50890700  0.13705900  0.72971600  1
  O  O15  1  0.41500100  0.01662700  0.91686300  1
  O  O16  1  0.49431800  0.25714000  0.84128200  1
  O  O17  1  0.81946700  0.92068600  0.78699000  1
