# generated using pymatgen
data_ZnH8C14NO5
_symmetry_space_group_name_H-M   'P 1'
_cell_length_a   11.07382400
_cell_length_b   9.27202100
_cell_length_c   8.58241800
_cell_angle_alpha   90.00000000
_cell_angle_beta   102.43453000
_cell_angle_gamma   90.00000000
_symmetry_Int_Tables_number   1
_chemical_formula_structural   ZnH8C14NO5
_chemical_formula_sum   'Zn2 H16 C28 N2 O10'
_cell_volume   860.54367858
_cell_formula_units_Z   2
loop_
 _symmetry_equiv_pos_site_id
 _symmetry_equiv_pos_as_xyz
  1  'x, y, z'
loop_
 _atom_site_type_symbol
 _atom_site_label
 _atom_site_symmetry_multiplicity
 _atom_site_fract_x
 _atom_site_fract_y
 _atom_site_fract_z
 _atom_site_occupancy
  Zn  Zn1  1  0.50498700  0.83289400  0.50591900  1
  Zn  Zn2  1  0.51160500  0.15242900  0.50927800  1
  H  H1  1  0.42350600  0.03016300  0.99189300  1
  H  H2  1  0.09313400  0.97836400  0.64300400  1
  H  H3  1  0.59607500  0.94170100  0.02433100  1
  H  H4  1  0.92334600  0.02252500  0.37021700  1
  H  H5  1  0.11777200  0.02676900  0.28635800  1
  H  H6  1  0.89952200  0.98543900  0.72474800  1
  H  H7  1  0.69538300  0.63025800  0.53848500  1
  H  H8  1  0.70166900  0.36611400  0.54308900  1
  H  H9  1  0.26653600  0.74630700  0.45484800  1
  H  H10  1  0.27117400  0.22937900  0.44948700  1
  H  H11  1  0.07918200  0.66261100  0.24914000  1
  H  H12  1  0.05264300  0.81736300  0.36613700  1
  H  H13  1  0.92907000  0.69220700  0.29562600  1
  H  H14  1  0.96452600  0.26193000  0.23796100  1
  H  H15  1  0.06810000  0.40674900  0.22214200  1
  H  H16  1  0.92820500  0.44012000  0.29574100  1
  C  C1  1  0.26343700  0.00259600  0.08217800  1
  C  C2  1  0.32632800  0.01209200  0.96200900  1
  C  C3  1  0.26788800  0.99771400  0.80550300  1
  C  C4  1  0.14065600  0.98739300  0.76658600  1
  C  C5  1  0.07447600  0.99445600  0.88661800  1
  C  C6  1  0.13584300  0.00197500  0.04505200  1
  C  C7  1  0.94693200  0.99289100  0.84843500  1
  C  C8  1  0.88090900  0.99520500  0.96807500  1
  C  C9  1  0.94223100  0.00433600  0.12645700  1
  C  C10  1  0.06972200  0.01248700  0.16376700  1
  C  C11  1  0.75376000  0.98419800  0.93191500  1
  C  C12  1  0.69198000  0.96782500  0.05345500  1
  C  C13  1  0.74970700  0.98831400  0.21020900  1
  C  C14  1  0.87613400  0.00805600  0.24718900  1
  C  C15  1  0.67950400  0.98879700  0.76879800  1
  C  C16  1  0.34489100  0.99426800  0.68687900  1
  C  C17  1  0.33776200  0.99699100  0.24465800  1
  C  C18  1  0.67318100  0.99128400  0.33087300  1
  C  C19  1  0.28048000  0.63387100  0.47137400  1
  C  C20  1  0.28502200  0.34156000  0.46595800  1
  C  C21  1  0.17426900  0.55783300  0.47130900  1
  C  C22  1  0.17625100  0.41205300  0.46340100  1
  C  C23  1  0.39840900  0.41466500  0.48888600  1
  C  C24  1  0.39513100  0.56532000  0.48803600  1
  C  C25  1  0.60982700  0.57058200  0.52383000  1
  C  C26  1  0.61357800  0.42066500  0.52703900  1
  C  C27  1  0.03032300  0.70307400  0.34034100  1
  C  C28  1  0.00427600  0.36311900  0.29380600  1
  N  N1  1  0.50160100  0.64268100  0.50406300  1
  N  N2  1  0.50877900  0.34268700  0.50941300  1
  O  O1  1  0.64296600  0.11682100  0.70716700  1
  O  O2  1  0.63639200  0.86490900  0.70427400  1
  O  O3  1  0.38302500  0.86983400  0.64481800  1
  O  O4  1  0.38904700  0.11579700  0.64720100  1
  O  O5  1  0.37560000  0.87135100  0.30646400  1
  O  O6  1  0.38407600  0.11779400  0.30765200  1
  O  O7  1  0.63827100  0.11825200  0.37676600  1
  O  O8  1  0.63057600  0.86702100  0.37198700  1
  O  O9  1  0.06691100  0.62625400  0.48190900  1
  O  O10  1  0.06891900  0.33586100  0.44926900  1
