# generated using pymatgen
data_CuH20C30N5O7
_symmetry_space_group_name_H-M   'P 1'
_cell_length_a   10.94241000
_cell_length_b   19.21671300
_cell_length_c   17.95257800
_cell_angle_alpha   89.97322600
_cell_angle_beta   89.99785900
_cell_angle_gamma   89.99209200
_symmetry_Int_Tables_number   1
_chemical_formula_structural   CuH20C30N5O7
_chemical_formula_sum   'Cu2 H40 C60 N10 O14'
_cell_volume   3775.01653110
_cell_formula_units_Z   2
loop_
 _symmetry_equiv_pos_site_id
 _symmetry_equiv_pos_as_xyz
  1  'x, y, z'
loop_
 _atom_site_type_symbol
 _atom_site_label
 _atom_site_symmetry_multiplicity
 _atom_site_fract_x
 _atom_site_fract_y
 _atom_site_fract_z
 _atom_site_occupancy
  Cu  Cu1  1  0.49594100  0.50059700  0.57560000  1
  Cu  Cu2  1  0.49988700  0.50278100  0.42616400  1
  H  H1  1  0.21975400  0.60194200  0.17154700  1
  H  H2  1  0.77687800  0.39514200  0.82875800  1
  H  H3  1  0.25601200  0.67222800  0.28387400  1
  H  H4  1  0.74337800  0.32610500  0.71525100  1
  H  H5  1  0.18122200  0.63173300  0.40538800  1
  H  H6  1  0.81719700  0.36916800  0.59450700  1
  H  H7  1  0.03420800  0.45028400  0.30221200  1
  H  H8  1  0.96049200  0.54975800  0.70094500  1
  H  H9  1  0.10795200  0.49133100  0.18087700  1
  H  H10  1  0.88668000  0.50660200  0.82146600  1
  H  H11  1  0.87958000  0.51731000  0.38756000  1
  H  H12  1  0.11643600  0.48249100  0.61446100  1
  H  H13  1  0.66413900  0.28372500  0.56420400  1
  H  H14  1  0.34378500  0.71975200  0.42857900  1
  H  H15  1  0.66590500  0.15725500  0.56413700  1
  H  H16  1  0.34497800  0.84616000  0.42652800  1
  H  H17  1  0.33799900  0.15745900  0.43344600  1
  H  H18  1  0.65675500  0.84574800  0.57111600  1
  H  H19  1  0.33740100  0.28392000  0.43597100  1
  H  H20  1  0.65482900  0.71926900  0.57046100  1
  H  H21  1  0.39479500  0.41728700  0.16558500  1
  H  H22  1  0.61082800  0.58200400  0.83585400  1
  H  H23  1  0.78883600  0.57973100  0.29771900  1
  H  H24  1  0.76337500  0.62927400  0.38314900  1
  H  H25  1  0.77783000  0.67325500  0.29492300  1
  H  H26  1  0.50828300  0.31715600  0.72609500  1
  H  H27  1  0.42256700  0.28995700  0.64499600  1
  H  H28  1  0.35233900  0.28626000  0.73465600  1
  H  H29  1  0.43108100  0.66321400  0.14140500  1
  H  H30  1  0.54046600  0.67981200  0.06780900  1
  H  H31  1  0.55090400  0.72682000  0.15483400  1
  H  H32  1  0.18680200  0.44119600  0.80650000  1
  H  H33  1  0.18163600  0.40048400  0.89718600  1
  H  H34  1  0.18270300  0.34716400  0.81430400  1
  H  H35  1  0.43313200  0.31450200  0.22245000  1
  H  H36  1  0.36549000  0.28182200  0.30602400  1
  H  H37  1  0.52202400  0.31256900  0.30705100  1
  H  H38  1  0.48480700  0.69121800  0.69689400  1
  H  H39  1  0.64301200  0.71911000  0.69897100  1
  H  H40  1  0.57312700  0.68587500  0.78151100  1
  C  C1  1  0.50132700  0.36805000  0.49895800  1
  C  C2  1  0.49542100  0.63532200  0.50271000  1
  C  C3  1  0.26205800  0.50238700  0.49817100  1
  C  C4  1  0.73374600  0.50056500  0.50360800  1
  C  C5  1  0.20851100  0.62306600  0.28811600  1
  C  C6  1  0.78929200  0.37579600  0.71189100  1
  C  C7  1  0.16736300  0.60004300  0.35641800  1
  C  C8  1  0.82985700  0.40021400  0.64403300  1
  C  C9  1  0.10728400  0.53703500  0.36222300  1
  C  C10  1  0.88860400  0.46365400  0.63936300  1
  C  C11  1  0.08400300  0.49876200  0.29864200  1
  C  C12  1  0.91131700  0.50102400  0.70362700  1
  C  C13  1  0.12529600  0.52177700  0.23037700  1
  C  C14  1  0.87006800  0.47679300  0.77143200  1
  C  C15  1  0.18794200  0.58379000  0.22513500  1
  C  C16  1  0.80859700  0.41431500  0.77554400  1
  C  C17  1  0.93053100  0.50970600  0.43794600  1
  C  C18  1  0.06554600  0.49152600  0.56409700  1
  C  C19  1  0.86959500  0.49790700  0.50415900  1
  C  C20  1  0.12632100  0.50422900  0.49787900  1
  C  C21  1  0.93968000  0.48683100  0.56803800  1
  C  C22  1  0.05624700  0.51487800  0.43397400  1
  C  C23  1  0.59311800  0.25588400  0.53505900  1
  C  C24  1  0.41191100  0.74751900  0.46034100  1
  C  C25  1  0.59361700  0.18411500  0.53489800  1
  C  C26  1  0.41288600  0.81927500  0.45941000  1
  C  C27  1  0.50279500  0.14774200  0.49799700  1
  C  C28  1  0.49976400  0.85559900  0.49973100  1
  C  C29  1  0.41136400  0.18420800  0.46174300  1
  C  C30  1  0.58618200  0.81906800  0.54022800  1
  C  C31  1  0.41147700  0.25595000  0.46205300  1
  C  C32  1  0.58416400  0.74733600  0.54130700  1
  C  C33  1  0.50289800  0.29198300  0.49790700  1
  C  C34  1  0.49587700  0.71139600  0.50257200  1
  C  C35  1  0.50095900  0.93201200  0.49897000  1
  C  C36  1  0.50241100  0.07132300  0.49816600  1
  C  C37  1  0.55650300  0.55838100  0.27521800  1
  C  C38  1  0.43221600  0.44764200  0.72615500  1
  C  C39  1  0.55704400  0.56028200  0.19779200  1
  C  C40  1  0.42641300  0.44759600  0.80378000  1
  C  C41  1  0.49972600  0.50908100  0.15753900  1
  C  C42  1  0.49221500  0.49557000  0.84431500  1
  C  C43  1  0.44274600  0.45725200  0.19602000  1
  C  C44  1  0.55793800  0.54394200  0.80568300  1
  C  C45  1  0.44597000  0.45407300  0.27275900  1
  C  C46  1  0.55428300  0.54773500  0.72902300  1
  C  C47  1  0.49353200  0.49839800  0.92651900  1
  C  C48  1  0.49677700  0.50782300  0.07559300  1
  C  C49  1  0.60921400  0.62011600  0.31096400  1
  C  C50  1  0.74345300  0.62559300  0.32275400  1
  C  C51  1  0.37051300  0.38891400  0.68929700  1
  C  C52  1  0.41686100  0.31627400  0.69950800  1
  C  C53  1  0.60933200  0.62098800  0.15964700  1
  C  C54  1  0.52768300  0.67612900  0.12895700  1
  C  C55  1  0.35413800  0.39392500  0.84206400  1
  C  C56  1  0.21777200  0.39581700  0.83969200  1
  C  C57  1  0.38576800  0.39251600  0.30437600  1
  C  C58  1  0.42947900  0.32126100  0.28365100  1
  C  C59  1  0.61650600  0.60879900  0.69766000  1
  C  C60  1  0.57671800  0.68034500  0.72017200  1
  N  N1  1  0.41557100  0.03618100  0.46077900  1
  N  N2  1  0.58781600  0.96714900  0.53635300  1
  N  N3  1  0.41487900  0.96739400  0.46115000  1
  N  N4  1  0.58858100  0.03594200  0.53592100  1
  N  N5  1  0.50291000  0.50464900  0.31407600  1
  N  N6  1  0.49270600  0.49910100  0.68764800  1
  N  N7  1  0.39884200  0.48122400  0.04039500  1
  N  N8  1  0.59132900  0.52519900  0.96180600  1
  N  N9  1  0.39682200  0.47716500  0.96690900  1
  N  N10  1  0.59327900  0.52947400  0.03530000  1
  O  O1  1  0.50189300  0.39968300  0.56341000  1
  O  O2  1  0.49178300  0.60353400  0.43866900  1
  O  O3  1  0.49865400  0.40150900  0.43550100  1
  O  O4  1  0.49963300  0.60189000  0.56618500  1
  O  O5  1  0.31868100  0.49844800  0.56260700  1
  O  O6  1  0.67715000  0.50619800  0.43911100  1
  O  O7  1  0.32197500  0.50350400  0.43494200  1
  O  O8  1  0.67381300  0.49846800  0.56683100  1
  O  O9  1  0.54721200  0.67263300  0.31659900  1
  O  O10  1  0.27253300  0.39748800  0.65863600  1
  O  O11  1  0.71962000  0.62563000  0.15118400  1
  O  O12  1  0.40553100  0.34935000  0.87896700  1
  O  O13  1  0.29280400  0.39849000  0.34108700  1
  O  O14  1  0.70830300  0.60208900  0.66005000  1
