# generated using pymatgen
data_Fe2H21C54N3O20
_symmetry_space_group_name_H-M   'P 1'
_cell_length_a   15.78486300
_cell_length_b   9.30609900
_cell_length_c   24.44640100
_cell_angle_alpha   94.60255800
_cell_angle_beta   101.77451500
_cell_angle_gamma   100.29631200
_symmetry_Int_Tables_number   1
_chemical_formula_structural   Fe2H21C54N3O20
_chemical_formula_sum   'Fe2 H21 C54 N3 O20'
_cell_volume   3433.40326719
_cell_formula_units_Z   1
loop_
 _symmetry_equiv_pos_site_id
 _symmetry_equiv_pos_as_xyz
  1  'x, y, z'
loop_
 _atom_site_type_symbol
 _atom_site_label
 _atom_site_symmetry_multiplicity
 _atom_site_fract_x
 _atom_site_fract_y
 _atom_site_fract_z
 _atom_site_occupancy
  Fe  Fe1  1  0.49019800  0.98621800  0.87747100  1
  Fe  Fe2  1  0.51082400  0.00788300  0.12739800  1
  H  H1  1  0.20881200  0.94559700  0.87076200  1
  H  H2  1  0.06509100  0.94176200  0.89420500  1
  H  H3  1  0.18768400  0.03626100  0.06765400  1
  H  H4  1  0.81331400  0.95986700  0.93717500  1
  H  H5  1  0.79058700  0.04853200  0.13390200  1
  H  H6  1  0.67950200  0.34725500  0.47224800  1
  H  H7  1  0.67484200  0.33613100  0.56999300  1
  H  H8  1  0.32145300  0.64677300  0.53265900  1
  H  H9  1  0.32610800  0.65788100  0.43491200  1
  H  H10  1  0.49850000  0.70081900  0.71910900  1
  H  H11  1  0.47832600  0.23635100  0.69059000  1
  H  H12  1  0.50256300  0.29332900  0.28578800  1
  H  H13  1  0.52261600  0.75776800  0.31434600  1
  H  H14  1  0.49276700  0.44055100  0.85487900  1
  H  H15  1  0.50831500  0.55372000  0.15005700  1
  H  H16  1  0.98423400  0.16519100  0.12843100  1
  H  H17  1  0.01915500  0.17929300  0.22574500  1
  H  H18  1  0.00748700  0.06220400  0.31075800  1
  H  H19  1  0.93051100  0.80485200  0.30327100  1
  H  H20  1  0.86590900  0.66370700  0.21013100  1
  H  H21  1  0.87764800  0.77803400  0.12473200  1
  C  C1  1  0.20523300  0.96352800  0.91439800  1
  C  C2  1  0.12428100  0.96275900  0.92736900  1
  C  C3  1  0.11915500  0.99223400  0.98247300  1
  C  C4  1  0.19440400  0.01782500  0.02469300  1
  C  C5  1  0.27626500  0.01752100  0.01242300  1
  C  C6  1  0.28170100  0.99419900  0.95626600  1
  C  C7  1  0.03541800  0.99536600  0.99635900  1
  C  C8  1  0.96535600  0.99842500  0.00833500  1
  C  C9  1  0.80650600  0.97686400  0.98016900  1
  C  C10  1  0.72464300  0.97639700  0.99246000  1
  C  C11  1  0.71922600  0.99886400  0.04863400  1
  C  C12  1  0.79557200  0.02820300  0.09063400  1
  C  C13  1  0.87677400  0.02742700  0.07769400  1
  C  C14  1  0.88169200  0.00126500  0.02237400  1
  C  C15  1  0.47991500  0.18288500  0.79698500  1
  C  C16  1  0.36607600  0.01093400  0.93892800  1
  C  C17  1  0.64809200  0.96234700  0.94493900  1
  C  C18  1  0.49480300  0.71454600  0.82971500  1
  C  C19  1  0.50632400  0.27972600  0.17519100  1
  C  C20  1  0.35285900  0.03213600  0.05993400  1
  C  C21  1  0.63478700  0.98288000  0.06588100  1
  C  C22  1  0.52104900  0.81128600  0.20795500  1
  C  C23  1  0.44376000  0.56472500  0.38399700  1
  C  C24  1  0.56811200  0.45546100  0.39703200  1
  C  C25  1  0.56608600  0.44770000  0.45307000  1
  C  C26  1  0.50180500  0.50014400  0.47452500  1
  C  C27  1  0.44018600  0.55894200  0.43984800  1
  C  C28  1  0.62823500  0.38902200  0.48790800  1
  C  C29  1  0.62558700  0.38275100  0.54369100  1
  C  C30  1  0.56076700  0.43507800  0.56505900  1
  C  C31  1  0.49914800  0.49387600  0.53038200  1
  C  C32  1  0.43487000  0.54633100  0.55183900  1
  C  C33  1  0.37271800  0.60500000  0.51699900  1
  C  C34  1  0.37536300  0.61126300  0.46121500  1
  C  C35  1  0.55720000  0.42931200  0.62091100  1
  C  C36  1  0.43285800  0.53860000  0.60787900  1
  C  C37  1  0.49421200  0.59519200  0.73491500  1
  C  C38  1  0.49437100  0.58508200  0.79109400  1
  C  C39  1  0.49257400  0.45015200  0.81111900  1
  C  C40  1  0.48613400  0.32500100  0.77507000  1
  C  C41  1  0.48364600  0.33464600  0.71885800  1
  C  C42  1  0.49008200  0.47011400  0.69889100  1
  C  C43  1  0.50683900  0.39897200  0.26999400  1
  C  C44  1  0.50671600  0.40914100  0.21382200  1
  C  C45  1  0.50848700  0.54407600  0.19381200  1
  C  C46  1  0.51487100  0.66918200  0.22986900  1
  C  C47  1  0.51733400  0.65949500  0.28607500  1
  C  C48  1  0.51091700  0.52400900  0.30602700  1
  C  C49  1  0.94740700  0.98804800  0.16934000  1
  C  C50  1  0.98488500  0.06618500  0.22180600  1
  C  C51  1  0.97848600  0.00051500  0.26979700  1
  C  C52  1  0.93534400  0.85628500  0.26561700  1
  C  C53  1  0.89898300  0.77730100  0.21340000  1
  C  C54  1  0.90515100  0.84262600  0.16530300  1
  N  N1  1  0.50740200  0.51374100  0.36351100  1
  N  N2  1  0.49357100  0.48032600  0.64140000  1
  N  N3  1  0.95511200  0.05531700  0.12026400  1
  O  O1  1  0.52103100  0.17741100  0.84899800  1
  O  O2  1  0.42827600  0.12734800  0.95963800  1
  O  O3  1  0.42853800  0.06505500  0.76649200  1
  O  O4  1  0.37488300  0.92120600  0.89706800  1
  O  O5  1  0.57345100  0.99564400  0.95220600  1
  O  O6  1  0.65770200  0.93219000  0.89348300  1
  O  O7  1  0.49540100  0.84464300  0.81241800  1
  O  O8  1  0.49177900  0.69990500  0.88226800  1
  O  O9  1  0.50568900  0.14961500  0.19247600  1
  O  O10  1  0.50936800  0.29440300  0.12264400  1
  O  O11  1  0.42738600  0.99835800  0.05267500  1
  O  O12  1  0.34332400  0.06281500  0.11137500  1
  O  O13  1  0.57248800  0.92911000  0.23841500  1
  O  O14  1  0.62607100  0.07284100  0.10770500  1
  O  O15  1  0.47988900  0.81671200  0.15594900  1
  O  O16  1  0.57249000  0.86654800  0.04524800  1
  O  O17  1  0.38243600  0.61860500  0.34955400  1
  O  O18  1  0.63215000  0.40845700  0.37617500  1
  O  O19  1  0.61852300  0.37542900  0.65535300  1
  O  O20  1  0.36883500  0.58563800  0.62874300  1
