# generated using pymatgen
data_Fe2H19C52NO17
_symmetry_space_group_name_H-M   'P 1'
_cell_length_a   17.82371500
_cell_length_b   11.90222700
_cell_length_c   13.09465200
_cell_angle_alpha   91.66626700
_cell_angle_beta   81.71250200
_cell_angle_gamma   105.90543100
_symmetry_Int_Tables_number   1
_chemical_formula_structural   Fe2H19C52NO17
_chemical_formula_sum   'Fe2 H19 C52 N1 O17'
_cell_volume   2643.51536384
_cell_formula_units_Z   1
loop_
 _symmetry_equiv_pos_site_id
 _symmetry_equiv_pos_as_xyz
  1  'x, y, z'
loop_
 _atom_site_type_symbol
 _atom_site_label
 _atom_site_symmetry_multiplicity
 _atom_site_fract_x
 _atom_site_fract_y
 _atom_site_fract_z
 _atom_site_occupancy
  Fe  Fe1  1  0.49473100  0.01323900  0.21406200  1
  Fe  Fe2  1  0.49783500  0.99917600  0.80339000  1
  H  H1  1  0.26054100  0.08091000  0.23446500  1
  H  H2  1  0.13408600  0.09853800  0.29236000  1
  H  H3  1  0.21069400  0.89599000  0.82354500  1
  H  H4  1  0.00407900  0.08439800  0.26757700  1
  H  H5  1  0.08371000  0.87890300  0.79382200  1
  H  H6  1  0.90280100  0.11003400  0.22930700  1
  H  H7  1  0.98535400  0.91297400  0.75253100  1
  H  H8  1  0.77643000  0.09436000  0.19866800  1
  H  H9  1  0.85572500  0.90121600  0.72644000  1
  H  H10  1  0.72947200  0.92112200  0.78349600  1
  H  H11  1  0.53691600  0.64562500  0.74557600  1
  H  H12  1  0.46274000  0.37086500  0.26817800  1
  H  H13  1  0.46409000  0.56916400  0.25740100  1
  H  H14  1  0.47769100  0.12023000  0.52706000  1
  H  H15  1  0.50791200  0.88987900  0.49336000  1
  H  H16  1  0.53356500  0.47634100  0.84347500  1
  H  H17  1  0.64442900  0.37909800  0.90125400  1
  H  H18  1  0.67012100  0.53714600  0.89363000  1
  H  H19  1  0.73462200  0.45883800  0.82317800  1
  C  C1  1  0.24428300  0.05544600  0.15903700  1
  C  C2  1  0.11694900  0.07353700  0.21727200  1
  C  C3  1  0.29986500  0.03368600  0.08333900  1
  C  C4  1  0.28108200  0.00265300  0.98460500  1
  C  C5  1  0.16975800  0.04836400  0.13963300  1
  C  C6  1  0.14757800  0.01294000  0.04502200  1
  C  C7  1  0.20227600  0.98540700  0.96852200  1
  C  C8  1  0.17529100  0.93451900  0.87997400  1
  C  C9  1  0.04175900  0.06668500  0.20108100  1
  C  C10  1  0.01754600  0.03477200  0.10535200  1
  C  C11  1  0.07058200  0.00421400  0.02800800  1
  C  C12  1  0.04693000  0.96398900  0.93426200  1
  C  C13  1  0.09941100  0.92374700  0.86326400  1
  C  C14  1  0.88805700  0.06785000  0.15849000  1
  C  C15  1  0.94114500  0.02969900  0.08668900  1
  C  C16  1  0.91778900  0.99057500  0.99247200  1
  C  C17  1  0.97084000  0.95999500  0.91521900  1
  C  C18  1  0.94718700  0.92976600  0.81895700  1
  C  C19  1  0.81242900  0.05792100  0.14124000  1
  C  C20  1  0.78634000  0.01038800  0.05122200  1
  C  C21  1  0.84114100  0.98320600  0.97478300  1
  C  C22  1  0.81943100  0.94974400  0.87951900  1
  C  C23  1  0.70823000  0.99622200  0.03396400  1
  C  C24  1  0.68985900  0.96730000  0.93495900  1
  C  C25  1  0.87238100  0.92458700  0.80201800  1
  C  C26  1  0.74533800  0.94488200  0.85938600  1
  C  C27  1  0.64438500  0.00382100  0.11861500  1
  C  C28  1  0.49222900  0.79762200  0.31241400  1
  C  C29  1  0.37763600  0.04760400  0.11306700  1
  C  C30  1  0.46653600  0.17909400  0.34769400  1
  C  C31  1  0.52374500  0.83227900  0.66988000  1
  C  C32  1  0.61259500  0.95728500  0.90521000  1
  C  C33  1  0.49410300  0.21120300  0.70539600  1
  C  C34  1  0.34512700  0.99662200  0.89922100  1
  C  C35  1  0.48530800  0.21334100  0.52449000  1
  C  C36  1  0.49606300  0.27935000  0.61192500  1
  C  C37  1  0.50502000  0.40019200  0.60524700  1
  C  C38  1  0.52494600  0.47626300  0.68641100  1
  C  C39  1  0.52313600  0.59048800  0.68011600  1
  C  C40  1  0.48122700  0.26073800  0.43248200  1
  C  C41  1  0.48433200  0.37753200  0.42619100  1
  C  C42  1  0.49571700  0.44743500  0.51239000  1
  C  C43  1  0.49830600  0.56507000  0.50497900  1
  C  C44  1  0.50896100  0.63491700  0.59094200  1
  C  C45  1  0.50950900  0.75072400  0.58515900  1
  C  C46  1  0.47377800  0.42394100  0.33554800  1
  C  C47  1  0.47575500  0.53961900  0.32881100  1
  C  C48  1  0.49001500  0.61270700  0.41206800  1
  C  C49  1  0.49448700  0.73184800  0.40587700  1
  C  C50  1  0.50321500  0.79753100  0.49395400  1
  C  C51  1  0.62938700  0.44851900  0.75953800  1
  C  C52  1  0.67229700  0.45642000  0.85020600  1
  N  N1  1  0.55190100  0.44288100  0.77392500  1
  O  O1  1  0.58064000  0.02788700  0.09701300  1
  O  O2  1  0.51921200  0.76957200  0.21940600  1
  O  O3  1  0.64636400  0.97239300  0.21318100  1
  O  O4  1  0.47637800  0.89891300  0.32809300  1
  O  O5  1  0.39278600  0.95930400  0.15594300  1
  O  O6  1  0.42716000  0.15204900  0.11205600  1
  O  O7  1  0.52512000  0.17241200  0.27643700  1
  O  O8  1  0.40327400  0.09021000  0.36108000  1
  O  O9  1  0.46448600  0.84159900  0.73881300  1
  O  O10  1  0.58853600  0.91864600  0.65852600  1
  O  O11  1  0.60008300  0.04711200  0.86138700  1
  O  O12  1  0.56070200  0.85475900  0.90749000  1
  O  O13  1  0.33948400  0.01776100  0.80324200  1
  O  O14  1  0.51841200  0.11632900  0.69116100  1
  O  O15  1  0.41247800  0.98567500  0.92110000  1
  O  O16  1  0.45484700  0.22910300  0.79427500  1
  O  O17  1  0.66461700  0.44754700  0.67263600  1
