# generated using pymatgen
data_FeH7C20(O4F)2
_symmetry_space_group_name_H-M   'P 1'
_cell_length_a   15.41599400
_cell_length_b   16.94406500
_cell_length_c   11.85656600
_cell_angle_alpha   71.88349600
_cell_angle_beta   101.16785000
_cell_angle_gamma   109.41538300
_symmetry_Int_Tables_number   1
_chemical_formula_structural   FeH7C20(O4F)2
_chemical_formula_sum   'Fe2 H14 C40 O16 F4'
_cell_volume   2762.00027199
_cell_formula_units_Z   2
loop_
 _symmetry_equiv_pos_site_id
 _symmetry_equiv_pos_as_xyz
  1  'x, y, z'
loop_
 _atom_site_type_symbol
 _atom_site_label
 _atom_site_symmetry_multiplicity
 _atom_site_fract_x
 _atom_site_fract_y
 _atom_site_fract_z
 _atom_site_occupancy
  Fe  Fe1  1  0.49940100  0.00317800  0.74734900  1
  Fe  Fe2  1  0.50249500  0.99863600  0.25296800  1
  H  H1  1  0.79161300  0.01863800  0.27234500  1
  H  H2  1  0.94450500  0.02972500  0.23117100  1
  H  H3  1  0.05151900  0.06009800  0.08064100  1
  H  H4  1  0.94980800  0.93365000  0.92827500  1
  H  H5  1  0.05284500  0.95319200  0.78100200  1
  H  H6  1  0.20567600  0.96732800  0.73590500  1
  H  H7  1  0.16692000  0.99859700  0.11942100  1
  H  H8  1  0.50597400  0.73188100  0.41421700  1
  H  H9  1  0.48875900  0.56478500  0.76670500  1
  H  H10  1  0.51168000  0.31733500  0.15918700  1
  H  H11  1  0.49175700  0.27059800  0.58407400  1
  H  H12  1  0.38629200  0.35697300  0.55857400  1
  H  H13  1  0.61511900  0.52690500  0.36553200  1
  H  H14  1  0.61066800  0.64465700  0.43787200  1
  C  C1  1  0.80101400  0.01669800  0.18534700  1
  C  C2  1  0.88721600  0.02241000  0.16257700  1
  C  C3  1  0.90006800  0.01578800  0.05472000  1
  C  C4  1  0.82675800  0.00958200  0.96591300  1
  C  C5  1  0.73852700  0.00258500  0.98819900  1
  C  C6  1  0.72595000  0.00390500  0.10116900  1
  C  C7  1  0.99352300  0.02032300  0.03600300  1
  C  C8  1  0.00791500  0.97466900  0.97097600  1
  C  C9  1  0.11173300  0.96642900  0.84593800  1
  C  C10  1  0.19795800  0.97375700  0.82102900  1
  C  C11  1  0.27467700  0.99328300  0.90079300  1
  C  C12  1  0.26378300  0.00009800  0.01116700  1
  C  C13  1  0.17666300  0.99466000  0.03389300  1
  C  C14  1  0.10102100  0.97998000  0.95032400  1
  C  C15  1  0.48139100  0.12728500  0.53900400  1
  C  C16  1  0.36498300  0.00957900  0.86185900  1
  C  C17  1  0.66261100  0.99869900  0.88980900  1
  C  C18  1  0.49991800  0.84810200  0.71921100  1
  C  C19  1  0.50230100  0.15420300  0.28148400  1
  C  C20  1  0.33959300  0.00638800  0.10861200  1
  C  C21  1  0.63552500  0.98973100  0.13822700  1
  C  C22  1  0.51882500  0.87453500  0.46151500  1
  C  C23  1  0.50645000  0.79011300  0.54952600  1
  C  C24  1  0.50235700  0.72107200  0.50816800  1
  C  C25  1  0.49536300  0.63965800  0.58477600  1
  C  C26  1  0.49157600  0.62737800  0.70432400  1
  C  C27  1  0.49380400  0.69507100  0.74691700  1
  C  C28  1  0.50112800  0.77770800  0.67050800  1
  C  C29  1  0.43417500  0.48644800  0.57430600  1
  C  C30  1  0.43669000  0.41973000  0.53282800  1
  C  C31  1  0.50072400  0.43355900  0.45641700  1
  C  C32  1  0.56275600  0.51509000  0.42251300  1
  C  C33  1  0.56028300  0.58190800  0.46374400  1
  C  C34  1  0.49622400  0.56813100  0.54012300  1
  C  C35  1  0.50794300  0.37378100  0.29323800  1
  C  C36  1  0.50723100  0.30545100  0.25311300  1
  C  C37  1  0.50010600  0.22368800  0.33045000  1
  C  C38  1  0.49351700  0.21158700  0.45070800  1
  C  C39  1  0.49612400  0.28090600  0.49044900  1
  C  C40  1  0.50260900  0.36199400  0.41256900  1
  O  O1  1  0.54026500  0.11926300  0.63494600  1
  O  O2  1  0.43055400  0.08181500  0.86702300  1
  O  O3  1  0.40603200  0.06328400  0.52997300  1
  O  O4  1  0.37607900  0.95774900  0.80701500  1
  O  O5  1  0.58250400  0.00614100  0.89976900  1
  O  O6  1  0.67593800  0.99146500  0.78798100  1
  O  O7  1  0.50251900  0.92620100  0.65034800  1
  O  O8  1  0.49424000  0.83260500  0.83344900  1
  O  O9  1  0.50130200  0.07640000  0.35006700  1
  O  O10  1  0.50685200  0.17067600  0.16673200  1
  O  O11  1  0.41904100  0.99663200  0.10057200  1
  O  O12  1  0.32465300  0.01361500  0.20968200  1
  O  O13  1  0.59505300  0.93784000  0.46975200  1
  O  O14  1  0.62566500  0.04215300  0.19318100  1
  O  O15  1  0.46000700  0.88280700  0.36551200  1
  O  O16  1  0.56890700  0.91818700  0.13277800  1
  F  F1  1  0.48940500  0.67837800  0.86544400  1
  F  F2  1  0.51008000  0.45134800  0.21315700  1
  F  F3  1  0.36778900  0.47168600  0.64470100  1
  F  F4  1  0.84333200  0.01644600  0.85458600  1
