# generated using pymatgen
data_Fe2H17C42N4ClO16
_symmetry_space_group_name_H-M   'P 1'
_cell_length_a   9.39749600
_cell_length_b   17.31189300
_cell_length_c   17.28383700
_cell_angle_alpha   106.20356700
_cell_angle_beta   89.04882900
_cell_angle_gamma   76.35926800
_symmetry_Int_Tables_number   1
_chemical_formula_structural   Fe2H17C42N4ClO16
_chemical_formula_sum   'Fe2 H17 C42 N4 Cl1 O16'
_cell_volume   2613.76800249
_cell_formula_units_Z   1
loop_
 _symmetry_equiv_pos_site_id
 _symmetry_equiv_pos_as_xyz
  1  'x, y, z'
loop_
 _atom_site_type_symbol
 _atom_site_label
 _atom_site_symmetry_multiplicity
 _atom_site_fract_x
 _atom_site_fract_y
 _atom_site_fract_z
 _atom_site_occupancy
  Fe  Fe1  1  0.51120600  0.99099000  0.34833200  1
  Fe  Fe2  1  0.51817800  0.01123600  0.63760000  1
  H  H1  1  0.25787000  0.00639100  0.85671300  1
  H  H2  1  0.81444200  0.99072700  0.88527300  1
  H  H3  1  0.76994900  0.99675100  0.12935700  1
  H  H4  1  0.21143800  0.01549300  0.10024100  1
  H  H5  1  0.97047500  0.02962500  0.67137300  1
  H  H6  1  0.05764400  0.97747000  0.31517500  1
  H  H7  1  0.18004700  0.96978700  0.97266200  1
  H  H8  1  0.84612900  0.03434500  0.01315400  1
  H  H9  1  0.21259900  0.28228300  0.42520200  1
  H  H10  1  0.21852000  0.44455800  0.66166100  1
  H  H11  1  0.35617700  0.32888600  0.70288600  1
  H  H12  1  0.82911800  0.55799500  0.32914000  1
  H  H13  1  0.83379700  0.72610600  0.56203800  1
  H  H14  1  0.80535000  0.57646000  0.06666800  1
  H  H15  1  0.54070500  0.60902500  0.04982400  1
  H  H16  1  0.36206200  0.67769000  0.16891900  1
  H  H17  1  0.44753000  0.71275400  0.30475900  1
  C  C1  1  0.12776600  0.01858400  0.75825700  1
  C  C2  1  0.15083800  0.00871700  0.83417500  1
  C  C3  1  0.03725100  0.00231200  0.88218200  1
  C  C4  1  0.90209600  0.00136700  0.85179400  1
  C  C5  1  0.87804100  0.01267200  0.77682500  1
  C  C6  1  0.98962900  0.02302400  0.73091200  1
  C  C7  1  0.06643400  0.99261700  0.96294000  1
  C  C8  1  0.95981100  0.01164200  0.02283600  1
  C  C9  1  0.87677400  0.99545800  0.15193100  1
  C  C10  1  0.90041100  0.98651500  0.22815800  1
  C  C11  1  0.03814100  0.98370000  0.25555200  1
  C  C12  1  0.14901700  0.99425600  0.20927700  1
  C  C13  1  0.12442600  0.00469500  0.13405400  1
  C  C14  1  0.98950600  0.00251300  0.10374100  1
  C  C15  1  0.78008100  0.98303300  0.28146900  1
  C  C16  1  0.62816900  0.83599100  0.36290400  1
  C  C17  1  0.29010500  0.99844700  0.24214200  1
  C  C18  1  0.36210400  0.14577400  0.44739600  1
  C  C19  1  0.68005000  0.86045500  0.53595100  1
  C  C20  1  0.73766500  0.00764200  0.74337200  1
  C  C21  1  0.43106300  0.16820300  0.61999700  1
  C  C22  1  0.24912300  0.02139800  0.70525700  1
  C  C23  1  0.32721600  0.22689100  0.50846900  1
  C  C24  1  0.24462300  0.29327100  0.48628600  1
  C  C25  1  0.20359600  0.37182700  0.54060600  1
  C  C26  1  0.24819800  0.38384300  0.61779500  1
  C  C27  1  0.32770100  0.31756800  0.64112500  1
  C  C28  1  0.36564500  0.23808100  0.58778300  1
  C  C29  1  0.93940300  0.56597700  0.47271100  1
  C  C30  1  0.11136400  0.44103000  0.51658400  1
  C  C31  1  0.80347700  0.62018400  0.37021100  1
  C  C32  1  0.72475700  0.68464700  0.34394000  1
  C  C33  1  0.68682000  0.76545100  0.39579300  1
  C  C34  1  0.72079900  0.77843500  0.47610100  1
  C  C35  1  0.80387300  0.71362500  0.50050000  1
  C  C36  1  0.84756000  0.63451800  0.44754900  1
  C  C37  1  0.67520900  0.66428300  0.26242600  1
  C  C38  1  0.77550100  0.62567500  0.19531800  1
  C  C39  1  0.72686100  0.60602600  0.11911700  1
  C  C40  1  0.57850500  0.62451700  0.10961700  1
  C  C41  1  0.47842700  0.66314100  0.17634500  1
  C  C42  1  0.52663900  0.68309200  0.25259000  1
  N  N1  1  0.06843000  0.51744200  0.56963100  1
  N  N2  1  0.98368600  0.57920400  0.54791800  1
  N  N3  1  0.98247400  0.48960600  0.41978500  1
  N  N4  1  0.06709200  0.42793400  0.44146400  1
  Cl  Cl1  1  0.96495700  0.60517300  0.20538600  1
  O  O1  1  0.64599400  0.99063500  0.25896600  1
  O  O2  1  0.65617700  0.82809500  0.28604900  1
  O  O3  1  0.80462000  0.97633700  0.35413200  1
  O  O4  1  0.56069800  0.90950300  0.41055000  1
  O  O5  1  0.32969600  0.96433400  0.29992000  1
  O  O6  1  0.37086800  0.04126200  0.21834500  1
  O  O7  1  0.49945200  0.10327700  0.42586500  1
  O  O8  1  0.25520100  0.11719600  0.41180300  1
  O  O9  1  0.54099300  0.89717000  0.56094400  1
  O  O10  1  0.78354800  0.89547100  0.56722700  1
  O  O11  1  0.69428300  0.04418700  0.68766900  1
  O  O12  1  0.66210100  0.96051400  0.76376600  1
  O  O13  1  0.22378500  0.03264100  0.63425600  1
  O  O14  1  0.46211600  0.09093600  0.57390300  1
  O  O15  1  0.38452200  0.00874400  0.72614100  1
  O  O16  1  0.44469900  0.18272200  0.69784000  1
