# generated using pymatgen
data_ZnH13C22NO4
_symmetry_space_group_name_H-M   'P 1'
_cell_length_a   8.56842500
_cell_length_b   13.47531300
_cell_length_c   13.45157100
_cell_angle_alpha   90.00000000
_cell_angle_beta   90.00000000
_cell_angle_gamma   90.00000000
_symmetry_Int_Tables_number   1
_chemical_formula_structural   ZnH13C22NO4
_chemical_formula_sum   'Zn2 H26 C44 N2 O8'
_cell_volume   1553.14809938
_cell_formula_units_Z   2
loop_
 _symmetry_equiv_pos_site_id
 _symmetry_equiv_pos_as_xyz
  1  'x, y, z'
loop_
 _atom_site_type_symbol
 _atom_site_label
 _atom_site_symmetry_multiplicity
 _atom_site_fract_x
 _atom_site_fract_y
 _atom_site_fract_z
 _atom_site_occupancy
  Zn  Zn1  1  0.49869100  0.88716500  0.47933600  1
  Zn  Zn2  1  0.50221800  0.11201500  0.48637600  1
  H  H1  1  0.75133900  0.98812200  0.14627800  1
  H  H2  1  0.25039500  0.99414800  0.14593300  1
  H  H3  1  0.75048900  0.00597300  0.82066600  1
  H  H4  1  0.24959900  0.01193200  0.82037600  1
  H  H5  1  0.00006100  0.03298500  0.41417500  1
  H  H6  1  0.00093800  0.96591800  0.55249900  1
  H  H7  1  0.50953500  0.74969500  0.63301900  1
  H  H8  1  0.48930100  0.25470700  0.64234700  1
  H  H9  1  0.50379100  0.59531600  0.72725500  1
  H  H10  1  0.49313000  0.41328900  0.73089100  1
  H  H11  1  0.55336600  0.42929900  0.32872800  1
  H  H12  1  0.44737500  0.56553400  0.32506300  1
  H  H13  1  0.48757800  0.29352000  0.24356400  1
  H  H14  1  0.49892000  0.17350700  0.28797500  1
  H  H15  1  0.66631200  0.20331400  0.12141000  1
  H  H16  1  0.94030100  0.20032000  0.06846700  1
  H  H17  1  0.14839800  0.24100200  0.18754700  1
  H  H18  1  0.08190500  0.28423800  0.35986600  1
  H  H19  1  0.81222500  0.28725000  0.41422400  1
  H  H20  1  0.50834700  0.70184000  0.23529200  1
  H  H21  1  0.50307300  0.82265000  0.28106300  1
  H  H22  1  0.32942200  0.79199100  0.11428200  1
  H  H23  1  0.05404600  0.79852900  0.06470900  1
  H  H24  1  0.84808500  0.76450400  0.18733300  1
  H  H25  1  0.91815500  0.72403800  0.35975400  1
  H  H26  1  0.18930000  0.71719600  0.41070600  1
  C  C1  1  0.86158500  0.00308500  0.28811300  1
  C  C2  1  0.13985700  0.00733500  0.28783900  1
  C  C3  1  0.86061900  0.99376600  0.18603600  1
  C  C4  1  0.14100100  0.99755000  0.18581800  1
  C  C5  1  0.00071400  0.99591400  0.13464800  1
  C  C6  1  0.00040900  0.01717000  0.33638300  1
  C  C7  1  0.00050100  0.99852400  0.02799200  1
  C  C8  1  0.00035600  0.00202700  0.93847500  1
  C  C9  1  0.85980300  0.00237600  0.78070800  1
  C  C10  1  0.14042600  0.00614100  0.78051900  1
  C  C11  1  0.86064400  0.99204600  0.67874000  1
  C  C12  1  0.13983700  0.99625300  0.67849500  1
  C  C13  1  0.00056200  0.98209800  0.63021900  1
  C  C14  1  0.00018500  0.00431400  0.83181700  1
  C  C15  1  0.72023100  0.00022000  0.34861700  1
  C  C16  1  0.28116000  0.00455700  0.34839600  1
  C  C17  1  0.71853000  0.99479200  0.61836800  1
  C  C18  1  0.28202600  0.99892400  0.61819500  1
  C  C19  1  0.49687700  0.29426900  0.57261000  1
  C  C20  1  0.50264900  0.70787700  0.56460400  1
  C  C21  1  0.52364500  0.29318100  0.39924400  1
  C  C22  1  0.47671500  0.70404400  0.39135500  1
  C  C23  1  0.52544300  0.39459700  0.39843100  1
  C  C24  1  0.47458500  0.60239100  0.39379600  1
  C  C25  1  0.50366700  0.44835800  0.48385600  1
  C  C26  1  0.49511400  0.55132200  0.48159500  1
  C  C27  1  0.49778100  0.39783700  0.57252700  1
  C  C28  1  0.50061000  0.60468100  0.56837200  1
  C  C29  1  0.50177300  0.55439000  0.65814800  1
  C  C30  1  0.49554100  0.45148300  0.66023600  1
  C  C31  1  0.54974000  0.24707400  0.29893000  1
  C  C32  1  0.71868000  0.24628900  0.27055900  1
  C  C33  1  0.75727400  0.22138200  0.17407900  1
  C  C34  1  0.91113400  0.21962800  0.14422100  1
  C  C35  1  0.02769600  0.24244500  0.21088600  1
  C  C36  1  0.99028100  0.26678300  0.30746200  1
  C  C37  1  0.83643700  0.26874200  0.33766400  1
  C  C38  1  0.44964400  0.74950800  0.29114100  1
  C  C39  1  0.27996500  0.75332200  0.26501000  1
  C  C40  1  0.23940500  0.77685100  0.16851400  1
  C  C41  1  0.08476000  0.78062000  0.14055100  1
  C  C42  1  0.96939600  0.76145400  0.20918800  1
  C  C43  1  0.00880900  0.73865300  0.30581500  1
  C  C44  1  0.16344600  0.73449600  0.33408100  1
  N  N1  1  0.50607900  0.24248900  0.48638100  1
  N  N2  1  0.49486300  0.75679300  0.47667400  1
  O  O1  1  0.66964500  0.08385900  0.38512900  1
  O  O2  1  0.33271400  0.91801600  0.37775900  1
  O  O3  1  0.33281400  0.08790600  0.38530700  1
  O  O4  1  0.66755700  0.91404600  0.37846400  1
  O  O5  1  0.66570000  0.91013400  0.58270500  1
  O  O6  1  0.33595800  0.08629500  0.58969500  1
  O  O7  1  0.33320400  0.91390700  0.58270700  1
  O  O8  1  0.66666667  0.08252700  0.58976700  1
