# generated using pymatgen
data_CuH10C15NO4
_symmetry_space_group_name_H-M   'P 1'
_cell_length_a   16.05169100
_cell_length_b   14.63280500
_cell_length_c   11.04654700
_cell_angle_alpha   90.00000000
_cell_angle_beta   89.99091700
_cell_angle_gamma   90.00000000
_symmetry_Int_Tables_number   1
_chemical_formula_structural   CuH10C15NO4
_chemical_formula_sum   'Cu2 H20 C30 N2 O8'
_cell_volume   2594.62689316
_cell_formula_units_Z   2
loop_
 _symmetry_equiv_pos_site_id
 _symmetry_equiv_pos_as_xyz
  1  'x, y, z'
loop_
 _atom_site_type_symbol
 _atom_site_label
 _atom_site_symmetry_multiplicity
 _atom_site_fract_x
 _atom_site_fract_y
 _atom_site_fract_z
 _atom_site_occupancy
  Cu  Cu1  1  0.49978300  0.58943500  0.50002300  1
  Cu  Cu2  1  0.49989100  0.40656700  0.49984600  1
  H  H1  1  0.50489100  0.35927800  0.88822000  1
  H  H2  1  0.50528400  0.35912200  0.11126700  1
  H  H3  1  0.49759700  0.56843500  0.90480000  1
  H  H4  1  0.49677700  0.56825100  0.09526500  1
  H  H5  1  0.07602900  0.63616500  0.49981400  1
  H  H6  1  0.92354200  0.63609700  0.49999700  1
  H  H7  1  0.59224400  0.08313800  0.63740700  1
  H  H8  1  0.40738600  0.08312100  0.36248600  1
  H  H9  1  0.92679900  0.27863000  0.41886800  1
  H  H10  1  0.92695700  0.27886300  0.58292600  1
  H  H11  1  0.84184100  0.32590900  0.50098300  1
  H  H12  1  0.07304800  0.27889700  0.58254400  1
  H  H13  1  0.07288100  0.27872700  0.41848500  1
  H  H14  1  0.15796500  0.32605600  0.50021800  1
  H  H15  1  0.60800900  0.82980800  0.66069600  1
  H  H16  1  0.67505000  0.92711700  0.64382900  1
  H  H17  1  0.59478600  0.92706800  0.75776700  1
  H  H18  1  0.39175100  0.82978500  0.33907400  1
  H  H19  1  0.32465000  0.92703900  0.35602000  1
  H  H20  1  0.40490100  0.92709000  0.24206300  1
  C  C1  1  0.33995700  0.49816500  0.49991500  1
  C  C2  1  0.65971800  0.49771300  0.49995100  1
  C  C3  1  0.49974700  0.49794800  0.26736200  1
  C  C4  1  0.49989800  0.49837400  0.73250800  1
  C  C5  1  0.50257100  0.42521600  0.93271100  1
  C  C6  1  0.50262600  0.42511500  0.06695800  1
  C  C7  1  0.49989100  0.50115900  0.86509100  1
  C  C8  1  0.49956500  0.50093400  0.13478800  1
  C  C9  1  0.95702600  0.57200000  0.50012500  1
  C  C10  1  0.04259300  0.57203800  0.50000300  1
  C  C11  1  0.91367200  0.49085800  0.50037300  1
  C  C12  1  0.08600900  0.49093600  0.50009900  1
  C  C13  1  0.95641000  0.40799400  0.50051800  1
  C  C14  1  0.04333400  0.40803300  0.50034500  1
  C  C15  1  0.82418300  0.49499200  0.50029500  1
  C  C16  1  0.17549500  0.49516000  0.50001100  1
  C  C17  1  0.25056100  0.49752600  0.49996800  1
  C  C18  1  0.74911500  0.49724900  0.50015700  1
  C  C19  1  0.55223700  0.95148800  0.57783400  1
  C  C20  1  0.44745500  0.95147800  0.42200100  1
  C  C21  1  0.49985800  0.90354500  0.49990600  1
  C  C22  1  0.44799000  0.04574500  0.42285500  1
  C  C23  1  0.55165400  0.04575500  0.57702500  1
  C  C24  1  0.49980900  0.09275100  0.49995400  1
  C  C25  1  0.49986500  0.80520300  0.49990800  1
  C  C26  1  0.49980500  0.19081900  0.49995500  1
  C  C27  1  0.91033400  0.31844900  0.50083500  1
  C  C28  1  0.08947800  0.31853000  0.50040400  1
  C  C29  1  0.61039900  0.90528700  0.66431200  1
  C  C30  1  0.38931200  0.90526400  0.33550900  1
  N  N1  1  0.49981500  0.26988800  0.49994400  1
  N  N2  1  0.49985900  0.72611300  0.49992300  1
  O  O1  1  0.37868000  0.57684600  0.50432700  1
  O  O2  1  0.62084900  0.57632600  0.50423000  1
  O  O3  1  0.37886200  0.41964000  0.49560500  1
  O  O4  1  0.62095900  0.41912000  0.49557500  1
  O  O5  1  0.49683500  0.57629000  0.32423200  1
  O  O6  1  0.49688800  0.57679300  0.67587000  1
  O  O7  1  0.50278200  0.41915300  0.32370900  1
  O  O8  1  0.50285000  0.41965400  0.67592700  1
