# generated using pymatgen
data_Zn2H19C23N5O8
_symmetry_space_group_name_H-M   'P 1'
_cell_length_a   6.58880100
_cell_length_b   9.02695800
_cell_length_c   12.37067900
_cell_angle_alpha   90.00000000
_cell_angle_beta   80.33728500
_cell_angle_gamma   90.00000000
_symmetry_Int_Tables_number   1
_chemical_formula_structural   Zn2H19C23N5O8
_chemical_formula_sum   'Zn2 H19 C23 N5 O8'
_cell_volume   725.33034854
_cell_formula_units_Z   1
loop_
 _symmetry_equiv_pos_site_id
 _symmetry_equiv_pos_as_xyz
  1  'x, y, z'
loop_
 _atom_site_type_symbol
 _atom_site_label
 _atom_site_symmetry_multiplicity
 _atom_site_fract_x
 _atom_site_fract_y
 _atom_site_fract_z
 _atom_site_occupancy
  Zn  Zn1  1  0.48798600  0.83360600  0.49874100  1
  Zn  Zn2  1  0.50537300  0.16570300  0.50098000  1
  H  H1  1  0.52781400  0.91420700  0.84633300  1
  H  H2  1  0.39163800  0.07665800  0.78147900  1
  H  H3  1  0.46929900  0.05833400  0.14490700  1
  H  H4  1  0.64584400  0.92095000  0.01950900  1
  H  H5  1  0.73545800  0.96603200  0.15409700  1
  H  H6  1  0.18114700  0.62631200  0.58509100  1
  H  H7  1  0.18772500  0.38570200  0.53669100  1
  H  H8  1  0.26509500  0.58683800  0.39710300  1
  H  H9  1  0.37719800  0.34955400  0.35576700  1
  H  H10  1  0.79257000  0.61156900  0.42916400  1
  H  H11  1  0.82841000  0.37499100  0.48300200  1
  H  H12  1  0.74516000  0.65300100  0.57351800  1
  H  H13  1  0.69079700  0.40493400  0.61966600  1
  H  H14  1  0.51860700  0.63677700  0.32508600  1
  H  H15  1  0.64602300  0.40202900  0.33743200  1
  H  H16  1  0.54233400  0.57377000  0.69369300  1
  H  H17  1  0.29228900  0.56804900  0.75379600  1
  H  H18  1  0.42841000  0.37288500  0.71780300  1
  H  H19  1  0.16996600  0.37231600  0.72673700  1
  C  C1  1  0.81324500  0.98320500  0.75284800  1
  C  C2  1  0.68434700  0.94703900  0.84856300  1
  C  C3  1  0.75292400  0.95083300  0.94731600  1
  C  C4  1  0.01940200  0.00791900  0.75456500  1
  C  C5  1  0.08652100  0.01771700  0.85442600  1
  C  C6  1  0.95371400  0.99123200  0.95117800  1
  C  C7  1  0.02696900  0.00052400  0.04964100  1
  C  C8  1  0.89804000  0.98252600  0.14903300  1
  C  C9  1  0.97214800  0.99244800  0.24630900  1
  C  C10  1  0.28880200  0.05287900  0.85722700  1
  C  C11  1  0.23184300  0.03210500  0.04887800  1
  C  C12  1  0.30789800  0.03660400  0.14627400  1
  C  C13  1  0.18001700  0.01292800  0.24526800  1
  C  C14  1  0.72364900  0.99222400  0.65318800  1
  C  C15  1  0.17362600  0.00491100  0.65442600  1
  C  C16  1  0.27107900  0.00638400  0.34524600  1
  C  C17  1  0.82086000  0.99475100  0.34672900  1
  C  C18  1  0.33568800  0.57899200  0.58742300  1
  C  C19  1  0.32553300  0.41232700  0.57360000  1
  C  C20  1  0.43295900  0.57678600  0.39675800  1
  C  C21  1  0.49380500  0.41437100  0.39062700  1
  C  C22  1  0.68821600  0.59008000  0.50768400  1
  C  C23  1  0.68890000  0.42553900  0.53167300  1
  N  N1  1  0.35852000  0.05815700  0.95345500  1
  N  N2  1  0.48162600  0.63915700  0.49732500  1
  N  N3  1  0.50730500  0.36022100  0.49989900  1
  N  N4  1  0.39679100  0.61744900  0.69143900  1
  N  N5  1  0.30794500  0.33813400  0.67901200  1
  O  O1  1  0.67715800  0.12333300  0.61768000  1
  O  O2  1  0.65965900  0.86837500  0.61621900  1
  O  O3  1  0.24178100  0.87502600  0.61539600  1
  O  O4  1  0.25857100  0.13051400  0.61829600  1
  O  O5  1  0.31569700  0.87572700  0.38198200  1
  O  O6  1  0.33293600  0.13083600  0.38332100  1
  O  O7  1  0.75058700  0.12455500  0.38412300  1
  O  O8  1  0.73396200  0.86885000  0.38120900  1
