# generated using pymatgen
data_CuH7C18NO4F3
_symmetry_space_group_name_H-M   'P 1'
_cell_length_a   11.81723900
_cell_length_b   12.17623900
_cell_length_c   13.34730100
_cell_angle_alpha   116.44226100
_cell_angle_beta   78.98060600
_cell_angle_gamma   102.08862200
_symmetry_Int_Tables_number   1
_chemical_formula_structural   CuH7C18NO4F3
_chemical_formula_sum   'Cu2 H14 C36 N2 O8 F6'
_cell_volume   1670.94232483
_cell_formula_units_Z   2
loop_
 _symmetry_equiv_pos_site_id
 _symmetry_equiv_pos_as_xyz
  1  'x, y, z'
loop_
 _atom_site_type_symbol
 _atom_site_label
 _atom_site_symmetry_multiplicity
 _atom_site_fract_x
 _atom_site_fract_y
 _atom_site_fract_z
 _atom_site_occupancy
  Cu  Cu1  1  0.54402200  0.09298000  0.47751200  1
  Cu  Cu2  1  0.48849500  0.89388400  0.52307900  1
  H  H1  1  0.28503300  0.45303200  0.20171600  1
  H  H2  1  0.27799300  0.25252300  0.07072900  1
  H  H3  1  0.57726900  0.36397200  0.81084300  1
  H  H4  1  0.66212400  0.90501000  0.12341700  1
  H  H5  1  0.63076900  0.55125100  0.85711500  1
  H  H6  1  0.70763100  0.76493700  0.92840000  1
  H  H7  1  0.36219300  0.66581600  0.26597300  1
  H  H8  1  0.74063800  0.55347200  0.31522900  1
  H  H9  1  0.78079500  0.37441400  0.29419900  1
  H  H10  1  0.44145300  0.31482900  0.54527400  1
  H  H11  1  0.29662800  0.81106300  0.65837900  1
  H  H12  1  0.33728200  0.45822000  0.61821500  1
  H  H13  1  0.23085900  0.63120800  0.69963300  1
  H  H14  1  0.63950300  0.71857400  0.40407200  1
  C  C1  1  0.53562000  0.85079700  0.28758100  1
  C  C2  1  0.73151400  0.99789000  0.51269800  1
  C  C3  1  0.48601000  0.13580900  0.71237900  1
  C  C4  1  0.30065300  0.99129300  0.49171800  1
  C  C5  1  0.85302900  0.99705600  0.51174300  1
  C  C6  1  0.95570000  0.99631500  0.50747900  1
  C  C7  1  0.07627000  0.99518400  0.50062900  1
  C  C8  1  0.17898000  0.99376800  0.49528600  1
  C  C9  1  0.34331600  0.27514400  0.01172900  1
  C  C10  1  0.45721300  0.22010100  0.83221400  1
  C  C11  1  0.62170700  0.80974200  0.09398200  1
  C  C12  1  0.64851200  0.73042300  0.98383800  1
  C  C13  1  0.60422100  0.60665600  0.94413200  1
  C  C14  1  0.52612800  0.56013000  0.01313500  1
  C  C15  1  0.49319300  0.64337900  0.12312500  1
  C  C16  1  0.47775900  0.43380200  0.97484000  1
  C  C17  1  0.39375100  0.39670900  0.04516200  1
  C  C18  1  0.35483200  0.48139400  0.14907600  1
  C  C19  1  0.40232900  0.60330400  0.18707800  1
  C  C20  1  0.50988000  0.34283500  0.86860400  1
  C  C21  1  0.37177100  0.18583500  0.90537500  1
  C  C22  1  0.54754600  0.76686500  0.16601000  1
  C  C23  1  0.70453600  0.35744800  0.34702500  1
  C  C24  1  0.34802500  0.73632300  0.62165900  1
  C  C25  1  0.31019400  0.63411700  0.64441800  1
  C  C26  1  0.37176400  0.53531100  0.59717000  1
  C  C27  1  0.47166400  0.53721400  0.52368300  1
  C  C28  1  0.50695400  0.64328500  0.50237600  1
  C  C29  1  0.53820100  0.43731800  0.47088800  1
  C  C30  1  0.63362400  0.44626200  0.39649800  1
  C  C31  1  0.66490600  0.54712100  0.37339200  1
  C  C32  1  0.60446800  0.64425200  0.42645800  1
  C  C33  1  0.51546500  0.32928100  0.48947500  1
  C  C34  1  0.68633400  0.25755000  0.37259800  1
  C  C35  1  0.30367600  0.05816200  0.87141500  1
  C  C36  1  0.78849400  0.18538700  0.33458100  1
  N  N1  1  0.58879600  0.24190600  0.44225100  1
  N  N2  1  0.44746000  0.74345000  0.55474500  1
  O  O1  1  0.55282800  0.97102200  0.32031900  1
  O  O2  1  0.51587300  0.80254900  0.35991700  1
  O  O3  1  0.70210200  0.08245100  0.49230000  1
  O  O4  1  0.65489600  0.91478200  0.53381300  1
  O  O5  1  0.51747900  0.18657200  0.64058800  1
  O  O6  1  0.47490500  0.01508700  0.68034100  1
  O  O7  1  0.37650000  0.08025200  0.47719200  1
  O  O8  1  0.32903600  0.90679500  0.51435000  1
  F  F1  1  0.25251300  0.02616300  0.77547600  1
  F  F2  1  0.21580900  0.05340600  0.95475400  1
  F  F3  1  0.37640800  0.97413700  0.85311700  1
  F  F4  1  0.75557700  0.05966900  0.29248000  1
  F  F5  1  0.85292500  0.22474900  0.42373200  1
  F  F6  1  0.86151000  0.20698000  0.24913500  1
