# generated using pymatgen
data_ZnH13C17N3O4
_symmetry_space_group_name_H-M   'P 1'
_cell_length_a   14.36808000
_cell_length_b   8.54873600
_cell_length_c   14.95956200
_cell_angle_alpha   90.00000000
_cell_angle_beta   90.97527400
_cell_angle_gamma   90.00000000
_symmetry_Int_Tables_number   1
_chemical_formula_structural   ZnH13C17N3O4
_chemical_formula_sum   'Zn2 H26 C34 N6 O8'
_cell_volume   1837.20069809
_cell_formula_units_Z   2
loop_
 _symmetry_equiv_pos_site_id
 _symmetry_equiv_pos_as_xyz
  1  'x, y, z'
loop_
 _atom_site_type_symbol
 _atom_site_label
 _atom_site_symmetry_multiplicity
 _atom_site_fract_x
 _atom_site_fract_y
 _atom_site_fract_z
 _atom_site_occupancy
  Zn  Zn1  1  0.89705900  0.50039900  0.51080200  1
  Zn  Zn2  1  0.10294100  0.50039900  0.48919800  1
  H  H1  1  0.04436800  0.00039900  0.56068300  1
  H  H2  1  0.95563200  0.00039900  0.43931700  1
  H  H3  1  0.99996700  0.25122600  0.80058400  1
  H  H4  1  0.00003300  0.74957300  0.19941600  1
  H  H5  1  0.00003300  0.25122600  0.19941600  1
  H  H6  1  0.99996700  0.74957300  0.80058400  1
  H  H7  1  0.42215700  0.50040100  0.35231100  1
  H  H8  1  0.57784300  0.50040100  0.64768900  1
  H  H9  1  0.66224000  0.39501500  0.34856800  1
  H  H10  1  0.66224100  0.60579600  0.34857300  1
  H  H11  1  0.52149400  0.60702500  0.25031500  1
  H  H12  1  0.52149600  0.39380100  0.25030900  1
  H  H13  1  0.67885900  0.39455900  0.18514500  1
  H  H14  1  0.67885800  0.60628500  0.18515200  1
  H  H15  1  0.53872300  0.39446000  0.08549000  1
  H  H16  1  0.63406400  0.50043500  0.03641200  1
  H  H17  1  0.53872500  0.60640500  0.08549600  1
  H  H18  1  0.33776000  0.39501500  0.65143200  1
  H  H19  1  0.33775900  0.60579600  0.65142700  1
  H  H20  1  0.47850600  0.60702500  0.74968500  1
  H  H21  1  0.47850400  0.39380100  0.74969100  1
  H  H22  1  0.32114100  0.39455900  0.81485500  1
  H  H23  1  0.32114100  0.60628500  0.81484800  1
  H  H24  1  0.46127700  0.39446000  0.91451000  1
  H  H25  1  0.36593600  0.50043500  0.96358800  1
  H  H26  1  0.46127500  0.60640500  0.91450400  1
  C  C1  1  0.02102500  0.13991200  0.67536300  1
  C  C2  1  0.97897500  0.86088600  0.32463700  1
  C  C3  1  0.97897500  0.13991200  0.32463700  1
  C  C4  1  0.02102500  0.86088600  0.67536300  1
  C  C5  1  0.00746400  0.14072200  0.76638400  1
  C  C6  1  0.99253600  0.86007600  0.23361600  1
  C  C7  1  0.99253600  0.14072200  0.23361600  1
  C  C8  1  0.00746400  0.86007600  0.76638400  1
  C  C9  1  0.00519000  0.00039900  0.81286100  1
  C  C10  1  0.99481000  0.00039900  0.18713900  1
  C  C11  1  0.45816600  0.50040200  0.41612600  1
  C  C12  1  0.54183400  0.50040200  0.58387400  1
  C  C13  1  0.03288400  0.00039900  0.63158700  1
  C  C14  1  0.96711600  0.00039900  0.36841300  1
  C  C15  1  0.44555000  0.50040300  0.57592100  1
  C  C16  1  0.55445000  0.50040300  0.42407900  1
  C  C17  1  0.99938800  0.00040000  0.08937000  1
  C  C18  1  0.00061200  0.00040000  0.91063000  1
  C  C19  1  0.30495400  0.50040000  0.48299300  1
  C  C20  1  0.69504600  0.50040000  0.51700700  1
  C  C21  1  0.40462200  0.50040100  0.49168000  1
  C  C22  1  0.59537800  0.50040100  0.50832000  1
  C  C23  1  0.01439800  0.71887000  0.62147000  1
  C  C24  1  0.98560200  0.28192800  0.37853000  1
  C  C25  1  0.98560200  0.71887000  0.37853000  1
  C  C26  1  0.01439800  0.28192800  0.62147000  1
  C  C27  1  0.61730800  0.50040600  0.34502400  1
  C  C28  1  0.56520000  0.50041400  0.25584500  1
  C  C29  1  0.63443800  0.50042200  0.18039100  1
  C  C30  1  0.58295400  0.50043100  0.09113200  1
  C  C31  1  0.38269200  0.50040600  0.65497600  1
  C  C32  1  0.43480000  0.50041400  0.74415500  1
  C  C33  1  0.36556200  0.50042200  0.81960900  1
  C  C34  1  0.41704600  0.50043100  0.90886800  1
  N  N1  1  0.00047800  0.86435100  0.95582500  1
  N  N2  1  0.99952200  0.13644800  0.04417500  1
  N  N3  1  0.99952200  0.86435100  0.04417500  1
  N  N4  1  0.00047800  0.13644800  0.95582500  1
  N  N5  1  0.77552700  0.50039900  0.52134000  1
  N  N6  1  0.22447300  0.50039900  0.47866000  1
  O  O1  1  0.08969700  0.66966800  0.58187000  1
  O  O2  1  0.91030300  0.33112900  0.41813000  1
  O  O3  1  0.91030300  0.66966800  0.41813000  1
  O  O4  1  0.08969700  0.33112900  0.58187000  1
  O  O5  1  0.93099200  0.66369700  0.60298600  1
  O  O6  1  0.06900800  0.33710100  0.39701400  1
  O  O7  1  0.06900800  0.66369700  0.39701400  1
  O  O8  1  0.93099200  0.33710100  0.60298600  1
