# generated using pymatgen
data_ZnH12C16NO4
_symmetry_space_group_name_H-M   'P 1'
_cell_length_a   13.50148900
_cell_length_b   8.53669300
_cell_length_c   11.36634900
_cell_angle_alpha   90.00000000
_cell_angle_beta   96.50185700
_cell_angle_gamma   90.00000000
_symmetry_Int_Tables_number   1
_chemical_formula_structural   ZnH12C16NO4
_chemical_formula_sum   'Zn2 H24 C32 N2 O8'
_cell_volume   1301.63732646
_cell_formula_units_Z   2
loop_
 _symmetry_equiv_pos_site_id
 _symmetry_equiv_pos_as_xyz
  1  'x, y, z'
loop_
 _atom_site_type_symbol
 _atom_site_label
 _atom_site_symmetry_multiplicity
 _atom_site_fract_x
 _atom_site_fract_y
 _atom_site_fract_z
 _atom_site_occupancy
  Zn  Zn1  1  0.49081100  0.50516700  0.86795000  1
  Zn  Zn2  1  0.50918900  0.50516700  0.13205000  1
  H  H1  1  0.16300400  0.75460300  0.00775300  1
  H  H2  1  0.83705100  0.25571600  0.99226800  1
  H  H3  1  0.83699600  0.75460300  0.99224700  1
  H  H4  1  0.16294900  0.25571600  0.00773300  1
  H  H5  1  0.36964400  0.50554000  0.29478100  1
  H  H6  1  0.63035600  0.50554000  0.70522000  1
  H  H7  1  0.67566200  0.50725400  0.29109500  1
  H  H8  1  0.32433800  0.50725400  0.70890500  1
  H  H9  1  0.42641000  0.00522800  0.96243200  1
  H  H10  1  0.57359000  0.00522800  0.03756900  1
  H  H11  1  0.26039000  0.41466500  0.39564500  1
  H  H12  1  0.17159300  0.52677700  0.61385100  1
  H  H13  1  0.21702400  0.32810200  0.59495200  1
  H  H14  1  0.11881900  0.40832700  0.49222100  1
  H  H15  1  0.23242700  0.73989100  0.50511200  1
  H  H16  1  0.15927000  0.65620200  0.37728600  1
  H  H17  1  0.28831200  0.70832000  0.37085400  1
  H  H18  1  0.73961000  0.41466500  0.60435500  1
  H  H19  1  0.82840700  0.52677700  0.38614900  1
  H  H20  1  0.78297600  0.32810200  0.40504800  1
  H  H21  1  0.88118100  0.40832700  0.50777900  1
  H  H22  1  0.76757300  0.73989100  0.49488800  1
  H  H23  1  0.84073000  0.65620200  0.62271500  1
  H  H24  1  0.71168800  0.70832000  0.62914700  1
  C  C1  1  0.30299100  0.86522700  0.99198000  1
  C  C2  1  0.69704200  0.14516200  0.00803600  1
  C  C3  1  0.69700900  0.86522700  0.00802000  1
  C  C4  1  0.30295800  0.14516200  0.99196500  1
  C  C5  1  0.20224100  0.86431600  0.00251700  1
  C  C6  1  0.79779100  0.14602300  0.99749700  1
  C  C7  1  0.79775900  0.86431600  0.99748300  1
  C  C8  1  0.20220900  0.14602300  0.00250400  1
  C  C9  1  0.15118800  0.00515600  0.00266100  1
  C  C10  1  0.84881200  0.00515600  0.99734000  1
  C  C11  1  0.38546600  0.50385000  0.65586000  1
  C  C12  1  0.61453400  0.50385000  0.34414000  1
  C  C13  1  0.55860700  0.50387600  0.65340800  1
  C  C14  1  0.44139300  0.50387600  0.34659300  1
  C  C15  1  0.35022000  0.00520700  0.97935200  1
  C  C16  1  0.64978000  0.00520700  0.02064800  1
  C  C17  1  0.04474600  0.00513400  0.00129600  1
  C  C18  1  0.95525400  0.00513400  0.99870400  1
  C  C19  1  0.54769300  0.50243200  0.53034000  1
  C  C20  1  0.45230700  0.50243200  0.46966100  1
  C  C21  1  0.36364600  0.72307200  0.99554800  1
  C  C22  1  0.63641200  0.28734100  0.00446600  1
  C  C23  1  0.63635400  0.72307200  0.00445200  1
  C  C24  1  0.36358800  0.28734100  0.99553400  1
  C  C25  1  0.36966200  0.50054900  0.53328600  1
  C  C26  1  0.63033900  0.50054900  0.46671400  1
  C  C27  1  0.26478800  0.49728600  0.47104300  1
  C  C28  1  0.18883300  0.43659400  0.54898500  1
  C  C29  1  0.23435800  0.66068600  0.42806600  1
  C  C30  1  0.73521200  0.49728600  0.52895700  1
  C  C31  1  0.81116700  0.43659400  0.45101500  1
  C  C32  1  0.76564200  0.66068600  0.57193500  1
  N  N1  1  0.52176400  0.50505000  0.28721700  1
  N  N2  1  0.47823600  0.50505000  0.71278300  1
  O  O1  1  0.40542100  0.67414200  0.09913100  1
  O  O2  1  0.59460600  0.33624900  0.90092700  1
  O  O3  1  0.59457900  0.67414200  0.90086900  1
  O  O4  1  0.40539400  0.33624900  0.09907400  1
  O  O5  1  0.38818700  0.66879400  0.89490600  1
  O  O6  1  0.61185800  0.34163300  0.10506500  1
  O  O7  1  0.61181300  0.66879400  0.10509400  1
  O  O8  1  0.38814200  0.34163300  0.89493500  1
