# generated using pymatgen
data_CuH6C16INO4
_symmetry_space_group_name_H-M   'P 1'
_cell_length_a   15.98831200
_cell_length_b   14.57066600
_cell_length_c   10.83919600
_cell_angle_alpha   90.00000000
_cell_angle_beta   89.98989500
_cell_angle_gamma   90.00000000
_symmetry_Int_Tables_number   1
_chemical_formula_structural   CuH6C16INO4
_chemical_formula_sum   'Cu2 H12 C32 I2 N2 O8'
_cell_volume   2525.10289857
_cell_formula_units_Z   2
loop_
 _symmetry_equiv_pos_site_id
 _symmetry_equiv_pos_as_xyz
  1  'x, y, z'
loop_
 _atom_site_type_symbol
 _atom_site_label
 _atom_site_symmetry_multiplicity
 _atom_site_fract_x
 _atom_site_fract_y
 _atom_site_fract_z
 _atom_site_occupancy
  Cu  Cu1  1  0.50001800  0.58574500  0.50000500  1
  Cu  Cu2  1  0.50001400  0.40534800  0.50002200  1
  H  H1  1  0.50253100  0.35397600  0.11135400  1
  H  H2  1  0.49732700  0.35399000  0.88866500  1
  H  H3  1  0.56099800  0.66989000  0.20650100  1
  H  H4  1  0.43928100  0.67003900  0.79360000  1
  H  H5  1  0.07693800  0.64172800  0.49977500  1
  H  H6  1  0.92308900  0.64172400  0.50028500  1
  H  H7  1  0.92309300  0.34928800  0.50025700  1
  H  H8  1  0.07694500  0.34929100  0.49974800  1
  H  H9  1  0.62350700  0.07996100  0.57382300  1
  H  H10  1  0.37652100  0.07996300  0.42622500  1
  H  H11  1  0.62351100  0.91113600  0.57380500  1
  H  H12  1  0.37652400  0.91113700  0.42620700  1
  C  C1  1  0.34114600  0.49560700  0.49942200  1
  C  C2  1  0.65888600  0.49560100  0.50060600  1
  C  C3  1  0.50544400  0.49762500  0.26487200  1
  C  C4  1  0.49459500  0.49764800  0.73515800  1
  C  C5  1  0.53103900  0.66632800  0.11759700  1
  C  C6  1  0.46925000  0.66640300  0.88249000  1
  C  C7  1  0.51793300  0.74809000  0.05751700  1
  C  C8  1  0.48248900  0.74813100  0.94259200  1
  C  C9  1  0.49043400  0.58318100  0.93756300  1
  C  C10  1  0.50973600  0.58315500  0.06249200  1
  C  C11  1  0.50892800  0.50043900  0.12830400  1
  C  C12  1  0.49112700  0.50046800  0.87173200  1
  C  C13  1  0.50262600  0.41902800  0.06350500  1
  C  C14  1  0.49732400  0.41903900  0.93652000  1
  C  C15  1  0.95689000  0.57746900  0.50017400  1
  C  C16  1  0.04313900  0.57747200  0.49987400  1
  C  C17  1  0.91376300  0.49550600  0.50032200  1
  C  C18  1  0.08626900  0.49551100  0.49971100  1
  C  C19  1  0.95689200  0.41354400  0.50015900  1
  C  C20  1  0.04314300  0.41354600  0.49985900  1
  C  C21  1  0.82400800  0.49551500  0.50054100  1
  C  C22  1  0.17602400  0.49552300  0.49949100  1
  C  C23  1  0.25139300  0.49555300  0.49939200  1
  C  C24  1  0.74863900  0.49554300  0.50063800  1
  C  C25  1  0.56924200  0.94822600  0.54137800  1
  C  C26  1  0.43079200  0.94822700  0.45864100  1
  C  C27  1  0.50001800  0.90090300  0.50000400  1
  C  C28  1  0.43078900  0.04287000  0.45865200  1
  C  C29  1  0.56924000  0.04286900  0.54138900  1
  C  C30  1  0.50001300  0.09019200  0.50002600  1
  C  C31  1  0.50002000  0.80241500  0.49999700  1
  C  C32  1  0.50001200  0.18867900  0.50003200  1
  I  I1  1  0.54728500  0.87288700  0.14503300  1
  I  I2  1  0.45333100  0.87299800  0.85511100  1
  N  N1  1  0.50001200  0.26808600  0.50003500  1
  N  N2  1  0.50002100  0.72300800  0.49999400  1
  O  O1  1  0.38007600  0.57210500  0.52892500  1
  O  O2  1  0.61995900  0.57209700  0.47108800  1
  O  O3  1  0.38018300  0.41909800  0.47025100  1
  O  O4  1  0.61984600  0.41909500  0.52979100  1
  O  O5  1  0.48030800  0.57176400  0.32338700  1
  O  O6  1  0.51972800  0.57177900  0.67662600  1
  O  O7  1  0.52033300  0.41934500  0.32295200  1
  O  O8  1  0.47969600  0.41936500  0.67708900  1
