# generated using pymatgen
data_Zn3H12C31O28
_symmetry_space_group_name_H-M   'P 1'
_cell_length_a   18.88551300
_cell_length_b   18.95499800
_cell_length_c   19.15124500
_cell_angle_alpha   109.07967100
_cell_angle_beta   109.43604300
_cell_angle_gamma   109.40528700
_symmetry_Int_Tables_number   1
_chemical_formula_structural   Zn3H12C31O28
_chemical_formula_sum   'Zn6 H24 C62 O56'
_cell_volume   5309.29069300
_cell_formula_units_Z   2
loop_
 _symmetry_equiv_pos_site_id
 _symmetry_equiv_pos_as_xyz
  1  'x, y, z'
loop_
 _atom_site_type_symbol
 _atom_site_label
 _atom_site_symmetry_multiplicity
 _atom_site_fract_x
 _atom_site_fract_y
 _atom_site_fract_z
 _atom_site_occupancy
  Zn  Zn1  1  0.41461300  0.99436100  0.91839200  1
  Zn  Zn2  1  0.55189400  0.99679000  0.05882400  1
  Zn  Zn3  1  0.43386900  0.43396400  0.50416800  1
  Zn  Zn4  1  0.56977200  0.57442400  0.50457800  1
  Zn  Zn5  1  0.99953200  0.43349800  0.93771200  1
  Zn  Zn6  1  0.99360400  0.56770100  0.07138800  1
  H  H1  1  0.51398100  0.13973700  0.25816300  1
  H  H2  1  0.44127300  0.21015700  0.14708300  1
  H  H3  1  0.73801400  0.37815500  0.00629000  1
  H  H4  1  0.38048700  0.86055000  0.12341000  1
  H  H5  1  0.09813700  0.63979600  0.87188300  1
  H  H6  1  0.20044100  0.75016500  0.86159200  1
  H  H7  1  0.85958100  0.63499000  0.89504600  1
  H  H8  1  0.25033500  0.48774800  0.12437100  1
  H  H9  1  0.39227500  0.18233600  0.41474000  1
  H  H10  1  0.52899300  0.52235600  0.76345600  1
  H  H11  1  0.56181200  0.84421100  0.57084100  1
  H  H12  1  0.53731000  0.01772700  0.77463200  1
  H  H13  1  0.36907000  0.81808500  0.28215800  1
  H  H14  1  0.70455500  0.73985500  0.77778900  1
  H  H15  1  0.74555600  0.24296300  0.65168100  1
  H  H16  1  0.69283000  0.36462000  0.30305700  1
  H  H17  1  0.60779200  0.29992700  0.47454000  1
  H  H18  1  0.45138600  0.42505200  0.22631700  1
  H  H19  1  0.06313200  0.56138700  0.34575200  1
  H  H20  1  0.28236400  0.55427500  0.52351800  1
  H  H21  1  0.82067600  0.05467700  0.05032200  1
  H  H22  1  0.01332700  0.27653200  0.05261300  1
  H  H23  1  0.53864800  0.33679000  0.98824900  1
  H  H24  1  0.42038600  0.72537400  0.95218600  1
  C  C1  1  0.60555400  0.11582900  0.99142300  1
  C  C2  1  0.47846200  0.11233300  0.10359500  1
  C  C3  1  0.36181800  0.87627400  0.98717400  1
  C  C4  1  0.48697600  0.87784900  0.87272600  1
  C  C5  1  0.48019700  0.23965000  0.30351700  1
  C  C6  1  0.52276000  0.32546700  0.33341200  1
  C  C7  1  0.49373100  0.18242400  0.24277600  1
  C  C8  1  0.47093700  0.17450300  0.16579600  1
  C  C9  1  0.74543600  0.17473100  0.99409400  1
  C  C10  1  0.81214000  0.23857100  0.99776200  1
  C  C11  1  0.80881400  0.31170900  0.00174700  1
  C  C12  1  0.73936900  0.32043300  0.00209400  1
  C  C13  1  0.67226600  0.25737600  0.99797000  1
  C  C14  1  0.67432600  0.18304600  0.99275500  1
  C  C15  1  0.48626900  0.73987200  0.81387400  1
  C  C16  1  0.48629400  0.67636300  0.75168400  1
  C  C17  1  0.49147200  0.68538400  0.68392000  1
  C  C18  1  0.49456900  0.75761000  0.67814400  1
  C  C19  1  0.49173700  0.81951300  0.73889600  1
  C  C20  1  0.48950300  0.81181700  0.80798800  1
  C  C21  1  0.31789600  0.81239700  0.06843400  1
  C  C22  1  0.26047100  0.75090700  0.07529400  1
  C  C23  1  0.18077000  0.68811100  0.00362200  1
  C  C24  1  0.16022300  0.68855400  0.92748600  1
  C  C25  1  0.21740300  0.75122100  0.92181800  1
  C  C26  1  0.29698500  0.81262700  0.99218900  1
  C  C27  1  0.62533100  0.51081100  0.62614000  1
  C  C28  1  0.51070200  0.38895100  0.39092300  1
  C  C29  1  0.37802300  0.49783400  0.38275700  1
  C  C30  1  0.49415700  0.61937700  0.61897500  1
  C  C31  1  0.87703300  0.50121400  0.88600600  1
  C  C32  1  0.87668600  0.38010600  0.00380100  1
  C  C33  1  0.11497700  0.49876700  0.12320400  1
  C  C34  1  0.11636900  0.62078800  0.00532200  1
  C  C35  1  0.75339600  0.58454200  0.77239600  1
  C  C36  1  0.81174400  0.57859800  0.83388300  1
  C  C37  1  0.81082500  0.50189800  0.81901300  1
  C  C38  1  0.75038000  0.42896000  0.74071100  1
  C  C39  1  0.69252500  0.43437400  0.67826600  1
  C  C40  1  0.69240600  0.51112100  0.69349400  1
  C  C41  1  0.31218000  0.49156200  0.24236000  1
  C  C42  1  0.24802400  0.49207600  0.18116400  1
  C  C43  1  0.18030500  0.49715300  0.19048000  1
  C  C44  1  0.17588700  0.50067400  0.26248600  1
  C  C45  1  0.23995000  0.49998500  0.32447900  1
  C  C46  1  0.30944400  0.49685600  0.31562600  1
  C  C47  1  0.41875200  0.19586000  0.32663600  1
  C  C48  1  0.48030700  0.59955000  0.75822700  1
  C  C49  1  0.50114500  0.77007800  0.60807300  1
  C  C50  1  0.48902900  0.89213700  0.72795200  1
  C  C51  1  0.28851000  0.75270200  0.15791100  1
  C  C52  1  0.75875000  0.66927000  0.79497500  1
  C  C53  1  0.74548300  0.34543100  0.72364900  1
  C  C54  1  0.59057600  0.36091400  0.31278800  1
  C  C55  1  0.63389100  0.35890100  0.59357700  1
  C  C56  1  0.37827300  0.47945600  0.22396100  1
  C  C57  1  0.10357200  0.50441500  0.27378300  1
  C  C58  1  0.23212200  0.50037400  0.39850800  1
  C  C59  1  0.75276600  0.10004000  0.99518000  1
  C  C60  1  0.88644500  0.22861200  0.99862100  1
  C  C61  1  0.60381300  0.27509500  0.00484800  1
  C  C62  1  0.48043600  0.72954800  0.88499400  1
  O  O1  1  0.52416200  0.08408100  0.93582700  1
  O  O2  1  0.62891900  0.09029600  0.04664500  1
  O  O3  1  0.42694400  0.08255800  0.02295400  1
  O  O4  1  0.53405600  0.08735700  0.13072900  1
  O  O5  1  0.33741300  0.90138700  0.93137100  1
  O  O6  1  0.44278400  0.90713000  0.04148600  1
  O  O7  1  0.43153400  0.90300000  0.84653700  1
  O  O8  1  0.53946800  0.90880600  0.95383600  1
  O  O9  1  0.54400800  0.45744200  0.59744900  1
  O  O10  1  0.64875500  0.56209200  0.59604100  1
  O  O11  1  0.45467900  0.36390000  0.41572700  1
  O  O12  1  0.56202200  0.47044200  0.41976000  1
  O  O13  1  0.35516600  0.44635200  0.41267500  1
  O  O14  1  0.45950000  0.55073500  0.41110200  1
  O  O15  1  0.44169300  0.53784300  0.58933200  1
  O  O16  1  0.54932100  0.64472000  0.59318000  1
  O  O17  1  0.90981800  0.45203600  0.86426800  1
  O  O18  1  0.90247600  0.55193600  0.96547900  1
  O  O19  1  0.90905200  0.35859300  0.95472000  1
  O  O20  1  0.90051400  0.46018800  0.05300100  1
  O  O21  1  0.09168700  0.45031700  0.04370800  1
  O  O22  1  0.08291900  0.54872200  0.14479900  1
  O  O23  1  0.09133300  0.54094500  0.95474800  1
  O  O24  1  0.08436500  0.64282300  0.05471300  1
  O  O25  1  0.35361500  0.12769200  0.27142100  1
  O  O26  1  0.43986800  0.22314200  0.41119200  1
  O  O27  1  0.42021200  0.55571200  0.76332300  1
  O  O28  1  0.54302900  0.57641900  0.75878100  1
  O  O29  1  0.44889600  0.71461500  0.53431700  1
  O  O30  1  0.56685000  0.84591500  0.62571800  1
  O  O31  1  0.43393300  0.87884100  0.66188300  1
  O  O32  1  0.54864000  0.97626000  0.79270600  1
  O  O33  1  0.25580100  0.68828800  0.16251100  1
  O  O34  1  0.35667600  0.82789000  0.23156200  1
  O  O35  1  0.82475000  0.73379400  0.85509400  1
  O  O36  1  0.68899200  0.67733800  0.75201700  1
  O  O37  1  0.73825800  0.31735200  0.77132900  1
  O  O38  1  0.74971700  0.29826100  0.65364100  1
  O  O39  1  0.59682500  0.41781800  0.29462000  1
  O  O40  1  0.65066200  0.33288900  0.31800100  1
  O  O41  1  0.58026400  0.29340800  0.58376900  1
  O  O42  1  0.64525100  0.35954000  0.52564400  1
  O  O43  1  0.39967000  0.50652200  0.18045500  1
  O  O44  1  0.41040800  0.43007600  0.24820500  1
  O  O45  1  0.02916600  0.45134200  0.21798500  1
  O  O46  1  0.11961300  0.56834800  0.34840500  1
  O  O47  1  0.16722200  0.44524000  0.38828600  1
  O  O48  1  0.29837900  0.56346500  0.48053600  1
  O  O49  1  0.69491400  0.02724200  0.94063900  1
  O  O50  1  0.82603500  0.11218600  0.05892500  1
  O  O51  1  0.87506500  0.16368400  0.94399500  1
  O  O52  1  0.97023600  0.29341000  0.06154500  1
  O  O53  1  0.56808300  0.24872600  0.04072600  1
  O  O54  1  0.58469400  0.32882300  0.97655600  1
  O  O55  1  0.53248400  0.71677900  0.92956100  1
  O  O56  1  0.41513200  0.73380600  0.90154200  1
