# generated using pymatgen
data_CuH9C16N3O4
_symmetry_space_group_name_H-M   'P 1'
_cell_length_a   12.17700100
_cell_length_b   17.96100700
_cell_length_c   6.82157100
_cell_angle_alpha   90.00000000
_cell_angle_beta   80.66062600
_cell_angle_gamma   90.00000000
_symmetry_Int_Tables_number   1
_chemical_formula_structural   CuH9C16N3O4
_chemical_formula_sum   'Cu2 H18 C32 N6 O8'
_cell_volume   1472.17727768
_cell_formula_units_Z   2
loop_
 _symmetry_equiv_pos_site_id
 _symmetry_equiv_pos_as_xyz
  1  'x, y, z'
loop_
 _atom_site_type_symbol
 _atom_site_label
 _atom_site_symmetry_multiplicity
 _atom_site_fract_x
 _atom_site_fract_y
 _atom_site_fract_z
 _atom_site_occupancy
  Cu  Cu1  1  0.99226300  0.92695900  0.97933300  1
  Cu  Cu2  1  0.00773700  0.07304100  0.02066700  1
  H  H1  1  0.11462900  0.19711700  0.75361500  1
  H  H2  1  0.88537100  0.80288300  0.24638500  1
  H  H3  1  0.91921200  0.20061700  0.32114200  1
  H  H4  1  0.08078700  0.79938300  0.67885800  1
  H  H5  1  0.11317700  0.33370200  0.74013800  1
  H  H6  1  0.88682300  0.66629700  0.25986200  1
  H  H7  1  0.91588500  0.33769400  0.31568400  1
  H  H8  1  0.08411600  0.66230600  0.68431500  1
  H  H9  1  0.33944400  0.92560800  0.07920500  1
  H  H10  1  0.66055600  0.07439200  0.92079600  1
  H  H11  1  0.53646800  0.90284100  0.03991700  1
  H  H12  1  0.46353200  0.09715800  0.96008400  1
  H  H13  1  0.43397700  0.99943800  0.93985400  1
  H  H14  1  0.56602300  0.00056100  0.06014300  1
  H  H15  1  0.63763700  0.87288300  0.30314500  1
  H  H16  1  0.36236300  0.12711800  0.69685400  1
  H  H17  1  0.27601700  0.06397600  0.86012200  1
  H  H18  1  0.72398300  0.93602500  0.13987700  1
  C  C1  1  0.14749100  0.98140700  0.23624800  1
  C  C2  1  0.85250900  0.01859300  0.76375200  1
  C  C3  1  0.14996800  0.00490200  0.68015200  1
  C  C4  1  0.85003200  0.99509800  0.31984900  1
  C  C5  1  0.07278300  0.22847900  0.87915800  1
  C  C6  1  0.92721700  0.77152100  0.12084200  1
  C  C7  1  0.96393900  0.23036700  0.19520000  1
  C  C8  1  0.03606100  0.76963300  0.80480100  1
  C  C9  1  0.07168500  0.30514200  0.87095200  1
  C  C10  1  0.92831500  0.69485800  0.12904800  1
  C  C11  1  0.96154100  0.30731400  0.19183700  1
  C  C12  1  0.03845900  0.69268600  0.80816300  1
  C  C13  1  0.01461300  0.34502000  0.02722500  1
  C  C14  1  0.98538700  0.65498000  0.97277500  1
  C  C15  1  0.99224100  0.57391900  0.98580500  1
  C  C16  1  0.00775900  0.42608100  0.01419500  1
  C  C17  1  0.24438100  0.97234100  0.33853100  1
  C  C18  1  0.75561900  0.02765900  0.66146900  1
  C  C19  1  0.34217400  0.94871400  0.22459700  1
  C  C20  1  0.65782600  0.05128600  0.77540400  1
  C  C21  1  0.44318700  0.95915000  0.28809400  1
  C  C22  1  0.55681300  0.04085100  0.71190600  1
  C  C23  1  0.54773800  0.94842700  0.14448200  1
  C  C24  1  0.45226200  0.05157300  0.85551700  1
  C  C25  1  0.64572600  0.93098100  0.24773600  1
  C  C26  1  0.35427400  0.06902000  0.75226300  1
  C  C27  1  0.24799200  0.00369300  0.52392100  1
  C  C28  1  0.75200800  0.99630700  0.47607900  1
  C  C29  1  0.34972600  0.01844800  0.58077900  1
  C  C30  1  0.65027400  0.98155300  0.41922100  1
  C  C31  1  0.44675400  0.99376800  0.46697800  1
  C  C32  1  0.55324600  0.00623300  0.53302200  1
  N  N1  1  0.01853300  0.19228100  0.03899600  1
  N  N2  1  0.98146700  0.80771900  0.96100500  1
  N  N3  1  0.95067600  0.46539800  0.16510300  1
  N  N4  1  0.04932400  0.53460200  0.83489700  1
  N  N5  1  0.05681100  0.46137600  0.84888800  1
  N  N6  1  0.94318900  0.53862400  0.15111200  1
  O  O1  1  0.10907000  0.92396300  0.14902400  1
  O  O2  1  0.89093000  0.07603700  0.85097700  1
  O  O3  1  0.88355500  0.95090300  0.80424100  1
  O  O4  1  0.11644500  0.04909700  0.19575900  1
  O  O5  1  0.10479400  0.94085200  0.74198600  1
  O  O6  1  0.89520600  0.05914800  0.25801400  1
  O  O7  1  0.87546700  0.93440300  0.21473700  1
  O  O8  1  0.12453300  0.06559700  0.78526400  1
