# generated using pymatgen
data_Cu3H16C28(N2O5)4
_symmetry_space_group_name_H-M   'P 1'
_cell_length_a   21.55178300
_cell_length_b   21.55178300
_cell_length_c   18.27514600
_cell_angle_alpha   90.00000000
_cell_angle_beta   90.00000000
_cell_angle_gamma   90.00000000
_symmetry_Int_Tables_number   1
_chemical_formula_structural   Cu3H16C28(N2O5)4
_chemical_formula_sum   'Cu12 H64 C112 N32 O80'
_cell_volume   8488.42794399
_cell_formula_units_Z   4
loop_
 _symmetry_equiv_pos_site_id
 _symmetry_equiv_pos_as_xyz
  1  'x, y, z'
loop_
 _atom_site_type_symbol
 _atom_site_label
 _atom_site_symmetry_multiplicity
 _atom_site_fract_x
 _atom_site_fract_y
 _atom_site_fract_z
 _atom_site_occupancy
  Cu  Cu1  1  0.93925400  0.50000000  0.50000000  1
  Cu  Cu2  1  0.00000000  0.00000000  0.42829200  1
  Cu  Cu3  1  0.50000000  0.50000000  0.07170800  1
  Cu  Cu4  1  0.50000000  0.50000000  0.92829200  1
  Cu  Cu5  1  0.50000000  0.06074600  0.50000000  1
  Cu  Cu6  1  0.06074600  0.50000000  0.50000000  1
  Cu  Cu7  1  0.50000000  0.93925400  0.50000000  1
  Cu  Cu8  1  0.43925400  0.00000000  0.00000000  1
  Cu  Cu9  1  0.00000000  0.56074600  0.00000000  1
  Cu  Cu10  1  0.56074600  0.00000000  0.00000000  1
  Cu  Cu11  1  0.00000000  0.43925400  0.00000000  1
  Cu  Cu12  1  0.00000000  0.00000000  0.57170800  1
  H  H1  1  0.15885900  0.35636300  0.59108300  1
  H  H2  1  0.15289500  0.71442200  0.44731100  1
  H  H3  1  0.35636300  0.15885900  0.40891700  1
  H  H4  1  0.28557700  0.15289500  0.44731100  1
  H  H5  1  0.84114000  0.35636300  0.40891700  1
  H  H6  1  0.84710500  0.28557700  0.44731100  1
  H  H7  1  0.64363700  0.84114000  0.40891700  1
  H  H8  1  0.71442200  0.84710500  0.44731100  1
  H  H9  1  0.65886000  0.85636300  0.09108300  1
  H  H10  1  0.65289500  0.78557700  0.05268900  1
  H  H11  1  0.85636300  0.34114000  0.09108300  1
  H  H12  1  0.15289500  0.28557700  0.55268900  1
  H  H13  1  0.78557700  0.34710500  0.05268900  1
  H  H14  1  0.34114000  0.14363700  0.09108300  1
  H  H15  1  0.34710500  0.21442300  0.05268900  1
  H  H16  1  0.14363700  0.65886000  0.09108300  1
  H  H17  1  0.21442300  0.65289500  0.05268900  1
  H  H18  1  0.65886000  0.14363700  0.90891700  1
  H  H19  1  0.65289500  0.21442300  0.94731100  1
  H  H20  1  0.85636300  0.65886000  0.90891700  1
  H  H21  1  0.78557700  0.65289500  0.94731100  1
  H  H22  1  0.34114000  0.85636300  0.90891700  1
  H  H23  1  0.35636300  0.84114000  0.59108300  1
  H  H24  1  0.34710500  0.78557700  0.94731100  1
  H  H25  1  0.14363700  0.34114000  0.90891700  1
  H  H26  1  0.21442300  0.34710500  0.94731100  1
  H  H27  1  0.05468300  0.14503900  0.69923000  1
  H  H28  1  0.02297500  0.21559800  0.68635900  1
  H  H29  1  0.14503900  0.94531700  0.69923000  1
  H  H30  1  0.21559800  0.97702500  0.68635900  1
  H  H31  1  0.94531700  0.85496100  0.69923100  1
  H  H32  1  0.97702500  0.78440200  0.68635900  1
  H  H33  1  0.85496100  0.05468300  0.69923100  1
  H  H34  1  0.28557700  0.84710500  0.55268900  1
  H  H35  1  0.78440200  0.02297500  0.68635900  1
  H  H36  1  0.05468300  0.85496100  0.30076900  1
  H  H37  1  0.02297500  0.78440200  0.31364100  1
  H  H38  1  0.14503900  0.05468300  0.30077000  1
  H  H39  1  0.21559800  0.02297500  0.31364100  1
  H  H40  1  0.94531700  0.14503900  0.30077000  1
  H  H41  1  0.97702500  0.21559800  0.31364100  1
  H  H42  1  0.85496100  0.94531700  0.30076900  1
  H  H43  1  0.78440200  0.97702500  0.31364100  1
  H  H44  1  0.55468300  0.64503900  0.19923100  1
  H  H45  1  0.84114000  0.64363700  0.59108300  1
  H  H46  1  0.52297500  0.71559800  0.18635900  1
  H  H47  1  0.64503900  0.44531700  0.19923000  1
  H  H48  1  0.71559800  0.47702500  0.18635900  1
  H  H49  1  0.44531700  0.35496100  0.19923000  1
  H  H50  1  0.47702500  0.28440200  0.18635900  1
  H  H51  1  0.35496100  0.55468300  0.19923000  1
  H  H52  1  0.28440200  0.52297500  0.18635900  1
  H  H53  1  0.55468300  0.35496100  0.80077000  1
  H  H54  1  0.52297500  0.28440200  0.81364100  1
  H  H55  1  0.64503900  0.55468300  0.80076900  1
  H  H56  1  0.84710500  0.71442200  0.55268900  1
  H  H57  1  0.71559800  0.52297500  0.81364100  1
  H  H58  1  0.44531700  0.64503900  0.80077000  1
  H  H59  1  0.47702500  0.71559800  0.81364100  1
  H  H60  1  0.35496100  0.44531700  0.80077000  1
  H  H61  1  0.28440200  0.47702500  0.81364100  1
  H  H62  1  0.64363700  0.15886000  0.59108300  1
  H  H63  1  0.71442200  0.15289500  0.55268900  1
  H  H64  1  0.15886000  0.64363700  0.40891700  1
  C  C1  1  0.00000000  0.38231200  0.50000000  1
  C  C2  1  0.50000000  0.00000000  0.36141500  1
  C  C3  1  0.81584200  0.07467800  0.60264800  1
  C  C4  1  0.07467800  0.81584200  0.39735200  1
  C  C5  1  0.18415800  0.07467800  0.39735200  1
  C  C6  1  0.92532200  0.18415800  0.39735200  1
  C  C7  1  0.81584200  0.92532200  0.39735200  1
  C  C8  1  0.57467800  0.68415800  0.10264800  1
  C  C9  1  0.68415800  0.42532200  0.10264800  1
  C  C10  1  0.42532200  0.31584200  0.10264800  1
  C  C11  1  0.31584200  0.57467800  0.10264800  1
  C  C12  1  0.57467800  0.31584200  0.89735200  1
  C  C13  1  0.00000000  0.50000000  0.63858500  1
  C  C14  1  0.68415800  0.57467800  0.89735200  1
  C  C15  1  0.42532200  0.68415800  0.89735200  1
  C  C16  1  0.31584200  0.42532200  0.89735200  1
  C  C17  1  0.50000000  0.00000000  0.63858500  1
  C  C18  1  0.50000000  0.00000000  0.86141500  1
  C  C19  1  0.00000000  0.50000000  0.86141500  1
  C  C20  1  0.50000000  0.00000000  0.13858500  1
  C  C21  1  0.00000000  0.50000000  0.13858500  1
  C  C22  1  0.00000000  0.50000000  0.28295300  1
  C  C23  1  0.50000000  0.00000000  0.28295300  1
  C  C24  1  0.00000000  0.50000000  0.71704700  1
  C  C25  1  0.38231200  0.00000000  0.50000000  1
  C  C26  1  0.50000000  0.00000000  0.71704700  1
  C  C27  1  0.50000000  0.00000000  0.78295300  1
  C  C28  1  0.00000000  0.50000000  0.78295300  1
  C  C29  1  0.50000000  0.00000000  0.21704700  1
  C  C30  1  0.00000000  0.50000000  0.21704700  1
  C  C31  1  0.03663000  0.28234700  0.54926400  1
  C  C32  1  0.28234700  0.96337000  0.54926400  1
  C  C33  1  0.96337000  0.71765300  0.54926400  1
  C  C34  1  0.71765300  0.03663000  0.54926400  1
  C  C35  1  0.03663000  0.71765300  0.45073600  1
  C  C36  1  0.00000000  0.61768800  0.50000000  1
  C  C37  1  0.28234700  0.03663000  0.45073600  1
  C  C38  1  0.96337000  0.28234700  0.45073600  1
  C  C39  1  0.71765300  0.96337000  0.45073600  1
  C  C40  1  0.53663000  0.78234700  0.04926400  1
  C  C41  1  0.78234700  0.46337000  0.04926400  1
  C  C42  1  0.46337000  0.21765300  0.04926400  1
  C  C43  1  0.21765300  0.53663000  0.04926400  1
  C  C44  1  0.53663000  0.21765300  0.95073600  1
  C  C45  1  0.78234700  0.53663000  0.95073600  1
  C  C46  1  0.46337000  0.78234700  0.95073600  1
  C  C47  1  0.61768800  0.00000000  0.50000000  1
  C  C48  1  0.21765300  0.46337000  0.95073600  1
  C  C49  1  0.03599000  0.21808200  0.55001600  1
  C  C50  1  0.21808200  0.96401000  0.55001600  1
  C  C51  1  0.96401000  0.78191800  0.55001600  1
  C  C52  1  0.78191800  0.03599000  0.55001600  1
  C  C53  1  0.03599000  0.78191800  0.44998400  1
  C  C54  1  0.21808200  0.03599000  0.44998400  1
  C  C55  1  0.96401000  0.21808200  0.44998400  1
  C  C56  1  0.78191800  0.96401000  0.44998400  1
  C  C57  1  0.53599000  0.71808200  0.05001600  1
  C  C58  1  0.50000000  0.88231200  0.00000000  1
  C  C59  1  0.71808200  0.46401000  0.05001600  1
  C  C60  1  0.46401000  0.28191800  0.05001600  1
  C  C61  1  0.28191800  0.53599000  0.05001600  1
  C  C62  1  0.53599000  0.28191800  0.94998400  1
  C  C63  1  0.71808200  0.53599000  0.94998400  1
  C  C64  1  0.46401000  0.71808200  0.94998400  1
  C  C65  1  0.28191800  0.46401000  0.94998400  1
  C  C66  1  0.00000000  0.18590300  0.50000000  1
  C  C67  1  0.18590300  0.00000000  0.50000000  1
  C  C68  1  0.00000000  0.81409700  0.50000000  1
  C  C69  1  0.88231200  0.50000000  0.00000000  1
  C  C70  1  0.81409700  0.00000000  0.50000000  1
  C  C71  1  0.50000000  0.68590300  0.00000000  1
  C  C72  1  0.68590300  0.50000000  0.00000000  1
  C  C73  1  0.50000000  0.31409700  0.00000000  1
  C  C74  1  0.31409700  0.50000000  0.00000000  1
  C  C75  1  0.88209000  0.00000000  0.50000000  1
  C  C76  1  0.00000000  0.11791000  0.50000000  1
  C  C77  1  0.11791000  0.00000000  0.50000000  1
  C  C78  1  0.00000000  0.88209000  0.50000000  1
  C  C79  1  0.38209000  0.50000000  0.00000000  1
  C  C80  1  0.50000000  0.11768800  0.00000000  1
  C  C81  1  0.50000000  0.61791000  0.00000000  1
  C  C82  1  0.61791000  0.50000000  0.00000000  1
  C  C83  1  0.50000000  0.38209000  0.00000000  1
  C  C84  1  0.00000000  0.31440700  0.50000000  1
  C  C85  1  0.31440700  0.00000000  0.50000000  1
  C  C86  1  0.00000000  0.68559300  0.50000000  1
  C  C87  1  0.68559300  0.00000000  0.50000000  1
  C  C88  1  0.50000000  0.81440700  0.00000000  1
  C  C89  1  0.81440700  0.50000000  0.00000000  1
  C  C90  1  0.50000000  0.18559300  0.00000000  1
  C  C91  1  0.11768800  0.50000000  0.00000000  1
  C  C92  1  0.18559300  0.50000000  0.00000000  1
  C  C93  1  0.07530300  0.31664700  0.60150700  1
  C  C94  1  0.31664700  0.92469700  0.60150700  1
  C  C95  1  0.92469700  0.68335300  0.60150700  1
  C  C96  1  0.68335300  0.07530300  0.60150700  1
  C  C97  1  0.07530300  0.68335300  0.39849300  1
  C  C98  1  0.31664700  0.07530300  0.39849300  1
  C  C99  1  0.92469700  0.31664700  0.39849300  1
  C  C100  1  0.68335300  0.92469700  0.39849300  1
  C  C101  1  0.57530300  0.81664700  0.10150700  1
  C  C102  1  0.00000000  0.50000000  0.36141500  1
  C  C103  1  0.81664700  0.42469700  0.10150700  1
  C  C104  1  0.42469700  0.18335300  0.10150700  1
  C  C105  1  0.18335300  0.57530300  0.10150700  1
  C  C106  1  0.57530300  0.18335300  0.89849300  1
  C  C107  1  0.81664700  0.57530300  0.89849300  1
  C  C108  1  0.42469700  0.81664700  0.89849300  1
  C  C109  1  0.18335300  0.42469700  0.89849300  1
  C  C110  1  0.07467800  0.18415800  0.60264800  1
  C  C111  1  0.18415800  0.92532200  0.60264800  1
  C  C112  1  0.92532200  0.81584200  0.60264800  1
  N  N1  1  0.14130800  0.31169500  0.59881700  1
  N  N2  1  0.81169500  0.35869200  0.09881700  1
  N  N3  1  0.35869200  0.18830500  0.09881700  1
  N  N4  1  0.18830500  0.64130800  0.09881700  1
  N  N5  1  0.64130800  0.18830500  0.90118300  1
  N  N6  1  0.81169500  0.64130800  0.90118300  1
  N  N7  1  0.35869200  0.81169500  0.90118300  1
  N  N8  1  0.18830500  0.35869200  0.90118300  1
  N  N9  1  0.06341100  0.18960200  0.67934900  1
  N  N10  1  0.18960200  0.93658900  0.67934900  1
  N  N11  1  0.93658900  0.81039800  0.67934900  1
  N  N12  1  0.31169500  0.85869200  0.59881700  1
  N  N13  1  0.81039800  0.06341100  0.67934900  1
  N  N14  1  0.06341100  0.81039800  0.32065100  1
  N  N15  1  0.18960200  0.06341100  0.32065100  1
  N  N16  1  0.93658900  0.18960200  0.32065100  1
  N  N17  1  0.81039800  0.93658900  0.32065100  1
  N  N18  1  0.56341100  0.68960200  0.17934900  1
  N  N19  1  0.68960200  0.43658900  0.17934900  1
  N  N20  1  0.43658900  0.31039800  0.17934900  1
  N  N21  1  0.31039800  0.56341100  0.17934900  1
  N  N22  1  0.56341100  0.31039800  0.82065100  1
  N  N23  1  0.85869200  0.68830500  0.59881700  1
  N  N24  1  0.68960200  0.56341100  0.82065100  1
  N  N25  1  0.43658900  0.68960200  0.82065100  1
  N  N26  1  0.31039800  0.43658900  0.82065100  1
  N  N27  1  0.68830500  0.14130800  0.59881700  1
  N  N28  1  0.14130800  0.68830500  0.40118300  1
  N  N29  1  0.31169500  0.14130800  0.40118300  1
  N  N30  1  0.85869200  0.31169500  0.40118300  1
  N  N31  1  0.68830500  0.85869200  0.40118300  1
  N  N32  1  0.64130800  0.81169500  0.09881700  1
  O  O1  1  0.94861400  0.41135900  0.51943500  1
  O  O2  1  0.91135900  0.55138600  0.01943500  1
  O  O3  1  0.55138600  0.08864100  0.01943500  1
  O  O4  1  0.08864100  0.44861400  0.01943500  1
  O  O5  1  0.44861400  0.08864100  0.98056500  1
  O  O6  1  0.91135900  0.44861400  0.98056500  1
  O  O7  1  0.55138600  0.91135900  0.98056500  1
  O  O8  1  0.08864100  0.55138600  0.98056500  1
  O  O9  1  0.94860900  0.48355400  0.39552900  1
  O  O10  1  0.48355400  0.05139100  0.39552900  1
  O  O11  1  0.05139100  0.51644600  0.39552900  1
  O  O12  1  0.41135900  0.05138600  0.51943500  1
  O  O13  1  0.51644600  0.94860900  0.39552900  1
  O  O14  1  0.94860900  0.51644600  0.60447100  1
  O  O15  1  0.48355400  0.94860900  0.60447100  1
  O  O16  1  0.05139100  0.48355400  0.60447100  1
  O  O17  1  0.51644600  0.05139100  0.60447100  1
  O  O18  1  0.44860900  0.98355400  0.89552900  1
  O  O19  1  0.98355400  0.55139100  0.89552900  1
  O  O20  1  0.55139100  0.01644600  0.89552900  1
  O  O21  1  0.01644600  0.44860900  0.89552900  1
  O  O22  1  0.44860900  0.01644600  0.10447100  1
  O  O23  1  0.05138600  0.58864100  0.51943500  1
  O  O24  1  0.98355400  0.44860900  0.10447100  1
  O  O25  1  0.55139100  0.98355400  0.10447100  1
  O  O26  1  0.01644600  0.55139100  0.10447100  1
  O  O27  1  0.91119400  0.98395200  0.56068400  1
  O  O28  1  0.98395200  0.08880600  0.56068400  1
  O  O29  1  0.08880600  0.01604800  0.56068400  1
  O  O30  1  0.01604800  0.91119400  0.56068400  1
  O  O31  1  0.91119400  0.01604800  0.43931600  1
  O  O32  1  0.98395200  0.91119400  0.43931600  1
  O  O33  1  0.08880600  0.98395200  0.43931600  1
  O  O34  1  0.58864100  0.94861400  0.51943500  1
  O  O35  1  0.01604800  0.08880600  0.43931600  1
  O  O36  1  0.41119400  0.48395200  0.06068400  1
  O  O37  1  0.48395200  0.58880600  0.06068400  1
  O  O38  1  0.58880600  0.51604800  0.06068400  1
  O  O39  1  0.51604800  0.41119400  0.06068400  1
  O  O40  1  0.41119400  0.51604800  0.93931600  1
  O  O41  1  0.48395200  0.41119400  0.93931600  1
  O  O42  1  0.58880600  0.48395200  0.93931600  1
  O  O43  1  0.51604800  0.58880600  0.93931600  1
  O  O44  1  0.05103100  0.34987800  0.64728800  1
  O  O45  1  0.94861400  0.58864100  0.48056500  1
  O  O46  1  0.34987800  0.94896900  0.64728800  1
  O  O47  1  0.94896900  0.65012200  0.64728800  1
  O  O48  1  0.65012200  0.05103100  0.64728800  1
  O  O49  1  0.05103100  0.65012200  0.35271200  1
  O  O50  1  0.34987800  0.05103100  0.35271200  1
  O  O51  1  0.94896900  0.34987800  0.35271200  1
  O  O52  1  0.65012200  0.94896900  0.35271200  1
  O  O53  1  0.55103100  0.84987800  0.14728800  1
  O  O54  1  0.84987800  0.44896900  0.14728800  1
  O  O55  1  0.44896900  0.15012200  0.14728800  1
  O  O56  1  0.41135900  0.94861400  0.48056500  1
  O  O57  1  0.15012200  0.55103100  0.14728800  1
  O  O58  1  0.55103100  0.15012200  0.85271200  1
  O  O59  1  0.84987800  0.55103100  0.85271200  1
  O  O60  1  0.44896900  0.84987800  0.85271200  1
  O  O61  1  0.15012200  0.44896900  0.85271200  1
  O  O62  1  0.11635500  0.15066000  0.58085900  1
  O  O63  1  0.15066000  0.88364500  0.58085900  1
  O  O64  1  0.88364500  0.84934000  0.58085900  1
  O  O65  1  0.84934000  0.11635500  0.58085900  1
  O  O66  1  0.11635500  0.84934000  0.41914100  1
  O  O67  1  0.05138600  0.41135900  0.48056500  1
  O  O68  1  0.15066000  0.11635500  0.41914100  1
  O  O69  1  0.88364500  0.15066000  0.41914100  1
  O  O70  1  0.84934000  0.88364500  0.41914100  1
  O  O71  1  0.61635500  0.65066000  0.08085900  1
  O  O72  1  0.65066000  0.38364500  0.08085900  1
  O  O73  1  0.38364500  0.34934000  0.08085900  1
  O  O74  1  0.34934000  0.61635500  0.08085900  1
  O  O75  1  0.61635500  0.34934000  0.91914100  1
  O  O76  1  0.65066000  0.61635500  0.91914100  1
  O  O77  1  0.38364500  0.65066000  0.91914100  1
  O  O78  1  0.58864100  0.05138600  0.48056500  1
  O  O79  1  0.34934000  0.38364500  0.91914100  1
  O  O80  1  0.44861400  0.91135900  0.01943500  1
