# generated using pymatgen
data_Cu2H21C42N2ClO8
_symmetry_space_group_name_H-M   'P 1'
_cell_length_a   12.17892800
_cell_length_b   13.42033700
_cell_length_c   13.93927500
_cell_angle_alpha   104.33256100
_cell_angle_beta   72.84556900
_cell_angle_gamma   116.33212200
_symmetry_Int_Tables_number   1
_chemical_formula_structural   Cu2H21C42N2ClO8
_chemical_formula_sum   'Cu2 H21 C42 N2 Cl1 O8'
_cell_volume   1932.86249361
_cell_formula_units_Z   1
loop_
 _symmetry_equiv_pos_site_id
 _symmetry_equiv_pos_as_xyz
  1  'x, y, z'
loop_
 _atom_site_type_symbol
 _atom_site_label
 _atom_site_symmetry_multiplicity
 _atom_site_fract_x
 _atom_site_fract_y
 _atom_site_fract_z
 _atom_site_occupancy
  Cu  Cu1  1  0.90874200  0.51916600  0.55302300  1
  Cu  Cu2  1  0.10817200  0.46826400  0.51164200  1
  H  H1  1  0.87021200  0.47195800  0.07424000  1
  H  H2  1  0.14593300  0.51097000  0.98919700  1
  H  H3  1  0.92768100  0.11970600  0.38765400  1
  H  H4  1  0.78899200  0.93442300  0.33478800  1
  H  H5  1  0.62556900  0.18929100  0.58491800  1
  H  H6  1  0.08698000  0.86328600  0.67120100  1
  H  H7  1  0.43829900  0.13107600  0.64970800  1
  H  H8  1  0.22025200  0.05736600  0.71751600  1
  H  H9  1  0.35410600  0.72808200  0.39978200  1
  H  H10  1  0.82193900  0.68193800  0.70367500  1
  H  H11  1  0.43803600  0.68789600  0.72881300  1
  H  H12  1  0.63535800  0.72262500  0.75196700  1
  H  H13  1  0.67982100  0.43102300  0.47346700  1
  H  H14  1  0.18652200  0.30697300  0.36477500  1
  H  H15  1  0.53263200  0.34118300  0.39926900  1
  H  H16  1  0.36145300  0.25019600  0.31544000  1
  H  H17  1  0.27245900  0.59224300  0.64333300  1
  H  H18  1  0.66468200  0.72733200  0.40752300  1
  H  H19  1  0.68884000  0.56492500  0.10269000  1
  H  H20  1  0.57324600  0.65986400  0.07060000  1
  H  H21  1  0.50473100  0.78963200  0.20637500  1
  C  C1  1  0.15196200  0.70479800  0.54947500  1
  C  C2  1  0.97940500  0.49057800  0.72178800  1
  C  C3  1  0.86576600  0.28342700  0.51091900  1
  C  C4  1  0.03657000  0.49573500  0.34276000  1
  C  C5  1  0.04887500  0.49578500  0.23703900  1
  C  C6  1  0.05919400  0.49812500  0.04530100  1
  C  C7  1  0.95698300  0.48512300  0.01830100  1
  C  C8  1  0.96124400  0.48784900  0.91468100  1
  C  C9  1  0.05487600  0.49651400  0.14927300  1
  C  C10  1  0.96700600  0.48961900  0.82725100  1
  C  C11  1  0.74815800  0.98593900  0.39219500  1
  C  C12  1  0.78263700  0.16490800  0.49029000  1
  C  C13  1  0.18488300  0.89488600  0.63381200  1
  C  C14  1  0.26020400  0.00419500  0.66112100  1
  C  C15  1  0.38691000  0.04563300  0.62090900  1
  C  C16  1  0.44133100  0.97930100  0.54766800  1
  C  C17  1  0.36278600  0.86966100  0.51636800  1
  C  C18  1  0.57151100  0.01932000  0.50497400  1
  C  C19  1  0.61983100  0.94881800  0.43221300  1
  C  C20  1  0.53892600  0.84365500  0.39635900  1
  C  C21  1  0.41243100  0.80710400  0.43567300  1
  C  C22  1  0.65537300  0.12859300  0.53185000  1
  C  C23  1  0.82893900  0.09228600  0.42234900  1
  C  C24  1  0.23496200  0.82542000  0.56375900  1
  C  C25  1  0.64304100  0.65826700  0.68926200  1
  C  C26  1  0.26152100  0.34902100  0.40555000  1
  C  C27  1  0.36027700  0.31705800  0.37721900  1
  C  C28  1  0.45831600  0.37033800  0.42610700  1
  C  C29  1  0.45715900  0.45622900  0.50575800  1
  C  C30  1  0.35321600  0.48440100  0.53406700  1
  C  C31  1  0.55659600  0.51522400  0.55766600  1
  C  C32  1  0.54815800  0.59869600  0.63709900  1
  C  C33  1  0.44472400  0.62329800  0.66605500  1
  C  C34  1  0.34912400  0.56741800  0.61552300  1
  C  C35  1  0.66534100  0.49485900  0.53319900  1
  C  C36  1  0.74810200  0.63587700  0.66191000  1
  C  C37  1  0.58270300  0.76849600  0.31491000  1
  C  C38  1  0.64534500  0.71331900  0.33333333  1
  C  C39  1  0.68404000  0.64084100  0.25697400  1
  C  C40  1  0.65857200  0.62189100  0.16249600  1
  C  C41  1  0.59388500  0.67518200  0.14449700  1
  C  C42  1  0.55549500  0.74802300  0.22073400  1
  N  N1  1  0.75871500  0.55667500  0.58370500  1
  N  N2  1  0.25851300  0.43231200  0.48205700  1
  Cl  Cl1  1  0.76560800  0.57298400  0.28021500  1
  O  O1  1  0.03029900  0.67483400  0.56766000  1
  O  O2  1  0.20119200  0.63088500  0.52728300  1
  O  O3  1  0.90437000  0.51889600  0.69423400  1
  O  O4  1  0.06794100  0.46441200  0.65736800  1
  O  O5  1  0.81481300  0.35669000  0.53900100  1
  O  O6  1  0.98742800  0.31257700  0.49408300  1
  O  O7  1  0.94622900  0.52002800  0.40698800  1
  O  O8  1  0.11445100  0.47088800  0.37053500  1
