# generated using pymatgen
data_Fe2H7C36Br7(NO4)4
_symmetry_space_group_name_H-M   'P 1'
_cell_length_a   9.40525300
_cell_length_b   17.18843500
_cell_length_c   17.36233700
_cell_angle_alpha   105.99067300
_cell_angle_beta   89.05234800
_cell_angle_gamma   76.24781200
_symmetry_Int_Tables_number   1
_chemical_formula_structural   Fe2H7C36Br7(NO4)4
_chemical_formula_sum   'Fe2 H7 C36 Br7 N4 O16'
_cell_volume   2610.73503971
_cell_formula_units_Z   1
loop_
 _symmetry_equiv_pos_site_id
 _symmetry_equiv_pos_as_xyz
  1  'x, y, z'
loop_
 _atom_site_type_symbol
 _atom_site_label
 _atom_site_symmetry_multiplicity
 _atom_site_fract_x
 _atom_site_fract_y
 _atom_site_fract_z
 _atom_site_occupancy
  Fe  Fe1  1  0.49141500  0.99544400  0.35436000  1
  Fe  Fe2  1  0.52269400  0.01145400  0.64480000  1
  H  H1  1  0.82503900  0.97658100  0.88569600  1
  H  H2  1  0.19088200  0.02092400  0.11112600  1
  H  H3  1  0.98171300  0.02892200  0.68026500  1
  H  H4  1  0.17129800  0.95004600  0.97966600  1
  H  H5  1  0.84668200  0.04210100  0.01604800  1
  H  H6  1  0.17961300  0.28367600  0.43881100  1
  H  H7  1  0.32029600  0.32810600  0.71531000  1
  C  C1  1  0.13461900  0.02109300  0.76984200  1
  C  C2  1  0.15429200  0.01091200  0.84628900  1
  C  C3  1  0.04173600  0.99630800  0.88865500  1
  C  C4  1  0.91076400  0.99158400  0.85476700  1
  C  C5  1  0.88820500  0.00577400  0.78106800  1
  C  C6  1  0.99934800  0.02112800  0.73927500  1
  C  C7  1  0.06413600  0.98306000  0.96845300  1
  C  C8  1  0.95435000  0.00921500  0.02674100  1
  C  C9  1  0.86592500  0.98139800  0.14872400  1
  C  C10  1  0.88186600  0.97549100  0.22638500  1
  C  C11  1  0.01040400  0.98526700  0.26181900  1
  C  C12  1  0.12324200  0.99887600  0.21894100  1
  C  C13  1  0.10490600  0.00649100  0.14245500  1
  C  C14  1  0.97686000  0.99760100  0.10697800  1
  C  C15  1  0.76068200  0.96361400  0.27292800  1
  C  C16  1  0.58094100  0.83392200  0.36721500  1
  C  C17  1  0.25981000  0.00922100  0.25542500  1
  C  C18  1  0.33235500  0.14569900  0.46069900  1
  C  C19  1  0.66791700  0.86187900  0.53415600  1
  C  C20  1  0.74964100  0.99974000  0.74523400  1
  C  C21  1  0.40725400  0.16814700  0.63111000  1
  C  C22  1  0.25412500  0.02810900  0.71794800  1
  C  C23  1  0.29605300  0.22718700  0.52132300  1
  C  C24  1  0.21198300  0.29398800  0.49950700  1
  C  C25  1  0.16582900  0.37225600  0.55418800  1
  C  C26  1  0.20766900  0.38390400  0.63186600  1
  C  C27  1  0.29070000  0.31721500  0.65408900  1
  C  C28  1  0.33453000  0.23814300  0.60009600  1
  C  C29  1  0.90137000  0.56300800  0.47932700  1
  C  C30  1  0.07304300  0.44053600  0.52829600  1
  C  C31  1  0.75382200  0.61617200  0.37910800  1
  C  C32  1  0.67358500  0.68065800  0.35261300  1
  C  C33  1  0.64856200  0.76351400  0.39993400  1
  C  C34  1  0.69873000  0.77839200  0.47678400  1
  C  C35  1  0.78065300  0.71343700  0.50212900  1
  C  C36  1  0.81073100  0.63190000  0.45313900  1
  Br  Br1  1  0.32859300  0.02374400  0.89886200  1
  Br  Br2  1  0.16088600  0.49108200  0.71026800  1
  Br  Br3  1  0.77538000  0.50459700  0.31213800  1
  Br  Br4  1  0.59439800  0.64786000  0.25125800  1
  Br  Br5  1  0.85631600  0.74090300  0.60507900  1
  Br  Br6  1  0.69651600  0.96032100  0.09538900  1
  Br  Br7  1  0.02183700  0.99577000  0.37437900  1
  N  N1  1  0.96717500  0.49971500  0.57955000  1
  N  N2  1  0.88253400  0.56016600  0.55539600  1
  N  N3  1  0.00557100  0.50292800  0.42764100  1
  N  N4  1  0.08970900  0.44217700  0.45167600  1
  O  O1  1  0.62414000  0.00206300  0.26807600  1
  O  O2  1  0.57297800  0.82146000  0.28961500  1
  O  O3  1  0.78888200  0.92014800  0.32459400  1
  O  O4  1  0.54773800  0.91126600  0.41386500  1
  O  O5  1  0.31508700  0.96455000  0.30329100  1
  O  O6  1  0.32782300  0.06199900  0.23925300  1
  O  O7  1  0.46989600  0.10785600  0.43426200  1
  O  O8  1  0.22640800  0.11377100  0.42854000  1
  O  O9  1  0.53405600  0.89823200  0.56850900  1
  O  O10  1  0.77395700  0.89969800  0.55209000  1
  O  O11  1  0.70523300  0.03866100  0.69111200  1
  O  O12  1  0.67247200  0.95293100  0.76533600  1
  O  O13  1  0.22535500  0.04256600  0.64875300  1
  O  O14  1  0.46861200  0.09349100  0.58283200  1
  O  O15  1  0.39152500  0.01115400  0.73500100  1
  O  O16  1  0.40185200  0.17907600  0.70905000  1
