# generated using pymatgen
data_Zn2H17C36N2ClO8
_symmetry_space_group_name_H-M   'P 1'
_cell_length_a   12.16461700
_cell_length_b   8.54398200
_cell_length_c   13.47089400
_cell_angle_alpha   90.00000000
_cell_angle_beta   108.17292700
_cell_angle_gamma   90.00000000
_symmetry_Int_Tables_number   1
_chemical_formula_structural   Zn2H17C36N2ClO8
_chemical_formula_sum   'Zn2 H17 C36 N2 Cl1 O8'
_cell_volume   1330.25048995
_cell_formula_units_Z   1
loop_
 _symmetry_equiv_pos_site_id
 _symmetry_equiv_pos_as_xyz
  1  'x, y, z'
loop_
 _atom_site_type_symbol
 _atom_site_label
 _atom_site_symmetry_multiplicity
 _atom_site_fract_x
 _atom_site_fract_y
 _atom_site_fract_z
 _atom_site_occupancy
  Zn  Zn1  1  0.87799500  0.51129500  0.47479500  1
  Zn  Zn2  1  0.13539400  0.51044600  0.52784600  1
  H  H1  1  0.00455000  0.76059700  0.83760900  1
  H  H2  1  0.00272100  0.26079000  0.83695400  1
  H  H3  1  0.01079100  0.76091500  0.16564300  1
  H  H4  1  0.00911000  0.26112200  0.16489000  1
  H  H5  1  0.05420000  0.01083100  0.58294800  1
  H  H6  1  0.95963900  0.01110200  0.41973800  1
  H  H7  1  0.28984600  0.49783500  0.71890100  1
  H  H8  1  0.68726100  0.51086800  0.75962300  1
  H  H9  1  0.29896800  0.51628800  0.41292700  1
  H  H10  1  0.72958900  0.51505200  0.28559400  1
  H  H11  1  0.39769100  0.50393700  0.31565300  1
  H  H12  1  0.52031200  0.51010100  0.20932000  1
  H  H13  1  0.80006500  0.51321400  0.64864000  1
  H  H14  1  0.60190500  0.26196600  0.80008700  1
  H  H15  1  0.64217000  0.40305800  0.11220800  1
  H  H16  1  0.51032900  0.62574300  0.04599800  1
  H  H17  1  0.42458500  0.66549900  0.85733500  1
  C  C1  1  0.02559400  0.87102800  0.70222100  1
  C  C2  1  0.02432600  0.15042000  0.70176600  1
  C  C3  1  0.01162200  0.87022000  0.79999900  1
  C  C4  1  0.01046600  0.15120300  0.79958600  1
  C  C5  1  0.00966000  0.01073900  0.85068900  1
  C  C6  1  0.03893400  0.01079200  0.65723600  1
  C  C7  1  0.00713500  0.01079300  0.95662500  1
  C  C8  1  0.00645800  0.01085800  0.04597200  1
  C  C9  1  0.00312500  0.87051300  0.20303300  1
  C  C10  1  0.00206600  0.15155000  0.20257000  1
  C  C11  1  0.98934200  0.87129300  0.30088600  1
  C  C12  1  0.98816100  0.15089900  0.30037200  1
  C  C13  1  0.97486900  0.01107200  0.34543500  1
  C  C14  1  0.00396600  0.01096900  0.15191700  1
  C  C15  1  0.01932300  0.72910700  0.64026400  1
  C  C16  1  0.01810300  0.29233500  0.63981100  1
  C  C17  1  0.99552700  0.72919200  0.36279600  1
  C  C18  1  0.99435500  0.29308600  0.36219100  1
  C  C19  1  0.45810000  0.49184800  0.70462300  1
  C  C20  1  0.67667200  0.51319400  0.33665500  1
  C  C21  1  0.55877700  0.51068800  0.29312400  1
  C  C22  1  0.48899300  0.50783500  0.35544800  1
  C  C23  1  0.53786400  0.50773400  0.46325000  1
  C  C24  1  0.65868600  0.50915800  0.50478000  1
  C  C25  1  0.46932400  0.50516200  0.53034300  1
  C  C26  1  0.52355700  0.49834600  0.63735300  1
  C  C27  1  0.64243500  0.50409400  0.67699000  1
  C  C28  1  0.70869800  0.50886500  0.61182300  1
  C  C29  1  0.34798800  0.50996400  0.49423100  1
  C  C30  1  0.34016800  0.50169600  0.66557400  1
  C  C31  1  0.51030300  0.46868500  0.81700100  1
  C  C32  1  0.58249400  0.34265100  0.85416000  1
  C  C33  1  0.62981000  0.31934600  0.96017900  1
  C  C34  1  0.60439600  0.42129600  0.02919700  1
  C  C35  1  0.53050500  0.54549300  0.99218200  1
  C  C36  1  0.48237500  0.56800400  0.88614400  1
  N  N1  1  0.28678000  0.50940900  0.56217900  1
  N  N2  1  0.72631000  0.51203700  0.44104800  1
  Cl  Cl1  1  0.72226000  0.16038400  0.00717400  1
  O  O1  1  0.11459700  0.67948500  0.62477700  1
  O  O2  1  0.11338000  0.34136400  0.62420700  1
  O  O3  1  0.91648000  0.67505600  0.58820700  1
  O  O4  1  0.91545800  0.34719500  0.58799200  1
  O  O5  1  0.89979200  0.68016400  0.37814300  1
  O  O6  1  0.89878700  0.34239500  0.37772100  1
  O  O7  1  0.09857000  0.67429000  0.41451700  1
  O  O8  1  0.09746700  0.34748400  0.41396000  1
