# generated using pymatgen
data_ZnH13C16(NO2)2
_symmetry_space_group_name_H-M   'P 1'
_cell_length_a   6.68506800
_cell_length_b   13.22852300
_cell_length_c   14.39251000
_cell_angle_alpha   100.08642600
_cell_angle_beta   89.90979000
_cell_angle_gamma   100.81287300
_symmetry_Int_Tables_number   1
_chemical_formula_structural   ZnH13C16(NO2)2
_chemical_formula_sum   'Zn2 H26 C32 N4 O8'
_cell_volume   1230.21701700
_cell_formula_units_Z   2
loop_
 _symmetry_equiv_pos_site_id
 _symmetry_equiv_pos_as_xyz
  1  'x, y, z'
loop_
 _atom_site_type_symbol
 _atom_site_label
 _atom_site_symmetry_multiplicity
 _atom_site_fract_x
 _atom_site_fract_y
 _atom_site_fract_z
 _atom_site_occupancy
  Zn  Zn1  1  0.00392300  0.48019200  0.89676600  1
  Zn  Zn2  1  0.98149500  0.49753900  0.10556600  1
  H  H1  1  0.71356400  0.14322200  0.93184800  1
  H  H2  1  0.27178800  0.83449700  0.07039200  1
  H  H3  1  0.45771100  0.98385300  0.93410700  1
  H  H4  1  0.52760400  0.99387800  0.06812800  1
  H  H5  1  0.00917400  0.16902000  0.01254800  1
  H  H6  1  0.97624900  0.80874000  0.98981100  1
  H  H7  1  0.69834400  0.52547500  0.42786100  1
  H  H8  1  0.30398500  0.45628100  0.57376000  1
  H  H9  1  0.57683000  0.45428300  0.63765200  1
  H  H10  1  0.55438400  0.55793400  0.57228600  1
  H  H11  1  0.83514600  0.57740600  0.74544500  1
  H  H12  1  0.75651300  0.73615000  0.62396000  1
  H  H13  1  0.98728400  0.68367500  0.62770800  1
  H  H14  1  0.91249300  0.76508300  0.73156300  1
  H  H15  1  0.45724300  0.66887300  0.71179500  1
  H  H16  1  0.61340200  0.69781700  0.81933900  1
  H  H17  1  0.46870100  0.56707500  0.77985000  1
  H  H18  1  0.43629100  0.43225300  0.40118400  1
  H  H19  1  0.45176500  0.57440000  0.44389300  1
  H  H20  1  0.23028600  0.45557600  0.26052700  1
  H  H21  1  0.41119000  0.68857000  0.32156400  1
  H  H22  1  0.16712800  0.63690200  0.36420100  1
  H  H23  1  0.20319900  0.62833200  0.23821300  1
  H  H24  1  0.65825900  0.58946100  0.29637000  1
  H  H25  1  0.52884000  0.54012500  0.18247100  1
  H  H26  1  0.59566200  0.44992000  0.25300200  1
  C  C1  1  0.55782100  0.14930000  0.94800000  1
  C  C2  1  0.42754900  0.82843100  0.05426900  1
  C  C3  1  0.41503000  0.05968600  0.95106300  1
  C  C4  1  0.57032000  0.91805100  0.05120400  1
  C  C5  1  0.21972400  0.06726900  0.97819800  1
  C  C6  1  0.76564900  0.91047700  0.02410300  1
  C  C7  1  0.16483900  0.16352700  0.99567600  1
  C  C8  1  0.82057200  0.81422400  0.00666200  1
  C  C9  1  0.30376500  0.25287500  0.98870500  1
  C  C10  1  0.68165600  0.72486700  0.01363000  1
  C  C11  1  0.50493500  0.24680800  0.96834300  1
  C  C12  1  0.48047500  0.73093000  0.03395600  1
  C  C13  1  0.22192600  0.34824400  0.99439400  1
  C  C14  1  0.76347100  0.62948200  0.00793900  1
  C  C15  1  0.66895100  0.33973300  0.97940500  1
  C  C16  1  0.31649600  0.63799700  0.02288900  1
  C  C17  1  0.82710700  0.50892300  0.46108500  1
  C  C18  1  0.16832800  0.46997000  0.54149200  1
  C  C19  1  0.99246600  0.49864100  0.40712000  1
  C  C20  1  0.00024100  0.47885400  0.59515200  1
  C  C21  1  0.16772100  0.48483100  0.44891000  1
  C  C22  1  0.83166000  0.50293800  0.55565600  1
  C  C23  1  0.97930700  0.50415500  0.30856800  1
  C  C24  1  0.00914900  0.47366900  0.69379800  1
  C  C25  1  0.65817500  0.52640400  0.61472300  1
  C  C26  1  0.73580800  0.60858300  0.70044900  1
  C  C27  1  0.85606600  0.70480900  0.66880200  1
  C  C28  1  0.55682000  0.63752300  0.75661600  1
  C  C29  1  0.36425900  0.50134800  0.40172000  1
  C  C30  1  0.34077200  0.52063500  0.30215800  1
  C  C31  1  0.27517700  0.62504700  0.30655600  1
  C  C32  1  0.54450600  0.52535000  0.25537100  1
  N  N1  1  0.07515900  0.97729200  0.98719200  1
  N  N2  1  0.91020100  0.00045700  0.01510300  1
  N  N3  1  0.01478400  0.47156500  0.77377800  1
  N  N4  1  0.97079300  0.50619900  0.22859000  1
  O  O1  1  0.15135300  0.38595500  0.07551900  1
  O  O2  1  0.83404300  0.59176900  0.92680400  1
  O  O3  1  0.17942200  0.37630400  0.91468900  1
  O  O4  1  0.80599000  0.60142900  0.08765400  1
  O  O5  1  0.76022000  0.36624000  0.90387500  1
  O  O6  1  0.22520600  0.61145900  0.09835900  1
  O  O7  1  0.73541300  0.38403900  0.06556300  1
  O  O8  1  0.25000200  0.59368300  0.93678400  1
