# generated using pymatgen
data_Cu2H31C45N5O11
_symmetry_space_group_name_H-M   'P 1'
_cell_length_a   14.99924800
_cell_length_b   13.53138700
_cell_length_c   10.69545600
_cell_angle_alpha   90.00000000
_cell_angle_beta   89.99720800
_cell_angle_gamma   90.00000000
_symmetry_Int_Tables_number   1
_chemical_formula_structural   Cu2H31C45N5O11
_chemical_formula_sum   'Cu2 H31 C45 N5 O11'
_cell_volume   2170.75647887
_cell_formula_units_Z   1
loop_
 _symmetry_equiv_pos_site_id
 _symmetry_equiv_pos_as_xyz
  1  'x, y, z'
loop_
 _atom_site_type_symbol
 _atom_site_label
 _atom_site_symmetry_multiplicity
 _atom_site_fract_x
 _atom_site_fract_y
 _atom_site_fract_z
 _atom_site_occupancy
  Cu  Cu1  1  0.49850400  0.61935800  0.51922100  1
  Cu  Cu2  1  0.49855700  0.42176100  0.51932400  1
  H  H1  1  0.53580400  0.68035300  0.11985900  1
  H  H2  1  0.42796800  0.38278700  0.13290100  1
  H  H3  1  0.42032100  0.65042100  0.12554300  1
  H  H4  1  0.36386800  0.49267700  0.12496700  1
  H  H5  1  0.41580800  0.65259900  0.91826600  1
  H  H6  1  0.35946900  0.47641200  0.91698500  1
  H  H7  1  0.53456000  0.67578500  0.91286700  1
  H  H8  1  0.43841600  0.37598700  0.92130700  1
  H  H9  1  0.63775200  0.53930800  0.90239900  1
  H  H10  1  0.60353500  0.41324400  0.89769600  1
  H  H11  1  0.77997800  0.67729400  0.53778400  1
  H  H12  1  0.77612000  0.36379000  0.51962100  1
  H  H13  1  0.08346900  0.27477400  0.51985200  1
  H  H14  1  0.21847300  0.36254100  0.51007200  1
  H  H15  1  0.21705400  0.67831500  0.51851800  1
  H  H16  1  0.07939100  0.76518800  0.52743700  1
  H  H17  1  0.91677400  0.76434300  0.53549300  1
  H  H18  1  0.39055200  0.77606700  0.64460600  1
  H  H19  1  0.38953600  0.26517700  0.64292200  1
  H  H20  1  0.60401500  0.77599400  0.38969600  1
  H  H21  1  0.60524000  0.26477400  0.39204600  1
  H  H22  1  0.66558600  0.93003200  0.31508100  1
  H  H23  1  0.66588000  0.11111400  0.31570900  1
  H  H24  1  0.32609300  0.11107800  0.71458500  1
  H  H25  1  0.32660800  0.92998100  0.71534400  1
  H  H26  1  0.69527600  0.68130500  0.17446400  1
  H  H27  1  0.72098300  0.59481000  0.28120600  1
  H  H28  1  0.54290000  0.25351300  0.14408300  1
  H  H29  1  0.61795700  0.25041200  0.02695500  1
  H  H30  1  0.90927700  0.09867300  0.49781800  1
  H  H31  1  0.93737300  0.17448200  0.37874300  1
  C  C1  1  0.32712600  0.52078300  0.51270500  1
  C  C2  1  0.50473800  0.52031700  0.27857400  1
  C  C3  1  0.66997200  0.52023700  0.52725900  1
  C  C4  1  0.49379700  0.52092100  0.75954800  1
  C  C5  1  0.48594200  0.62524100  0.08981500  1
  C  C6  1  0.42697600  0.45817600  0.09315300  1
  C  C7  1  0.48214000  0.62518900  0.94836800  1
  C  C8  1  0.42593200  0.45310300  0.95157500  1
  C  C9  1  0.59481300  0.48192000  0.08224600  1
  C  C10  1  0.50539500  0.52090300  0.13781500  1
  C  C11  1  0.49703800  0.52114500  0.89922800  1
  C  C12  1  0.58844800  0.48601900  0.93991300  1
  C  C13  1  0.81471600  0.60737400  0.53539600  1
  C  C14  1  0.76792800  0.51968400  0.53107500  1
  C  C15  1  0.81387000  0.43106800  0.52784500  1
  C  C16  1  0.90651600  0.42923700  0.53038300  1
  C  C17  1  0.95253600  0.51811000  0.52914400  1
  C  C18  1  0.90657100  0.60657800  0.53270900  1
  C  C19  1  0.95429200  0.34056900  0.52922900  1
  C  C20  1  0.04609800  0.34304200  0.52041800  1
  C  C21  1  0.09117500  0.43159700  0.51819500  1
  C  C22  1  0.04462300  0.51907000  0.52362900  1
  C  C23  1  0.09036500  0.60755600  0.52294400  1
  C  C24  1  0.04414400  0.69550800  0.52779500  1
  C  C25  1  0.95245700  0.69497300  0.53253500  1
  C  C26  1  0.18312700  0.43207200  0.51305500  1
  C  C27  1  0.22927500  0.52047400  0.51350100  1
  C  C28  1  0.18235800  0.60834500  0.51803700  1
  C  C29  1  0.43768500  0.81652700  0.58788800  1
  C  C30  1  0.43703100  0.22461900  0.58690200  1
  C  C31  1  0.55667300  0.81652000  0.44597400  1
  C  C32  1  0.55719300  0.22447400  0.44710400  1
  C  C33  1  0.55702600  0.91853200  0.44426400  1
  C  C34  1  0.55720300  0.12250400  0.44472000  1
  C  C35  1  0.49647300  0.96966300  0.51586800  1
  C  C36  1  0.49642700  0.07139900  0.51586800  1
  C  C37  1  0.43601100  0.91853600  0.58756200  1
  C  C38  1  0.43565700  0.12257500  0.58705100  1
  C  C39  1  0.61773600  0.96953900  0.37177400  1
  C  C40  1  0.61790700  0.07154800  0.37214400  1
  C  C41  1  0.37423800  0.07156500  0.65837800  1
  C  C42  1  0.37452500  0.96953400  0.65880400  1
  C  C43  1  0.67600400  0.54165000  0.11883600  1
  C  C44  1  0.61468400  0.37760400  0.12322700  1
  C  C45  1  0.91193200  0.24277500  0.54129000  1
  N  N1  1  0.49853500  0.76722200  0.51912900  1
  N  N2  1  0.49864600  0.27388500  0.51948700  1
  N  N3  1  0.67377600  0.61503900  0.21440500  1
  N  N4  1  0.56983600  0.29436100  0.07038000  1
  N  N5  1  0.94709400  0.16060500  0.47379800  1
  O  O1  1  0.36888200  0.60570500  0.51808700  1
  O  O2  1  0.36916300  0.43594000  0.50977300  1
  O  O3  1  0.49942500  0.60507300  0.33749600  1
  O  O4  1  0.50558100  0.43537100  0.33773600  1
  O  O5  1  0.62791700  0.60516200  0.52937800  1
  O  O6  1  0.62812800  0.43553200  0.52039100  1
  O  O7  1  0.49143800  0.60576400  0.70072800  1
  O  O8  1  0.49806300  0.43596800  0.70105100  1
  O  O9  1  0.74744000  0.52269500  0.06969800  1
  O  O10  1  0.67411900  0.36347600  0.19890400  1
  O  O11  1  0.85251100  0.22912800  0.61720100  1
