# generated using pymatgen
data_Fe2H23C44N5O16
_symmetry_space_group_name_H-M   'P 1'
_cell_length_a   9.42960500
_cell_length_b   17.13642200
_cell_length_c   15.08442300
_cell_angle_alpha   106.06961100
_cell_angle_beta   87.36013100
_cell_angle_gamma   76.81732100
_symmetry_Int_Tables_number   1
_chemical_formula_structural   Fe2H23C44N5O16
_chemical_formula_sum   'Fe2 H23 C44 N5 O16'
_cell_volume   2264.93959524
_cell_formula_units_Z   1
loop_
 _symmetry_equiv_pos_site_id
 _symmetry_equiv_pos_as_xyz
  1  'x, y, z'
loop_
 _atom_site_type_symbol
 _atom_site_label
 _atom_site_symmetry_multiplicity
 _atom_site_fract_x
 _atom_site_fract_y
 _atom_site_fract_z
 _atom_site_occupancy
  Fe  Fe1  1  0.52430900  0.98744800  0.32452700  1
  Fe  Fe2  1  0.51159400  0.00504000  0.66962500  1
  H  H1  1  0.96909800  0.01031100  0.70343800  1
  H  H2  1  0.07632900  0.98425300  0.29342400  1
  H  H3  1  0.78523300  0.98104300  0.94649300  1
  H  H4  1  0.79763700  0.99466400  0.08450400  1
  H  H5  1  0.38332000  0.98992800  0.03920400  1
  H  H6  1  0.17834300  0.43777200  0.68020400  1
  H  H7  1  0.84972600  0.55503100  0.30180000  1
  H  H8  1  0.81547100  0.71965200  0.57540600  1
  H  H9  1  0.77799500  0.63736600  0.17444900  1
  H  H10  1  0.60016000  0.71047000  0.21415300  1
  H  H11  1  0.58203500  0.56681900  0.27510300  1
  H  H12  1  0.58482500  0.57683100  0.07603200  1
  H  H13  1  0.50760100  0.50510300  0.12727000  1
  H  H14  1  0.06212200  0.29064100  0.38643700  1
  H  H15  1  0.16213600  0.18749100  0.36503400  1
  H  H16  1  0.38013600  0.28302100  0.34718400  1
  H  H17  1  0.16592400  0.23308000  0.20886800  1
  H  H18  1  0.34302500  0.26037400  0.18588200  1
  H  H19  1  0.34160500  0.40068200  0.77988200  1
  H  H20  1  0.42306400  0.29501500  0.77447300  1
  H  H21  1  0.09821300  0.32581800  0.80959000  1
  H  H22  1  0.30703200  0.38205800  0.94900200  1
  H  H23  1  0.11835200  0.36900500  0.97380200  1
  C  C1  1  0.98240300  0.00611500  0.77282600  1
  C  C2  1  0.86664700  0.99712100  0.82439600  1
  C  C3  1  0.88000200  0.98951600  0.91190400  1
  C  C4  1  0.11604200  0.00401100  0.80694200  1
  C  C5  1  0.12844800  0.99876900  0.89716200  1
  C  C6  1  0.00912800  0.99384300  0.95158100  1
  C  C7  1  0.02319900  0.99203100  0.04345300  1
  C  C8  1  0.90639800  0.99116000  0.10368500  1
  C  C9  1  0.92512700  0.98729300  0.19282100  1
  C  C10  1  0.27506600  0.99338700  0.01793600  1
  C  C11  1  0.15794700  0.99263200  0.07647200  1
  C  C12  1  0.17528200  0.99028400  0.16688100  1
  C  C13  1  0.06060900  0.98536000  0.22325400  1
  C  C14  1  0.80095900  0.98704900  0.25574900  1
  C  C15  1  0.64606000  0.83581200  0.34695600  1
  C  C16  1  0.31091800  0.99700900  0.20779000  1
  C  C17  1  0.35184000  0.12756000  0.45443200  1
  C  C18  1  0.67313900  0.85712000  0.54512100  1
  C  C19  1  0.72988200  0.99242400  0.78473400  1
  C  C20  1  0.37902700  0.15880700  0.65107300  1
  C  C21  1  0.24064800  0.00621200  0.74482300  1
  C  C22  1  0.29622400  0.21223400  0.51878600  1
  C  C23  1  0.21671100  0.27553600  0.48574700  1
  C  C24  1  0.17290700  0.35787400  0.54466200  1
  C  C25  1  0.20758900  0.37414100  0.63473400  1
  C  C26  1  0.28013600  0.31132100  0.66893000  1
  C  C27  1  0.32081000  0.22862500  0.61198900  1
  C  C28  1  0.93551000  0.56074600  0.46849400  1
  C  C29  1  0.09000000  0.42988800  0.51666700  1
  C  C30  1  0.81375800  0.61709200  0.35065600  1
  C  C31  1  0.72997500  0.68131500  0.32251800  1
  C  C32  1  0.69245500  0.76300700  0.38310700  1
  C  C33  1  0.71650600  0.77465000  0.47593900  1
  C  C34  1  0.79297200  0.70844200  0.50397300  1
  C  C35  1  0.84701900  0.63035200  0.44070400  1
  C  C36  1  0.68077200  0.65830600  0.22736600  1
  C  C37  1  0.60564400  0.58886500  0.21662000  1
  C  C38  1  0.56350300  0.55488700  0.13496900  1
  C  C39  1  0.17301600  0.25268900  0.38889600  1
  C  C40  1  0.28342400  0.26398900  0.32262700  1
  C  C41  1  0.26280200  0.25171200  0.23371200  1
  C  C42  1  0.32054400  0.33753800  0.76566300  1
  C  C43  1  0.19719900  0.34198000  0.83385800  1
  C  C44  1  0.20827100  0.36581200  0.92441200  1
  N  N1  1  0.25748900  0.99738600  0.93144100  1
  N  N2  1  0.00282500  0.49651400  0.58153900  1
  N  N3  1  0.92669900  0.56118400  0.55788200  1
  N  N4  1  0.02535400  0.49536100  0.40400000  1
  N  N5  1  0.10256100  0.43129000  0.42796200  1
  O  O1  1  0.67012800  0.99096700  0.22796800  1
  O  O2  1  0.69307700  0.82964000  0.26145200  1
  O  O3  1  0.82034800  0.98275500  0.34003200  1
  O  O4  1  0.56968700  0.90925200  0.40032900  1
  O  O5  1  0.36099800  0.94889700  0.25923600  1
  O  O6  1  0.36832800  0.05964700  0.20636200  1
  O  O7  1  0.48609100  0.10414700  0.41151000  1
  O  O8  1  0.26909100  0.07423600  0.44170900  1
  O  O9  1  0.53472000  0.89086300  0.57945500  1
  O  O10  1  0.77391700  0.89636900  0.57460400  1
  O  O11  1  0.68586700  0.03607900  0.72781800  1
  O  O12  1  0.65555600  0.94112800  0.80186700  1
  O  O13  1  0.21999300  0.01070300  0.66074500  1
  O  O14  1  0.46315700  0.08714900  0.59873400  1
  O  O15  1  0.37276100  0.00209600  0.77056200  1
  O  O16  1  0.33707400  0.16535100  0.73750400  1
