# generated using pymatgen
data_FeH10C20N2O9
_symmetry_space_group_name_H-M   'P 1'
_cell_length_a   9.41194200
_cell_length_b   16.80481000
_cell_length_c   15.23454300
_cell_angle_alpha   110.40684300
_cell_angle_beta   94.23576700
_cell_angle_gamma   78.43839600
_symmetry_Int_Tables_number   1
_chemical_formula_structural   FeH10C20N2O9
_chemical_formula_sum   'Fe2 H20 C40 N4 O18'
_cell_volume   2212.51705802
_cell_formula_units_Z   2
loop_
 _symmetry_equiv_pos_site_id
 _symmetry_equiv_pos_as_xyz
  1  'x, y, z'
loop_
 _atom_site_type_symbol
 _atom_site_label
 _atom_site_symmetry_multiplicity
 _atom_site_fract_x
 _atom_site_fract_y
 _atom_site_fract_z
 _atom_site_occupancy
  Fe  Fe1  1  0.41994800  0.97269400  0.35448600  1
  Fe  Fe2  1  0.49926900  0.00958400  0.69215400  1
  H  H1  1  0.96059600  0.96464300  0.32066400  1
  H  H2  1  0.64184000  0.98277400  0.11165900  1
  H  H3  1  0.95832500  0.01553200  0.72537900  1
  H  H4  1  0.27770700  0.99777700  0.93416800  1
  H  H5  1  0.21556200  0.98147500  0.07036600  1
  H  H6  1  0.70432000  0.99851000  0.97562100  1
  H  H7  1  0.13461600  0.26536900  0.45068400  1
  H  H8  1  0.75759200  0.53434800  0.32314500  1
  H  H9  1  0.61479700  0.64662500  0.27151800  1
  H  H10  1  0.77856400  0.71819900  0.59867600  1
  H  H11  1  0.28943500  0.50224700  0.63633000  1
  H  H12  1  0.40213900  0.48449800  0.73082800  1
  H  H13  1  0.26117800  0.61612700  0.84355400  1
  H  H14  1  0.33792300  0.63939800  0.75167800  1
  H  H15  1  0.14715700  0.63454600  0.74887800  1
  H  H16  1  0.51877800  0.34742100  0.72090700  1
  H  H17  1  0.55175700  0.27223300  0.78371000  1
  H  H18  1  0.52432100  0.38914800  0.93416600  1
  H  H19  1  0.65805800  0.40379400  0.86452500  1
  H  H20  1  0.47754900  0.46909700  0.87746400  1
  C  C1  1  0.03647900  0.97684700  0.19858200  1
  C  C2  1  0.93163400  0.96893600  0.25229900  1
  C  C3  1  0.78957200  0.97154800  0.22188200  1
  C  C4  1  0.75285000  0.98035100  0.13603100  1
  C  C5  1  0.85744900  0.98558500  0.08038400  1
  C  C6  1  0.99972900  0.98357900  0.11074300  1
  C  C7  1  0.81762200  0.99316000  0.99416300  1
  C  C8  1  0.92010700  0.99632100  0.93523100  1
  C  C9  1  0.06237000  0.99445000  0.96555800  1
  C  C10  1  0.10226200  0.98679800  0.05179900  1
  C  C11  1  0.88314600  0.00301900  0.84746100  1
  C  C12  1  0.98759700  0.01110400  0.79365500  1
  C  C13  1  0.12955800  0.00887100  0.82400600  1
  C  C14  1  0.16667500  0.00002000  0.90986300  1
  C  C15  1  0.67770100  0.96825000  0.28192600  1
  C  C16  1  0.53906500  0.81454200  0.36807500  1
  C  C17  1  0.18128300  0.98330000  0.24011500  1
  C  C18  1  0.28609400  0.13020100  0.47960900  1
  C  C19  1  0.63164900  0.85286300  0.56705500  1
  C  C20  1  0.73812400  0.99715700  0.80631100  1
  C  C21  1  0.37469800  0.16609200  0.67704300  1
  C  C22  1  0.24081400  0.01264900  0.76383600  1
  C  C23  1  0.26279800  0.21783500  0.54801400  1
  C  C24  1  0.17912900  0.28255800  0.52078300  1
  C  C25  1  0.14986600  0.36677600  0.58195400  1
  C  C26  1  0.21382000  0.38678100  0.67040700  1
  C  C27  1  0.29284900  0.32134500  0.69948000  1
  C  C28  1  0.31343700  0.23594500  0.63971100  1
  C  C29  1  0.87202800  0.55144500  0.49570900  1
  C  C30  1  0.05112000  0.43258800  0.55172500  1
  C  C31  1  0.73011900  0.59891600  0.37337100  1
  C  C32  1  0.64831100  0.66295400  0.34405500  1
  C  C33  1  0.61182300  0.74681800  0.40561800  1
  C  C34  1  0.65741900  0.76537500  0.49852800  1
  C  C35  1  0.74102200  0.70126600  0.52692400  1
  C  C36  1  0.77825900  0.61791700  0.46490600  1
  C  C37  1  0.29185200  0.51090700  0.71186800  1
  C  C38  1  0.25715000  0.60661800  0.76769000  1
  C  C39  1  0.49236800  0.33660400  0.78504900  1
  C  C40  1  0.54124500  0.40424200  0.87084300  1
  N  N1  1  0.99890500  0.51086100  0.61391000  1
  N  N2  1  0.91109100  0.56959100  0.58626600  1
  N  N3  1  0.92229800  0.47280600  0.43354800  1
  N  N4  1  0.01050000  0.41414500  0.46126100  1
  O  O1  1  0.54164500  0.97362800  0.25452300  1
  O  O2  1  0.54222700  0.79985800  0.27773500  1
  O  O3  1  0.71222300  0.96254800  0.36485200  1
  O  O4  1  0.47822900  0.89115000  0.42381400  1
  O  O5  1  0.23464200  0.93802100  0.29400300  1
  O  O6  1  0.24698300  0.04395400  0.23640100  1
  O  O7  1  0.41718700  0.09188700  0.44750200  1
  O  O8  1  0.17452000  0.09349200  0.44406000  1
  O  O9  1  0.50041100  0.89045200  0.59920500  1
  O  O10  1  0.74210600  0.89087700  0.60187400  1
  O  O11  1  0.68525200  0.04299100  0.75297000  1
  O  O12  1  0.67177300  0.93663000  0.80966200  1
  O  O13  1  0.20647200  0.01644400  0.68013300  1
  O  O14  1  0.44388300  0.09116800  0.62264700  1
  O  O15  1  0.37627100  0.00957800  0.79206100  1
  O  O16  1  0.35393900  0.17705700  0.76507800  1
  O  O17  1  0.19025300  0.46971600  0.73287300  1
  O  O18  1  0.34291500  0.34140600  0.78997200  1
