# generated using pymatgen
data_FeH11(C12O5)2
_symmetry_space_group_name_H-M   'P 1'
_cell_length_a   15.68206600
_cell_length_b   16.28784800
_cell_length_c   13.26288100
_cell_angle_alpha   91.67348000
_cell_angle_beta   87.07984300
_cell_angle_gamma   116.00938600
_symmetry_Int_Tables_number   1
_chemical_formula_structural   FeH11(C12O5)2
_chemical_formula_sum   'Fe2 H22 C48 O20'
_cell_volume   3040.55833883
_cell_formula_units_Z   2
loop_
 _symmetry_equiv_pos_site_id
 _symmetry_equiv_pos_as_xyz
  1  'x, y, z'
loop_
 _atom_site_type_symbol
 _atom_site_label
 _atom_site_symmetry_multiplicity
 _atom_site_fract_x
 _atom_site_fract_y
 _atom_site_fract_z
 _atom_site_occupancy
  Fe  Fe1  1  0.53208000  0.01212600  0.18706900  1
  Fe  Fe2  1  0.53133800  0.01369500  0.73368700  1
  H  H1  1  0.93202300  0.99238900  0.80274500  1
  H  H2  1  0.19251600  0.98416400  0.80472300  1
  H  H3  1  0.04539400  0.97332800  0.84364300  1
  H  H4  1  0.79205800  0.99438100  0.75827100  1
  H  H5  1  0.25037200  0.98785400  0.16507800  1
  H  H6  1  0.09561600  0.97850500  0.20518800  1
  H  H7  1  0.94821000  0.97993700  0.24611800  1
  H  H8  1  0.80505800  0.98311500  0.20007200  1
  H  H9  1  0.55723900  0.12134000  0.45437700  1
  H  H10  1  0.48191400  0.30571100  0.31008300  1
  H  H11  1  0.61856300  0.48704400  0.37849400  1
  H  H12  1  0.59673800  0.62638300  0.37057100  1
  H  H13  1  0.33523300  0.49899400  0.53956900  1
  H  H14  1  0.45653900  0.66894500  0.29999700  1
  H  H15  1  0.45278600  0.89023900  0.47673300  1
  H  H16  1  0.46911200  0.66864800  0.62061500  1
  H  H17  1  0.70727700  0.41184200  0.82763300  1
  H  H18  1  0.58512300  0.39281400  0.84610600  1
  H  H19  1  0.66914200  0.49006700  0.77352300  1
  H  H20  1  0.25252200  0.11048500  0.55016800  1
  H  H21  1  0.17706700  0.16820000  0.54936900  1
  H  H22  1  0.24646900  0.17782800  0.65849400  1
  C  C1  1  0.88292800  0.98665100  0.86452900  1
  C  C2  1  0.29388600  0.99423600  0.91241000  1
  C  C3  1  0.20644400  0.98495600  0.88373300  1
  C  C4  1  0.13706200  0.98011200  0.95477300  1
  C  C5  1  0.05288600  0.97635700  0.92374300  1
  C  C6  1  0.98356200  0.97724100  0.99353200  1
  C  C7  1  0.80157300  0.98967200  0.83764100  1
  C  C8  1  0.73206900  0.98338200  0.90834200  1
  C  C9  1  0.89921700  0.97919800  0.96499200  1
  C  C10  1  0.83102000  0.97694400  0.03848200  1
  C  C11  1  0.74564600  0.97704100  0.01026000  1
  C  C12  1  0.30968500  0.99516600  0.01532700  1
  C  C13  1  0.23772900  0.98596500  0.08551900  1
  C  C14  1  0.15251900  0.98057500  0.05542200  1
  C  C15  1  0.08344700  0.97778300  0.12560800  1
  C  C16  1  0.00008600  0.97706000  0.09495000  1
  C  C17  1  0.93441900  0.97829400  0.16688000  1
  C  C18  1  0.85128600  0.97869500  0.13950800  1
  C  C19  1  0.67147300  0.97296500  0.08638800  1
  C  C20  1  0.46523300  0.83991000  0.28931000  1
  C  C21  1  0.40176700  0.01196800  0.05457600  1
  C  C22  1  0.51055900  0.15476300  0.28348700  1
  C  C23  1  0.47964100  0.83771800  0.65128100  1
  C  C24  1  0.64639800  0.98356200  0.86944400  1
  C  C25  1  0.54751500  0.17478600  0.64179500  1
  C  C26  1  0.36467200  0.99969900  0.83182600  1
  C  C27  1  0.52680400  0.21313500  0.37279600  1
  C  C28  1  0.50356500  0.28530200  0.37733800  1
  C  C29  1  0.50822700  0.33216900  0.46715700  1
  C  C30  1  0.53394700  0.30417600  0.55506500  1
  C  C31  1  0.54793500  0.22525700  0.55115900  1
  C  C32  1  0.54857500  0.18357900  0.45914300  1
  C  C33  1  0.55531700  0.48846900  0.41315600  1
  C  C34  1  0.54293800  0.56686800  0.40820600  1
  C  C35  1  0.46485400  0.57085000  0.45602000  1
  C  C36  1  0.39698100  0.49483000  0.50456800  1
  C  C37  1  0.40611800  0.41397900  0.50565500  1
  C  C38  1  0.48904300  0.41258300  0.46377600  1
  C  C39  1  0.45365900  0.69968700  0.37264700  1
  C  C40  1  0.45200700  0.78390300  0.37856200  1
  C  C41  1  0.45101000  0.82321700  0.47187700  1
  C  C42  1  0.45772600  0.78271200  0.55874700  1
  C  C43  1  0.46040700  0.69929500  0.55306800  1
  C  C44  1  0.45649000  0.65682900  0.46039900  1
  C  C45  1  0.55475400  0.36022700  0.64848200  1
  C  C46  1  0.64753400  0.41749000  0.79221500  1
  C  C47  1  0.32749300  0.33289100  0.55209700  1
  C  C48  1  0.24533200  0.17286000  0.57492600  1
  O  O1  1  0.63089700  0.02835600  0.08014300  1
  O  O2  1  0.44413500  0.80336900  0.19906800  1
  O  O3  1  0.64201300  0.91052800  0.15673200  1
  O  O4  1  0.50668400  0.92901300  0.30246100  1
  O  O5  1  0.40626000  0.95628400  0.12163700  1
  O  O6  1  0.47508900  0.09130400  0.03880700  1
  O  O7  1  0.58102300  0.13894400  0.24516800  1
  O  O8  1  0.42296200  0.09554200  0.26757800  1
  O  O9  1  0.44488400  0.89766100  0.66443500  1
  O  O10  1  0.55339000  0.84649900  0.70084600  1
  O  O11  1  0.65503000  0.02687700  0.78472300  1
  O  O12  1  0.56180600  0.93091100  0.90857800  1
  O  O13  1  0.34117100  0.98958000  0.73714500  1
  O  O14  1  0.57678200  0.11072200  0.63042100  1
  O  O15  1  0.45098900  0.01473500  0.85331100  1
  O  O16  1  0.49862000  0.17760100  0.72396600  1
  O  O17  1  0.51048800  0.40361000  0.67350100  1
  O  O18  1  0.62549800  0.36520900  0.70586200  1
  O  O19  1  0.26660800  0.34245400  0.60519400  1
  O  O20  1  0.31948500  0.24805400  0.53333400  1
