# generated using pymatgen
data_FeH9C20(NO5)2
_symmetry_space_group_name_H-M   'P 1'
_cell_length_a   13.08878100
_cell_length_b   16.77069000
_cell_length_c   13.05941900
_cell_angle_alpha   105.54769600
_cell_angle_beta   111.43187900
_cell_angle_gamma   111.14454900
_symmetry_Int_Tables_number   1
_chemical_formula_structural   FeH9C20(NO5)2
_chemical_formula_sum   'Fe2 H18 C40 N4 O20'
_cell_volume   2209.10681669
_cell_formula_units_Z   2
loop_
 _symmetry_equiv_pos_site_id
 _symmetry_equiv_pos_as_xyz
  1  'x, y, z'
loop_
 _atom_site_type_symbol
 _atom_site_label
 _atom_site_symmetry_multiplicity
 _atom_site_fract_x
 _atom_site_fract_y
 _atom_site_fract_z
 _atom_site_occupancy
  Fe  Fe1  1  0.50986900  0.02338600  0.27826200  1
  Fe  Fe2  1  0.51827800  0.00543300  0.72682900  1
  H  H1  1  0.95855000  0.96787700  0.76820700  1
  H  H2  1  0.05273400  0.95722900  0.06782100  1
  H  H3  1  0.97462500  0.06830100  0.93465900  1
  H  H4  1  0.06604800  0.05454800  0.23292200  1
  H  H5  1  0.34142800  0.94303100  0.93323700  1
  H  H6  1  0.06079100  0.95311500  0.64779700  1
  H  H7  1  0.68521200  0.08202800  0.06947800  1
  H  H8  1  0.96158900  0.06632300  0.35138200  1
  H  H9  1  0.49427200  0.28135400  0.41901800  1
  H  H10  1  0.46675000  0.30070000  0.78857100  1
  H  H11  1  0.50637800  0.58234800  0.25523800  1
  H  H12  1  0.51503600  0.70666300  0.19279600  1
  H  H13  1  0.39624200  0.51078100  0.89791600  1
  H  H14  1  0.51723700  0.61133300  0.90357900  1
  H  H15  1  0.55741200  0.58124800  0.03044900  1
  H  H16  1  0.59184100  0.76965000  0.82746900  1
  H  H17  1  0.76417500  0.83158800  0.90045300  1
  H  H18  1  0.67246200  0.70160500  0.83065600  1
  C  C1  1  0.25482100  0.94532900  0.89448900  1
  C  C2  1  0.20270200  0.96010800  0.96722600  1
  C  C3  1  0.09787800  0.97147400  0.92478900  1
  C  C4  1  0.04385100  0.96386000  0.80663400  1
  C  C5  1  0.10007800  0.95320500  0.73643900  1
  C  C6  1  0.20804300  0.94627500  0.78169500  1
  C  C7  1  0.04358100  0.98776700  0.00403200  1
  C  C8  1  0.98371400  0.03788700  0.99860200  1
  C  C9  1  0.82473400  0.06600100  0.03572700  1
  C  C10  1  0.77149200  0.07925300  0.10783900  1
  C  C11  1  0.81634100  0.07571900  0.21905200  1
  C  C12  1  0.92360600  0.06793400  0.26375300  1
  C  C13  1  0.98115900  0.05906300  0.19456900  1
  C  C14  1  0.92887100  0.05369200  0.07753900  1
  C  C15  1  0.73949300  0.06804200  0.27838800  1
  C  C16  1  0.52494100  0.86942200  0.30598300  1
  C  C17  1  0.27839100  0.98434000  0.09717300  1
  C  C18  1  0.47914300  0.13306900  0.45193200  1
  C  C19  1  0.54887200  0.89424600  0.55257100  1
  C  C20  1  0.75052500  0.04392400  0.90641600  1
  C  C21  1  0.48619700  0.15148600  0.68999800  1
  C  C22  1  0.28434900  0.95304900  0.72181500  1
  C  C23  1  0.48611700  0.21546800  0.53590500  1
  C  C24  1  0.49209500  0.28776600  0.50262200  1
  C  C25  1  0.48751400  0.36418700  0.56958000  1
  C  C26  1  0.48104400  0.36997800  0.67486400  1
  C  C27  1  0.47613700  0.29788100  0.70914700  1
  C  C28  1  0.48079200  0.22118900  0.64211200  1
  C  C29  1  0.50890000  0.57743600  0.45981900  1
  C  C30  1  0.49213600  0.43851200  0.52858800  1
  C  C31  1  0.51762600  0.64682900  0.31663000  1
  C  C32  1  0.52197900  0.71778500  0.28102700  1
  C  C33  1  0.52949700  0.79933600  0.35374700  1
  C  C34  1  0.53771600  0.81016600  0.46687500  1
  C  C35  1  0.53892700  0.74058900  0.50441500  1
  C  C36  1  0.52310300  0.65658300  0.42704100  1
  C  C37  1  0.53334200  0.48592900  0.86652400  1
  C  C38  1  0.49887800  0.55151700  0.92856900  1
  C  C39  1  0.66117700  0.75934500  0.70270100  1
  C  C40  1  0.67316400  0.76605000  0.82299700  1
  N  N1  1  0.45207000  0.49753700  0.56697400  1
  N  N2  1  0.45992700  0.56577800  0.53270100  1
  N  N3  1  0.54490500  0.51634800  0.41768800  1
  N  N4  1  0.53660800  0.44777500  0.45173100  1
  O  O1  1  0.63437300  0.07020300  0.22601100  1
  O  O2  1  0.52977000  0.85938100  0.20496000  1
  O  O3  1  0.76409400  0.04487600  0.36927100  1
  O  O4  1  0.51142600  0.93983400  0.36025300  1
  O  O5  1  0.33740500  0.93721800  0.12301900  1
  O  O6  1  0.32082500  0.06988500  0.18210400  1
  O  O7  1  0.54985800  0.14807000  0.40138700  1
  O  O8  1  0.38959800  0.04499500  0.41258200  1
  O  O9  1  0.47727700  0.88078200  0.60250300  1
  O  O10  1  0.64053100  0.98151100  0.59206900  1
  O  O11  1  0.69118700  0.09100600  0.88182200  1
  O  O12  1  0.70905700  0.95948100  0.82000600  1
  O  O13  1  0.25415400  0.96887200  0.62479900  1
  O  O14  1  0.51684600  0.08959700  0.64580400  1
  O  O15  1  0.39428500  0.95843900  0.77967300  1
  O  O16  1  0.47025500  0.15614200  0.78453300  1
  O  O17  1  0.47715300  0.44455100  0.74180500  1
  O  O18  1  0.61821000  0.47552300  0.92929100  1
  O  O19  1  0.56111900  0.75814700  0.61961900  1
  O  O20  1  0.74246500  0.75586200  0.68015000  1
