# generated using pymatgen
data_Fe2H23C45N7O23
_symmetry_space_group_name_H-M   'P 1'
_cell_length_a   15.80090700
_cell_length_b   9.82747900
_cell_length_c   15.49372200
_cell_angle_alpha   92.45447600
_cell_angle_beta   99.50010300
_cell_angle_gamma   96.83028300
_symmetry_Int_Tables_number   1
_chemical_formula_structural   Fe2H23C45N7O23
_chemical_formula_sum   'Fe2 H23 C45 N7 O23'
_cell_volume   2351.27907063
_cell_formula_units_Z   1
loop_
 _symmetry_equiv_pos_site_id
 _symmetry_equiv_pos_as_xyz
  1  'x, y, z'
loop_
 _atom_site_type_symbol
 _atom_site_label
 _atom_site_symmetry_multiplicity
 _atom_site_fract_x
 _atom_site_fract_y
 _atom_site_fract_z
 _atom_site_occupancy
  Fe  Fe1  1  0.50461300  0.01216900  0.79969200  1
  Fe  Fe2  1  0.51237600  0.98634900  0.19862100  1
  H  H1  1  0.24413700  0.06165200  0.80575300  1
  H  H2  1  0.82646300  0.98088600  0.88980000  1
  H  H3  1  0.78267700  0.98387800  0.19621100  1
  H  H4  1  0.92838600  0.99873100  0.16156800  1
  H  H5  1  0.42506300  0.16857600  0.39431200  1
  H  H6  1  0.59450700  0.81870100  0.60458100  1
  H  H7  1  0.48745000  0.80020000  0.53573300  1
  H  H8  1  0.59257600  0.83086400  0.44750100  1
  H  H9  1  0.49445400  0.49456400  0.79141000  1
  H  H10  1  0.76895100  0.58358700  0.55362500  1
  H  H11  1  0.69268600  0.59868500  0.61567800  1
  H  H12  1  0.29811100  0.00442100  0.48020300  1
  H  H13  1  0.35402900  0.95942300  0.57473400  1
  H  H14  1  0.22130300  0.19969800  0.39720200  1
  H  H15  1  0.28914700  0.13952700  0.33557300  1
  H  H16  1  0.56321800  0.57509400  0.07603900  1
  H  H17  1  0.62898700  0.51172800  0.15752300  1
  H  H18  1  0.04642000  0.96439700  0.69133200  1
  H  H19  1  0.08252400  0.13374200  0.69495300  1
  H  H20  1  0.12043000  0.01077200  0.22715100  1
  H  H21  1  0.15978100  0.15133800  0.18017800  1
  H  H22  1  0.66273200  0.17697600  0.54712600  1
  H  H23  1  0.61224800  0.21902700  0.44997200  1
  C  C1  1  0.23047400  0.04568300  0.87084000  1
  C  C2  1  0.14692300  0.04221200  0.88639500  1
  C  C3  1  0.13113300  0.02283100  0.97068700  1
  C  C4  1  0.19860900  0.00856500  0.03799900  1
  C  C5  1  0.28393500  0.01894500  0.02281300  1
  C  C6  1  0.29881900  0.03725000  0.93761400  1
  C  C7  1  0.04421000  0.00788500  0.98867500  1
  C  C8  1  0.97145800  0.99751800  0.00401900  1
  C  C9  1  0.81502100  0.97917300  0.95662500  1
  C  C10  1  0.73173800  0.97385900  0.97500700  1
  C  C11  1  0.71981700  0.97309400  0.06218800  1
  C  C12  1  0.79106700  0.98409100  0.12837400  1
  C  C13  1  0.87328100  0.99107200  0.10918100  1
  C  C14  1  0.88527800  0.98747400  0.02338400  1
  C  C15  1  0.47467100  0.25089100  0.72127700  1
  C  C16  1  0.38453400  0.04676800  0.91246700  1
  C  C17  1  0.65998200  0.97675700  0.90144800  1
  C  C18  1  0.51455800  0.74682400  0.74051400  1
  C  C19  1  0.49538300  0.24832300  0.25507700  1
  C  C20  1  0.35614700  0.01351300  0.09657100  1
  C  C21  1  0.63451200  0.95866100  0.08857800  1
  C  C22  1  0.55109800  0.75630400  0.28846600  1
  C  C23  1  0.49726300  0.49755900  0.72232400  1
  C  C24  1  0.48536100  0.37545800  0.67340500  1
  C  C25  1  0.48040300  0.37478700  0.58245100  1
  C  C26  1  0.45637300  0.24331700  0.52583000  1
  C  C27  1  0.42835400  0.26840800  0.42955900  1
  C  C28  1  0.51101800  0.62044900  0.68456500  1
  C  C29  1  0.52084100  0.61966100  0.59659900  1
  C  C30  1  0.50473900  0.49670300  0.54527400  1
  C  C31  1  0.51329800  0.49660200  0.45193500  1
  C  C32  1  0.48679000  0.37865400  0.39743300  1
  C  C33  1  0.49711100  0.37873800  0.30912400  1
  C  C34  1  0.54631300  0.75078200  0.55675500  1
  C  C35  1  0.59106800  0.73226400  0.47931200  1
  C  C36  1  0.54577900  0.61579100  0.41824000  1
  C  C37  1  0.53863000  0.62372300  0.32837700  1
  C  C38  1  0.51502400  0.50584300  0.27396800  1
  C  C39  1  0.68281800  0.70884900  0.50892400  1
  C  C40  1  0.37932700  0.15753200  0.55023400  1
  C  C41  1  0.33894100  0.31037600  0.41548800  1
  C  C42  1  0.50821100  0.52160400  0.17935700  1
  C  C43  1  0.07732800  0.05722500  0.81215700  1
  C  C44  1  0.17666300  0.97157000  0.12336100  1
  C  C45  1  0.53421800  0.16813600  0.53681500  1
  N  N1  1  0.70283900  0.58745400  0.55103600  1
  N  N2  1  0.35896200  0.01625700  0.51996700  1
  N  N3  1  0.26857200  0.22857400  0.35938800  1
  N  N4  1  0.58178200  0.57731600  0.14400000  1
  N  N5  1  0.09277300  0.04206600  0.72429700  1
  N  N6  1  0.12568400  0.05290600  0.16724600  1
  N  N7  1  0.61434100  0.23188700  0.51750400  1
  O  O1  1  0.53910200  0.17822400  0.73951800  1
  O  O2  1  0.44807300  0.13734800  0.95268500  1
  O  O3  1  0.40537600  0.22377400  0.75700200  1
  O  O4  1  0.39151600  0.97947800  0.83940800  1
  O  O5  1  0.58674900  0.01874300  0.91379500  1
  O  O6  1  0.67180400  0.94808500  0.82114300  1
  O  O7  1  0.50448400  0.86454700  0.70621600  1
  O  O8  1  0.51953400  0.73985700  0.82556700  1
  O  O9  1  0.50699300  0.13206200  0.29175200  1
  O  O10  1  0.49496900  0.24977000  0.17044400  1
  O  O11  1  0.43007900  0.97372800  0.08413700  1
  O  O12  1  0.34788800  0.05306200  0.17633600  1
  O  O13  1  0.62904700  0.81147800  0.28065300  1
  O  O14  1  0.62506800  0.02943100  0.15940700  1
  O  O15  1  0.48322600  0.81721700  0.25839200  1
  O  O16  1  0.57318900  0.86287400  0.05036200  1
  O  O17  1  0.74122600  0.79129200  0.49281700  1
  O  O18  1  0.32726500  0.21220900  0.58532500  1
  O  O19  1  0.32607800  0.41747400  0.45078900  1
  O  O20  1  0.43902200  0.48907500  0.13082000  1
  O  O21  1  0.00724000  0.08643200  0.82448500  1
  O  O22  1  0.20212900  0.87069300  0.15710300  1
  O  O23  1  0.53227900  0.05880100  0.57085500  1
