# generated using pymatgen
data_ZnH12C16N3O4
_symmetry_space_group_name_H-M   'P 1'
_cell_length_a   15.00386900
_cell_length_b   8.54654200
_cell_length_c   11.30334200
_cell_angle_alpha   90.00000000
_cell_angle_beta   95.01807600
_cell_angle_gamma   90.00000000
_symmetry_Int_Tables_number   1
_chemical_formula_structural   ZnH12C16N3O4
_chemical_formula_sum   'Zn2 H24 C32 N6 O8'
_cell_volume   1443.88558279
_cell_formula_units_Z   2
loop_
 _symmetry_equiv_pos_site_id
 _symmetry_equiv_pos_as_xyz
  1  'x, y, z'
loop_
 _atom_site_type_symbol
 _atom_site_label
 _atom_site_symmetry_multiplicity
 _atom_site_fract_x
 _atom_site_fract_y
 _atom_site_fract_z
 _atom_site_occupancy
  Zn  Zn1  1  0.48623300  0.50378500  0.86779000  1
  Zn  Zn2  1  0.51376700  0.50378500  0.13221000  1
  H  H1  1  0.44063300  0.00383100  0.04392400  1
  H  H2  1  0.55936700  0.00383100  0.95607600  1
  H  H3  1  0.19774700  0.25496200  0.98762300  1
  H  H4  1  0.80222400  0.75260200  0.01236200  1
  H  H5  1  0.80225300  0.25496200  0.01237700  1
  H  H6  1  0.19777600  0.75260200  0.98763800  1
  H  H7  1  0.66620000  0.50610400  0.29455600  1
  H  H8  1  0.33380000  0.50610400  0.70544500  1
  H  H9  1  0.39031300  0.50409300  0.29216400  1
  H  H10  1  0.60968700  0.50409300  0.70783600  1
  H  H11  1  0.28752500  0.41438800  0.38967000  1
  H  H12  1  0.19997900  0.52832300  0.60549300  1
  H  H13  1  0.24051900  0.32917400  0.58770400  1
  H  H14  1  0.15610800  0.41061700  0.48248200  1
  H  H15  1  0.25909500  0.73999600  0.49758800  1
  H  H16  1  0.19788700  0.65644200  0.36772600  1
  H  H17  1  0.31462900  0.70744100  0.36513300  1
  H  H18  1  0.71247500  0.41438800  0.61033100  1
  H  H19  1  0.80002100  0.52832300  0.39450800  1
  H  H20  1  0.75948100  0.32917400  0.41229600  1
  H  H21  1  0.84389200  0.41061700  0.51751800  1
  H  H22  1  0.74090500  0.73999600  0.50241300  1
  H  H23  1  0.80211300  0.65644200  0.63227400  1
  H  H24  1  0.68537100  0.70744100  0.63486700  1
  C  C1  1  0.32485900  0.14337200  0.01024500  1
  C  C2  1  0.67512100  0.86423800  0.98974900  1
  C  C3  1  0.67514100  0.14337200  0.98975500  1
  C  C4  1  0.32487900  0.86423800  0.01025100  1
  C  C5  1  0.23268600  0.14436200  0.99503000  1
  C  C6  1  0.76729600  0.86321400  0.00496200  1
  C  C7  1  0.76731400  0.14436200  0.00497000  1
  C  C8  1  0.23270400  0.86321400  0.99503900  1
  C  C9  1  0.18622300  0.00378000  0.99367000  1
  C  C10  1  0.81377700  0.00378000  0.00633000  1
  C  C11  1  0.36934000  0.00381500  0.02559500  1
  C  C12  1  0.63066000  0.00381500  0.97440600  1
  C  C13  1  0.54678100  0.50265600  0.65450300  1
  C  C14  1  0.45321900  0.50265600  0.34549800  1
  C  C15  1  0.91139700  0.00377300  0.00603600  1
  C  C16  1  0.08860300  0.00377300  0.99396400  1
  C  C17  1  0.38109100  0.49986800  0.53021000  1
  C  C18  1  0.61890900  0.49986800  0.46979000  1
  C  C19  1  0.54183800  0.50148600  0.53135900  1
  C  C20  1  0.45816200  0.50148600  0.46864100  1
  C  C21  1  0.39058900  0.50278600  0.65344800  1
  C  C22  1  0.60941100  0.50278600  0.34655200  1
  C  C23  1  0.37861200  0.72209000  0.00643200  1
  C  C24  1  0.62142800  0.28553900  0.99357300  1
  C  C25  1  0.62138800  0.72209000  0.99356900  1
  C  C26  1  0.37857200  0.28553900  0.00642700  1
  C  C27  1  0.28890400  0.49726000  0.46500000  1
  C  C28  1  0.21734000  0.43789300  0.54103000  1
  C  C29  1  0.26362000  0.66053700  0.42077200  1
  C  C30  1  0.71109600  0.49726000  0.53500000  1
  C  C31  1  0.78266000  0.43789300  0.45897000  1
  C  C32  1  0.73638000  0.66053700  0.57922900  1
  N  N1  1  0.52778500  0.50368200  0.28776600  1
  N  N2  1  0.47221500  0.50368200  0.71223400  1
  N  N3  1  0.04382900  0.86769100  0.99729500  1
  N  N4  1  0.95617100  0.13985400  0.00270500  1
  N  N5  1  0.95617100  0.86769100  0.00270500  1
  N  N6  1  0.04382900  0.13985400  0.99729500  1
  O  O1  1  0.42059300  0.67300100  0.10615500  1
  O  O2  1  0.57942700  0.33461500  0.89389100  1
  O  O3  1  0.57940700  0.67300100  0.89384500  1
  O  O4  1  0.42057300  0.33461500  0.10610900  1
  O  O5  1  0.39497400  0.66726200  0.90189600  1
  O  O6  1  0.60504500  0.34036200  0.09807200  1
  O  O7  1  0.60502600  0.66726200  0.09810400  1
  O  O8  1  0.39495500  0.34036200  0.90192800  1
