# generated using pymatgen
data_ZnH17C25N3O4
_symmetry_space_group_name_H-M   'P 1'
_cell_length_a   17.55221300
_cell_length_b   8.56270400
_cell_length_c   15.02208800
_cell_angle_alpha   90.00000000
_cell_angle_beta   90.99628000
_cell_angle_gamma   90.00000000
_symmetry_Int_Tables_number   1
_chemical_formula_structural   ZnH17C25N3O4
_chemical_formula_sum   'Zn2 H34 C50 N6 O8'
_cell_volume   2257.39445920
_cell_formula_units_Z   2
loop_
 _symmetry_equiv_pos_site_id
 _symmetry_equiv_pos_as_xyz
  1  'x, y, z'
loop_
 _atom_site_type_symbol
 _atom_site_label
 _atom_site_symmetry_multiplicity
 _atom_site_fract_x
 _atom_site_fract_y
 _atom_site_fract_z
 _atom_site_occupancy
  Zn  Zn1  1  0.91570900  0.49837700  0.51320500  1
  Zn  Zn2  1  0.08413600  0.50263000  0.48705900  1
  H  H1  1  0.03634000  0.00275700  0.56056600  1
  H  H2  1  0.96291000  0.00060400  0.43924700  1
  H  H3  1  0.67575300  0.46034900  0.73667200  1
  H  H4  1  0.32357800  0.46056200  0.26368900  1
  H  H5  1  0.43604900  0.54182600  0.71601400  1
  H  H6  1  0.56434400  0.53002000  0.28337000  1
  H  H7  1  0.54431800  0.45819200  0.72615200  1
  H  H8  1  0.45490300  0.45323200  0.27411500  1
  H  H9  1  0.81481900  0.50141100  0.38806000  1
  H  H10  1  0.18524700  0.51605300  0.61205500  1
  H  H11  1  0.95323300  0.27311400  0.86672300  1
  H  H12  1  0.05205800  0.32815800  0.84958500  1
  H  H13  1  0.97775600  0.38218800  0.77133000  1
  H  H14  1  0.91527900  0.70704600  0.14485800  1
  H  H15  1  0.01905100  0.68738800  0.13968100  1
  H  H16  1  0.96463900  0.60976900  0.23010400  1
  H  H17  1  0.07766400  0.27815000  0.16419000  1
  H  H18  1  0.97741600  0.30943800  0.13265000  1
  H  H19  1  0.01755100  0.38518200  0.23364600  1
  H  H20  1  0.05281400  0.71613100  0.87429800  1
  H  H21  1  0.95588600  0.67527300  0.83553500  1
  H  H22  1  0.03785800  0.61473600  0.77287000  1
  H  H23  1  0.25223100  0.44065000  0.73720200  1
  H  H24  1  0.32686000  0.55688800  0.78634400  1
  H  H25  1  0.25297600  0.65140200  0.72205800  1
  H  H26  1  0.74747600  0.42078100  0.26398400  1
  H  H27  1  0.67364000  0.53670500  0.21295500  1
  H  H28  1  0.74802300  0.63217300  0.27594500  1
  H  H29  1  0.78958700  0.58589100  0.73203800  1
  H  H30  1  0.79850800  0.37469100  0.72575500  1
  H  H31  1  0.87320700  0.49967100  0.69082600  1
  H  H32  1  0.21034200  0.58732300  0.26678500  1
  H  H33  1  0.20041400  0.37669200  0.27618000  1
  H  H34  1  0.12636700  0.50506800  0.30931600  1
  C  C1  1  0.02204900  0.14151600  0.67589100  1
  C  C2  1  0.97567800  0.85994000  0.32450600  1
  C  C3  1  0.98202600  0.13882300  0.32488000  1
  C  C4  1  0.01985900  0.86177900  0.67465400  1
  C  C5  1  0.01103300  0.14077900  0.76715800  1
  C  C6  1  0.97879600  0.85834800  0.23231300  1
  C  C7  1  0.99746300  0.13740500  0.23431400  1
  C  C8  1  0.01273000  0.85938800  0.76623200  1
  C  C9  1  0.01001100  0.99947900  0.81272200  1
  C  C10  1  0.99040100  0.99792100  0.18640000  1
  C  C11  1  0.02907300  0.00197300  0.63157300  1
  C  C12  1  0.97039600  0.00004800  0.36827500  1
  C  C13  1  0.99634500  0.99722900  0.08812800  1
  C  C14  1  0.00489900  0.99865900  0.91002400  1
  C  C15  1  0.01307900  0.72110800  0.61957200  1
  C  C16  1  0.98731100  0.27959000  0.38059400  1
  C  C17  1  0.98360300  0.71900900  0.37968200  1
  C  C18  1  0.01576000  0.28293600  0.62116200  1
  C  C19  1  0.77441500  0.48916900  0.60176000  1
  C  C20  1  0.22527400  0.49629400  0.39841900  1
  C  C21  1  0.78051800  0.49942700  0.44658000  1
  C  C22  1  0.21943800  0.51238200  0.55347400  1
  C  C23  1  0.65838800  0.49422400  0.51351100  1
  C  C24  1  0.34143300  0.50143000  0.48642800  1
  C  C25  1  0.69496900  0.48620300  0.59549100  1
  C  C26  1  0.30470800  0.49182200  0.40458800  1
  C  C27  1  0.65132100  0.47377600  0.67080900  1
  C  C28  1  0.34817500  0.47523900  0.32938200  1
  C  C29  1  0.70190200  0.50123100  0.43838600  1
  C  C30  1  0.29806300  0.51276600  0.56150600  1
  C  C31  1  0.45641400  0.50399400  0.57615500  1
  C  C32  1  0.54346700  0.49897800  0.42366600  1
  C  C33  1  0.46391900  0.49147900  0.41698800  1
  C  C34  1  0.53582800  0.49251600  0.58293800  1
  C  C35  1  0.42071700  0.49901400  0.49317800  1
  C  C36  1  0.57909900  0.49516700  0.50670800  1
  C  C37  1  0.41179200  0.52287000  0.65089900  1
  C  C38  1  0.58832800  0.51261000  0.34874800  1
  C  C39  1  0.33351400  0.52565800  0.64416700  1
  C  C40  1  0.66666667  0.51226300  0.35553900  1
  C  C41  1  0.57328400  0.47589800  0.66459300  1
  C  C42  1  0.42622100  0.47415700  0.33552400  1
  C  C43  1  0.99824400  0.28952300  0.81668100  1
  C  C44  1  0.96969300  0.70755200  0.18334700  1
  C  C45  1  0.01835900  0.28541700  0.18804500  1
  C  C46  1  0.01423700  0.70772600  0.81524800  1
  C  C47  1  0.28868200  0.54479200  0.72722000  1
  C  C48  1  0.71166400  0.52632800  0.27232000  1
  C  C49  1  0.81137100  0.48684700  0.69226400  1
  C  C50  1  0.18813900  0.49059600  0.30804000  1
  N  N1  1  0.95834500  0.89790100  0.95085100  1
  N  N2  1  0.04320500  0.09710300  0.04684700  1
  N  N3  1  0.95396500  0.89790400  0.03862200  1
  N  N4  1  0.04725900  0.09841000  0.95906100  1
  N  N5  1  0.81634100  0.49532000  0.52666200  1
  N  N6  1  0.18349500  0.50541300  0.47353200  1
  O  O1  1  0.07418300  0.67196800  0.57928800  1
  O  O2  1  0.92584800  0.32895200  0.42084100  1
  O  O3  1  0.92314300  0.66691500  0.42008400  1
  O  O4  1  0.07657600  0.33430100  0.58044500  1
  O  O5  1  0.94468400  0.66393400  0.60321700  1
  O  O6  1  0.05528200  0.33738800  0.39698600  1
  O  O7  1  0.05265300  0.66525100  0.39637700  1
  O  O8  1  0.94701600  0.33637400  0.60410200  1
