# generated using pymatgen
data_ZnH7C17NO6
_symmetry_space_group_name_H-M   'P 1'
_cell_length_a   11.10417200
_cell_length_b   13.42560900
_cell_length_c   8.63182700
_cell_angle_alpha   90.00000000
_cell_angle_beta   102.39664300
_cell_angle_gamma   90.00000000
_symmetry_Int_Tables_number   1
_chemical_formula_structural   ZnH7C17NO6
_chemical_formula_sum   'Zn2 H14 C34 N2 O12'
_cell_volume   1256.83236986
_cell_formula_units_Z   2
loop_
 _symmetry_equiv_pos_site_id
 _symmetry_equiv_pos_as_xyz
  1  'x, y, z'
loop_
 _atom_site_type_symbol
 _atom_site_label
 _atom_site_symmetry_multiplicity
 _atom_site_fract_x
 _atom_site_fract_y
 _atom_site_fract_z
 _atom_site_occupancy
  Zn  Zn1  1  0.50245400  0.88850300  0.50297100  1
  Zn  Zn2  1  0.48562400  0.10822700  0.49966300  1
  H  H1  1  0.41083700  0.95713300  0.99747500  1
  H  H2  1  0.57717700  0.02977900  0.01008300  1
  H  H3  1  0.90475700  0.99766900  0.35636600  1
  H  H4  1  0.10077100  0.01052900  0.27637100  1
  H  H5  1  0.67280300  0.23975000  0.57571900  1
  H  H6  1  0.69970000  0.74698800  0.55904500  1
  H  H7  1  0.19629000  0.59470500  0.40071000  1
  H  H8  1  0.18764700  0.42105000  0.39177700  1
  H  H9  1  0.69296300  0.41584800  0.57907300  1
  H  H10  1  0.70279000  0.56838900  0.55733100  1
  H  H11  1  0.04292000  0.07163300  0.54210300  1
  H  H12  1  0.86940900  0.93231700  0.60618800  1
  H  H13  1  0.23903500  0.77867500  0.53933800  1
  H  H14  1  0.20316800  0.27680200  0.26993400  1
  C  C1  1  0.24935800  0.98925700  0.07966000  1
  C  C2  1  0.31481200  0.97453900  0.96354800  1
  C  C3  1  0.26015300  0.98683200  0.80691000  1
  C  C4  1  0.13538500  0.00006400  0.76486200  1
  C  C5  1  0.06347500  0.00182900  0.87969200  1
  C  C6  1  0.12224300  0.00099400  0.03844700  1
  C  C7  1  0.93496900  0.00456600  0.83923400  1
  C  C8  1  0.86645300  0.00649200  0.95728700  1
  C  C9  1  0.92637500  0.00684100  0.11531500  1
  C  C10  1  0.05386600  0.00691700  0.15431400  1
  C  C11  1  0.73838400  0.00912800  0.92176000  1
  C  C12  1  0.67460500  0.01836400  0.04149800  1
  C  C13  1  0.73204700  0.00982800  0.19829000  1
  C  C14  1  0.85904400  0.00398800  0.23450900  1
  C  C15  1  0.66333900  0.00382700  0.76124300  1
  C  C16  1  0.33539100  0.99166400  0.68579800  1
  C  C17  1  0.32143000  0.99303800  0.24257500  1
  C  C18  1  0.65592600  0.00489900  0.32026500  1
  C  C19  1  0.37716500  0.29495700  0.44926700  1
  C  C20  1  0.39813000  0.70766900  0.46860500  1
  C  C21  1  0.59011300  0.28402300  0.54246500  1
  C  C22  1  0.61326400  0.70691700  0.53300700  1
  C  C23  1  0.60145900  0.38627400  0.54158100  1
  C  C24  1  0.61393800  0.60375800  0.53254800  1
  C  C25  1  0.49796800  0.44584400  0.49780400  1
  C  C26  1  0.50378400  0.55049200  0.49814600  1
  C  C27  1  0.38483800  0.39835600  0.45372300  1
  C  C28  1  0.39544800  0.60458900  0.46342400  1
  C  C29  1  0.28331100  0.55584200  0.42583300  1
  C  C30  1  0.27815800  0.45425800  0.41877000  1
  C  C31  1  0.08562200  0.00388400  0.59602000  1
  C  C32  1  0.87184200  0.00124600  0.67224900  1
  C  C33  1  0.28083100  0.76163300  0.44009800  1
  C  C34  1  0.25797100  0.24832400  0.38031400  1
  N  N1  1  0.47955500  0.23898200  0.49873500  1
  N  N2  1  0.50637000  0.75771700  0.50237500  1
  O  O1  1  0.61608300  0.08755800  0.69736800  1
  O  O2  1  0.63301400  0.91529700  0.69878900  1
  O  O3  1  0.38004700  0.90868900  0.64158000  1
  O  O4  1  0.36440900  0.07954500  0.63727700  1
  O  O5  1  0.37154600  0.91014700  0.30530200  1
  O  O6  1  0.35442700  0.08064400  0.30435100  1
  O  O7  1  0.60914200  0.08810900  0.36266100  1
  O  O8  1  0.62519800  0.91682900  0.36759000  1
  O  O9  1  0.09929500  0.93185600  0.51575500  1
  O  O10  1  0.82616900  0.07665300  0.60574400  1
  O  O11  1  0.21859400  0.76827100  0.30565000  1
  O  O12  1  0.21528600  0.18302500  0.45024600  1
