# generated using pymatgen
data_ZnH9C22(NO2)2
_symmetry_space_group_name_H-M   'P 1'
_cell_length_a   8.53442900
_cell_length_b   11.35029800
_cell_length_c   17.55920200
_cell_angle_alpha   90.84764000
_cell_angle_beta   90.06756100
_cell_angle_gamma   107.83389500
_symmetry_Int_Tables_number   1
_chemical_formula_structural   ZnH9C22(NO2)2
_chemical_formula_sum   'Zn2 H18 C44 N4 O8'
_cell_volume   1618.99149549
_cell_formula_units_Z   2
loop_
 _symmetry_equiv_pos_site_id
 _symmetry_equiv_pos_as_xyz
  1  'x, y, z'
loop_
 _atom_site_type_symbol
 _atom_site_label
 _atom_site_symmetry_multiplicity
 _atom_site_fract_x
 _atom_site_fract_y
 _atom_site_fract_z
 _atom_site_occupancy
  Zn  Zn1  1  0.00279500  0.49495100  0.91500400  1
  Zn  Zn2  1  0.99722000  0.50504900  0.08499600  1
  H  H1  1  0.71748500  0.02369000  0.05010800  1
  H  H2  1  0.28253000  0.97631100  0.94989100  1
  H  H3  1  0.06061400  0.89049900  0.01976600  1
  H  H4  1  0.93940100  0.10950200  0.98023400  1
  H  H5  1  0.53904800  0.58857400  0.96734400  1
  H  H6  1  0.46096600  0.41142600  0.03265600  1
  H  H7  1  0.42445800  0.90611000  0.04835300  1
  H  H8  1  0.57555700  0.09389100  0.95164700  1
  H  H9  1  0.14988700  0.79873800  0.69765700  1
  H  H10  1  0.85036100  0.20125200  0.30233900  1
  H  H11  1  0.14192500  0.81365400  0.44964300  1
  H  H12  1  0.85781300  0.18635200  0.55036200  1
  H  H13  1  0.14922900  0.80967900  0.56417400  1
  H  H14  1  0.85107800  0.19030600  0.43582100  1
  H  H15  1  0.91705500  0.29823700  0.80662000  1
  H  H16  1  0.08285900  0.70176700  0.19338100  1
  H  H17  1  0.09765800  0.68488400  0.81142100  1
  H  H18  1  0.90245500  0.31511300  0.18857700  1
  C  C1  1  0.57838700  0.68518500  0.98355700  1
  C  C2  1  0.42162800  0.31481600  0.01644300  1
  C  C3  1  0.74354400  0.74631800  0.99245400  1
  C  C4  1  0.25647000  0.25368300  0.00754600  1
  C  C5  1  0.79609600  0.87129900  0.01025500  1
  C  C6  1  0.20391900  0.12870200  0.98974500  1
  C  C7  1  0.67974600  0.92888600  0.02973600  1
  C  C8  1  0.32026900  0.07111500  0.97026400  1
  C  C9  1  0.51379300  0.86278600  0.02887800  1
  C  C10  1  0.48622100  0.13721400  0.97112200  1
  C  C11  1  0.46270800  0.74199100  0.00238600  1
  C  C12  1  0.53730700  0.25801000  0.99761400  1
  C  C13  1  0.97309700  0.93999000  0.00881100  1
  C  C14  1  0.02691700  0.06001100  0.99118900  1
  C  C15  1  0.28966900  0.66666667  0.00207300  1
  C  C16  1  0.71034600  0.33333333  0.99792700  1
  C  C17  1  0.14565700  0.32897500  0.00545300  1
  C  C18  1  0.85435800  0.67102600  0.99454700  1
  C  C19  1  0.05855100  0.59926800  0.77883100  1
  C  C20  1  0.94151800  0.40073000  0.22116800  1
  C  C21  1  0.95753400  0.38352700  0.77550500  1
  C  C22  1  0.04242300  0.61647500  0.22449600  1
  C  C23  1  0.00586100  0.49411800  0.65828800  1
  C  C24  1  0.99415100  0.50588000  0.34171100  1
  C  C25  1  0.05796900  0.60209500  0.70047500  1
  C  C26  1  0.94210400  0.39790100  0.29952400  1
  C  C27  1  0.10860100  0.71354100  0.66469200  1
  C  C28  1  0.89156100  0.28645100  0.33530600  1
  C  C29  1  0.95574700  0.38364600  0.69644700  1
  C  C30  1  0.04420700  0.61635400  0.30355400  1
  C  C31  1  0.05049300  0.61312800  0.46256600  1
  C  C32  1  0.94948900  0.38687000  0.53743400  1
  C  C33  1  0.94615300  0.38975500  0.45769300  1
  C  C34  1  0.05389300  0.61024100  0.54230600  1
  C  C35  1  0.99682800  0.50294100  0.42095300  1
  C  C36  1  0.00318400  0.49705700  0.57904700  1
  C  C37  1  0.09948200  0.72397800  0.42290400  1
  C  C38  1  0.90039100  0.27602400  0.57709800  1
  C  C39  1  0.09656600  0.72548500  0.34473800  1
  C  C40  1  0.90331100  0.27451800  0.65526400  1
  C  C41  1  0.10712000  0.71822400  0.58672700  1
  C  C42  1  0.89304300  0.28176700  0.41327000  1
  C  C43  1  0.14928400  0.84284300  0.30752700  1
  C  C44  1  0.85050800  0.15716300  0.69247600  1
  N  N1  1  0.00842900  0.49087400  0.81515000  1
  N  N2  1  0.99158700  0.50912700  0.18485000  1
  N  N3  1  0.19175100  0.93737800  0.27755300  1
  N  N4  1  0.80797500  0.06263200  0.72245200  1
  O  O1  1  0.21999300  0.62901000  0.06766100  1
  O  O2  1  0.78002200  0.37099100  0.93233900  1
  O  O3  1  0.22057300  0.62447100  0.93620400  1
  O  O4  1  0.77944200  0.37552900  0.06379600  1
  O  O5  1  0.11615100  0.36787900  0.93850700  1
  O  O6  1  0.88386400  0.63212100  0.06149300  1
  O  O7  1  0.10578900  0.37185800  0.06986500  1
  O  O8  1  0.89422700  0.62814400  0.93013400  1
