# generated using pymatgen
data_CuH26C40(NO2)4
_symmetry_space_group_name_H-M   'P 1'
_cell_length_a   15.54146900
_cell_length_b   16.97747400
_cell_length_c   23.30993900
_cell_angle_alpha   90.01327300
_cell_angle_beta   92.78613000
_cell_angle_gamma   96.36537500
_symmetry_Int_Tables_number   1
_chemical_formula_structural   CuH26C40(NO2)4
_chemical_formula_sum   'Cu2 H52 C80 N8 O16'
_cell_volume   6105.20115847
_cell_formula_units_Z   2
loop_
 _symmetry_equiv_pos_site_id
 _symmetry_equiv_pos_as_xyz
  1  'x, y, z'
loop_
 _atom_site_type_symbol
 _atom_site_label
 _atom_site_symmetry_multiplicity
 _atom_site_fract_x
 _atom_site_fract_y
 _atom_site_fract_z
 _atom_site_occupancy
  Cu  Cu1  1  0.40845000  0.49111500  0.49732800  1
  Cu  Cu2  1  0.58172500  0.50248300  0.50185700  1
  H  H1  1  0.49892100  0.30547000  0.94194200  1
  H  H2  1  0.49520300  0.69041200  0.05750900  1
  H  H3  1  0.35391400  0.49140700  0.21039400  1
  H  H4  1  0.36247700  0.49563100  0.78171100  1
  H  H5  1  0.35413600  0.49112500  0.31508100  1
  H  H6  1  0.36000900  0.49549400  0.67711700  1
  H  H7  1  0.63013800  0.48932700  0.32219400  1
  H  H8  1  0.63742300  0.51847200  0.68384200  1
  H  H9  1  0.62764700  0.48960400  0.21781000  1
  H  H10  1  0.63840900  0.51807700  0.78881400  1
  H  H11  1  0.36786600  0.73574600  0.49539700  1
  H  H12  1  0.62255900  0.25812000  0.50451600  1
  H  H13  1  0.34421600  0.09512200  0.52317100  1
  H  H14  1  0.64670300  0.89863500  0.47864400  1
  H  H15  1  0.34735900  0.23872100  0.51485500  1
  H  H16  1  0.64308500  0.75538600  0.48437300  1
  H  H17  1  0.27755300  0.57655200  0.55381100  1
  H  H18  1  0.71311700  0.41754000  0.44442600  1
  H  H19  1  0.12231800  0.57056300  0.55219200  1
  H  H20  1  0.86815900  0.41929700  0.44950900  1
  H  H21  1  0.88425900  0.60871800  0.57290300  1
  H  H22  1  0.10459000  0.38179600  0.42885200  1
  H  H23  1  0.72575900  0.60188800  0.56602400  1
  H  H24  1  0.26372300  0.39227000  0.43194700  1
  H  H25  1  0.35059400  0.27298900  0.06542200  1
  H  H26  1  0.33781100  0.13745200  0.10333600  1
  H  H27  1  0.49610300  0.93923700  0.13335400  1
  H  H28  1  0.57762200  0.02279400  0.14336600  1
  H  H29  1  0.54522900  0.98484700  0.07138900  1
  H  H30  1  0.60447400  0.12332400  0.07091000  1
  H  H31  1  0.61579600  0.25713700  0.03403000  1
  H  H32  1  0.38310600  0.74391200  0.96949500  1
  H  H33  1  0.40131900  0.88019600  0.93367000  1
  H  H34  1  0.60253800  0.04911800  0.85684600  1
  H  H35  1  0.63184600  0.95553700  0.83232200  1
  H  H36  1  0.66718000  0.99260300  0.90404000  1
  H  H37  1  0.66307900  0.85121300  0.89566900  1
  H  H38  1  0.64325800  0.71697200  0.93124800  1
  H  H39  1  0.30207400  0.82943400  0.56074200  1
  H  H40  1  0.16224500  0.88330100  0.55346800  1
  H  H41  1  0.01771600  0.03873600  0.44224300  1
  H  H42  1  0.08025000  0.99461500  0.39024500  1
  H  H43  1  0.12796300  0.08030300  0.43272700  1
  H  H44  1  0.23604700  0.00125700  0.39828200  1
  H  H45  1  0.37315900  0.94621800  0.40541400  1
  H  H46  1  0.68839700  0.16430600  0.44004000  1
  H  H47  1  0.82842500  0.11070500  0.44757000  1
  H  H48  1  0.97280000  0.95617700  0.56062000  1
  H  H49  1  0.86264700  0.91394500  0.56949100  1
  H  H50  1  0.90881400  0.00025800  0.61165400  1
  H  H51  1  0.75428900  0.99334700  0.60296800  1
  H  H52  1  0.61727200  0.04741900  0.59547900  1
  C  C1  1  0.48836500  0.34489900  0.50430400  1
  C  C2  1  0.50188900  0.64872400  0.49510000  1
  C  C3  1  0.49271200  0.49087100  0.38925300  1
  C  C4  1  0.49744000  0.50365800  0.60986200  1
  C  C5  1  0.49907300  0.57242100  0.88195000  1
  C  C6  1  0.49274800  0.42288700  0.11751800  1
  C  C7  1  0.50215900  0.43485800  0.87970600  1
  C  C8  1  0.48904900  0.56051700  0.11975200  1
  C  C9  1  0.49971700  0.43145000  0.93874500  1
  C  C10  1  0.49208200  0.56395900  0.06081200  1
  C  C11  1  0.49756000  0.49975600  0.97019200  1
  C  C12  1  0.49420700  0.49549200  0.02944800  1
  C  C13  1  0.49967200  0.57203100  0.94203600  1
  C  C14  1  0.49269200  0.42320600  0.05754300  1
  C  C15  1  0.49809700  0.35951900  0.96617900  1
  C  C16  1  0.49477100  0.63599600  0.03339200  1
  C  C17  1  0.49283000  0.35425400  0.02479200  1
  C  C18  1  0.50039400  0.64108800  0.97480700  1
  C  C19  1  0.41415000  0.48979300  0.23530200  1
  C  C20  1  0.42278000  0.50012600  0.76006400  1
  C  C21  1  0.41465700  0.48970000  0.29444100  1
  C  C22  1  0.42166600  0.49996400  0.70094900  1
  C  C23  1  0.49188400  0.48951600  0.32639400  1
  C  C24  1  0.49860100  0.50611000  0.67289800  1
  C  C25  1  0.56853300  0.48885500  0.29853300  1
  C  C26  1  0.57652600  0.51267400  0.70473900  1
  C  C27  1  0.56758400  0.48861700  0.23942700  1
  C  C28  1  0.57742800  0.51258200  0.76393100  1
  C  C29  1  0.49058900  0.48939800  0.20778300  1
  C  C30  1  0.50053400  0.50616700  0.79156400  1
  C  C31  1  0.48514400  0.25836400  0.50770100  1
  C  C32  1  0.50512600  0.73534600  0.49138200  1
  C  C33  1  0.56075600  0.22254200  0.50708400  1
  C  C34  1  0.42955800  0.77125600  0.49252000  1
  C  C35  1  0.55933200  0.14122200  0.51211500  1
  C  C36  1  0.43101600  0.85255500  0.48812100  1
  C  C37  1  0.48013800  0.09482500  0.51656400  1
  C  C38  1  0.51026400  0.89885900  0.48356200  1
  C  C39  1  0.40531800  0.13116800  0.51870400  1
  C  C40  1  0.58518300  0.86265000  0.48169500  1
  C  C41  1  0.40730800  0.21223300  0.51381600  1
  C  C42  1  0.58303400  0.78161000  0.48560800  1
  C  C43  1  0.75061100  0.45958000  0.47305800  1
  C  C44  1  0.23964600  0.53292100  0.52655300  1
  C  C45  1  0.83957700  0.46140900  0.47559900  1
  C  C46  1  0.15061800  0.52949800  0.52532300  1
  C  C47  1  0.88885600  0.51582600  0.51134900  1
  C  C48  1  0.10102200  0.47526300  0.48966000  1
  C  C49  1  0.84733900  0.56635900  0.54396900  1
  C  C50  1  0.14230000  0.42491200  0.45682500  1
  C  C51  1  0.75811500  0.56232100  0.54046000  1
  C  C52  1  0.23165300  0.43041000  0.45889100  1
  C  C53  1  0.48490100  0.27424400  0.04871800  1
  C  C54  1  0.40639100  0.24008300  0.06718000  1
  C  C55  1  0.39905200  0.16387600  0.08825400  1
  C  C56  1  0.46923300  0.12060700  0.09017800  1
  C  C57  1  0.52275500  0.99642400  0.11477000  1
  C  C58  1  0.54764700  0.15461200  0.07051900  1
  C  C59  1  0.55479300  0.23088100  0.04951400  1
  C  C60  1  0.51101500  0.72121900  0.95112200  1
  C  C61  1  0.44406300  0.76776500  0.95268100  1
  C  C62  1  0.45451900  0.84433200  0.93258100  1
  C  C63  1  0.53238500  0.87555500  0.91141800  1
  C  C64  1  0.61393600  0.98833200  0.87033700  1
  C  C65  1  0.60054700  0.82919400  0.91108500  1
  C  C66  1  0.58971300  0.75253100  0.93118000  1
  C  C67  1  0.34755500  0.88563900  0.48414200  1
  C  C68  1  0.28748200  0.86704100  0.52503900  1
  C  C69  1  0.20903000  0.89769500  0.52124100  1
  C  C70  1  0.18906200  0.94629600  0.47634200  1
  C  C71  1  0.08356900  0.02436300  0.43286200  1
  C  C72  1  0.24890100  0.96414100  0.43464700  1
  C  C73  1  0.32740000  0.93325300  0.43852200  1
  C  C74  1  0.64292900  0.10826500  0.51669200  1
  C  C75  1  0.70313600  0.12674900  0.47584100  1
  C  C76  1  0.78179500  0.09643700  0.47994500  1
  C  C77  1  0.80149100  0.04779800  0.52493700  1
  C  C78  1  0.90655400  0.97014500  0.56926300  1
  C  C79  1  0.74164900  0.03031900  0.56659500  1
  C  C80  1  0.66298300  0.06070500  0.56242300  1
  N  N1  1  0.50118100  0.50450700  0.85259700  1
  N  N2  1  0.49029500  0.49088400  0.14677500  1
  N  N3  1  0.47253200  0.01105000  0.51775600  1
  N  N4  1  0.51794800  0.98259400  0.48223500  1
  N  N5  1  0.71117300  0.51057500  0.50420300  1
  N  N6  1  0.27891100  0.48282800  0.49450300  1
  N  N7  1  0.98030800  0.52098300  0.51551200  1
  N  N8  1  0.00952300  0.47043800  0.48553500  1
  O  O1  1  0.41558400  0.37727500  0.50297000  1
  O  O2  1  0.57463700  0.61618700  0.49564500  1
  O  O3  1  0.56417800  0.38662500  0.50273900  1
  O  O4  1  0.42589600  0.60688700  0.49661400  1
  O  O5  1  0.41896600  0.48966300  0.41436400  1
  O  O6  1  0.57136300  0.50930000  0.58442100  1
  O  O7  1  0.56772700  0.49894000  0.41774300  1
  O  O8  1  0.42257200  0.49902700  0.58109000  1
  O  O9  1  0.49453000  0.63937100  0.85182100  1
  O  O10  1  0.49682500  0.35593200  0.14767100  1
  O  O11  1  0.50415800  0.36838700  0.84875900  1
  O  O12  1  0.48701100  0.62689200  0.15083600  1
  O  O13  1  0.45868200  0.04607200  0.11100400  1
  O  O14  1  0.53962900  0.95075000  0.89184700  1
  O  O15  1  0.11124000  0.97478600  0.47470600  1
  O  O16  1  0.87916100  0.01912800  0.52690900  1
