# generated using pymatgen
data_ZnH5C14(NO2)2
_symmetry_space_group_name_H-M   'P 1'
_cell_length_a   8.45579200
_cell_length_b   14.98542600
_cell_length_c   12.35307000
_cell_angle_alpha   98.39956000
_cell_angle_beta   95.18908200
_cell_angle_gamma   89.84744800
_symmetry_Int_Tables_number   1
_chemical_formula_structural   ZnH5C14(NO2)2
_chemical_formula_sum   'Zn2 H10 C28 N4 O8'
_cell_volume   1542.07749553
_cell_formula_units_Z   2
loop_
 _symmetry_equiv_pos_site_id
 _symmetry_equiv_pos_as_xyz
  1  'x, y, z'
loop_
 _atom_site_type_symbol
 _atom_site_label
 _atom_site_symmetry_multiplicity
 _atom_site_fract_x
 _atom_site_fract_y
 _atom_site_fract_z
 _atom_site_occupancy
  Zn  Zn1  1  0.51510300  0.49048700  0.11905000  1
  Zn  Zn2  1  0.48489600  0.50951300  0.88095000  1
  H  H1  1  0.99393500  0.43357400  0.92942400  1
  H  H2  1  0.00606400  0.56642600  0.07057600  1
  H  H3  1  0.25009600  0.19594000  0.97687000  1
  H  H4  1  0.74990300  0.80406000  0.02313000  1
  H  H5  1  0.74397200  0.19954200  0.97638400  1
  H  H6  1  0.25602700  0.80045900  0.02361500  1
  H  H7  1  0.16244700  0.05565900  0.86831800  1
  H  H8  1  0.83755100  0.94434100  0.13168200  1
  H  H9  1  0.61952000  0.42352600  0.50409800  1
  H  H10  1  0.38047800  0.57647500  0.49590200  1
  C  C1  1  0.13657800  0.31876000  0.94780900  1
  C  C2  1  0.86342100  0.68124000  0.05219100  1
  C  C3  1  0.13817400  0.22990500  0.96565600  1
  C  C4  1  0.86182500  0.77009500  0.03434300  1
  C  C5  1  0.99708300  0.18584000  0.97426300  1
  C  C6  1  0.00291600  0.81416000  0.02573700  1
  C  C7  1  0.85543800  0.23221800  0.96934000  1
  C  C8  1  0.14456200  0.76778300  0.03066000  1
  C  C9  1  0.85469000  0.32070200  0.95107600  1
  C  C10  1  0.14530900  0.67929800  0.04892300  1
  C  C11  1  0.99426100  0.36267400  0.93712300  1
  C  C12  1  0.00573800  0.63732600  0.06287700  1
  C  C13  1  0.09274000  0.03161800  0.92752200  1
  C  C14  1  0.90725900  0.96838200  0.07247800  1
  C  C15  1  0.09316400  0.94112000  0.93732700  1
  C  C16  1  0.90683600  0.05888000  0.06267300  1
  C  C17  1  0.00100600  0.90928500  0.01074800  1
  C  C18  1  0.99899300  0.09071500  0.98925100  1
  C  C19  1  0.28152800  0.37359400  0.96290900  1
  C  C20  1  0.71847100  0.62640600  0.03709100  1
  C  C21  1  0.71408800  0.37603700  0.96511100  1
  C  C22  1  0.28591100  0.62396300  0.03488800  1
  C  C23  1  0.45630800  0.52794400  0.53164300  1
  C  C24  1  0.54369100  0.47205600  0.46835600  1
  C  C25  1  0.53744900  0.47609200  0.35246800  1
  C  C26  1  0.46255000  0.52390900  0.64753200  1
  C  C27  1  0.18165500  0.88025100  0.86545700  1
  C  C28  1  0.81834400  0.11974900  0.13454200  1
  N  N1  1  0.46855100  0.52003300  0.74066500  1
  N  N2  1  0.53144800  0.47996700  0.25933500  1
  N  N3  1  0.25298600  0.83118600  0.80752000  1
  N  N4  1  0.74701300  0.16881400  0.19248000  1
  O  O1  1  0.32418900  0.41008900  0.87945900  1
  O  O2  1  0.67581000  0.58991100  0.12054100  1
  O  O3  1  0.34325200  0.39782100  0.06413700  1
  O  O4  1  0.65674700  0.60217900  0.93586300  1
  O  O5  1  0.67131600  0.39621200  0.06516600  1
  O  O6  1  0.32868300  0.60378800  0.93483400  1
  O  O7  1  0.65464400  0.41492700  0.88219300  1
  O  O8  1  0.34535500  0.58507300  0.11780700  1
