# generated using pymatgen
data_CuH16C26NO6
_symmetry_space_group_name_H-M   'P 1'
_cell_length_a   17.67974300
_cell_length_b   16.35271900
_cell_length_c   10.90764700
_cell_angle_alpha   90.00000000
_cell_angle_beta   90.00431600
_cell_angle_gamma   90.00000000
_symmetry_Int_Tables_number   1
_chemical_formula_structural   CuH16C26NO6
_chemical_formula_sum   'Cu2 H32 C52 N2 O12'
_cell_volume   3153.53020457
_cell_formula_units_Z   2
loop_
 _symmetry_equiv_pos_site_id
 _symmetry_equiv_pos_as_xyz
  1  'x, y, z'
loop_
 _atom_site_type_symbol
 _atom_site_label
 _atom_site_symmetry_multiplicity
 _atom_site_fract_x
 _atom_site_fract_y
 _atom_site_fract_z
 _atom_site_occupancy
  Cu  Cu1  1  0.49918400  0.58296900  0.50338000  1
  Cu  Cu2  1  0.50360600  0.41935200  0.49386500  1
  H  H1  1  0.62250700  0.25728000  0.10859200  1
  H  H2  1  0.36468100  0.73687200  0.88308000  1
  H  H3  1  0.55454700  0.22430600  0.91878500  1
  H  H4  1  0.43082900  0.77315200  0.07344600  1
  H  H5  1  0.50579800  0.67406100  0.17930100  1
  H  H6  1  0.48242700  0.32686500  0.81490000  1
  H  H7  1  0.38560100  0.60409200  0.79134500  1
  H  H8  1  0.60859200  0.39078800  0.20018600  1
  H  H9  1  0.88194000  0.63225900  0.48985400  1
  H  H10  1  0.12540900  0.36608300  0.54244400  1
  H  H11  1  0.12512200  0.62345500  0.48341500  1
  H  H12  1  0.87502800  0.37228200  0.48465800  1
  H  H13  1  0.74389400  0.63730400  0.48535500  1
  H  H14  1  0.26397100  0.36593900  0.54201100  1
  H  H15  1  0.26228000  0.62377900  0.48535100  1
  H  H16  1  0.73803100  0.37623500  0.47644200  1
  H  H17  1  0.59265700  0.86461900  0.62854500  1
  H  H18  1  0.41823600  0.13445100  0.36102900  1
  H  H19  1  0.41710200  0.87113000  0.37189500  1
  H  H20  1  0.60173800  0.13293700  0.60190100  1
  H  H21  1  0.52374300  0.76125700  0.81181000  1
  H  H22  1  0.62375100  0.76820700  0.84229600  1
  H  H23  1  0.57700600  0.67064800  0.85593800  1
  H  H24  1  0.30923300  0.24300600  0.44139200  1
  H  H25  1  0.30712700  0.21672100  0.28042700  1
  H  H26  1  0.28417800  0.31906600  0.32706000  1
  H  H27  1  0.30869500  0.81962500  0.31566400  1
  H  H28  1  0.28851900  0.77936600  0.46757600  1
  H  H29  1  0.26087300  0.72437300  0.33099000  1
  H  H30  1  0.71939500  0.23036900  0.53224400  1
  H  H31  1  0.70099200  0.19453200  0.68762200  1
  H  H32  1  0.74335700  0.29236700  0.66403200  1
  C  C1  1  0.35615300  0.49560900  0.49825000  1
  C  C2  1  0.64706000  0.50647800  0.49902300  1
  C  C3  1  0.50817400  0.50707000  0.26155300  1
  C  C4  1  0.49265700  0.49495300  0.73520000  1
  C  C5  1  0.47608500  0.65343900  0.09920200  1
  C  C6  1  0.51279700  0.34545600  0.89577100  1
  C  C7  1  0.41346700  0.61765600  0.87695200  1
  C  C8  1  0.57810900  0.37852300  0.11661200  1
  C  C9  1  0.43534500  0.71192200  0.03686000  1
  C  C10  1  0.55130500  0.28507600  0.95707300  1
  C  C11  1  0.39950300  0.69223500  0.92966700  1
  C  C12  1  0.58821100  0.30312500  0.06376700  1
  C  C13  1  0.46043700  0.56094200  0.93383200  1
  C  C14  1  0.53231800  0.43737600  0.06170600  1
  C  C15  1  0.48212000  0.57391000  0.05464500  1
  C  C16  1  0.51001300  0.42497900  0.94114200  1
  C  C17  1  0.48299100  0.49090700  0.87175900  1
  C  C18  1  0.51253100  0.50913300  0.12381200  1
  C  C19  1  0.84972000  0.57612200  0.49001800  1
  C  C20  1  0.15578500  0.42256700  0.52744600  1
  C  C21  1  0.15557800  0.56666600  0.49514300  1
  C  C22  1  0.84597700  0.43054600  0.48661500  1
  C  C23  1  0.77158600  0.57876800  0.48917900  1
  C  C24  1  0.23396000  0.42233900  0.52560000  1
  C  C25  1  0.23330600  0.56650600  0.49471700  1
  C  C26  1  0.76824200  0.43313300  0.48431300  1
  C  C27  1  0.73022900  0.50691600  0.49173200  1
  C  C28  1  0.27312100  0.49418000  0.50511900  1
  C  C29  1  0.88678800  0.50194500  0.49229500  1
  C  C30  1  0.11669900  0.49461500  0.50962200  1
  C  C31  1  0.96775900  0.49844300  0.49923500  1
  C  C32  1  0.03573600  0.49567100  0.50496400  1
  C  C33  1  0.55186800  0.83267200  0.57239900  1
  C  C34  1  0.45805600  0.16808100  0.41661600  1
  C  C35  1  0.45303000  0.83533400  0.43080800  1
  C  C36  1  0.56201500  0.16810100  0.54861600  1
  C  C37  1  0.54623400  0.74848200  0.57925100  1
  C  C38  1  0.45769800  0.25267700  0.41688400  1
  C  C39  1  0.44572400  0.75111400  0.43824200  1
  C  C40  1  0.56262000  0.25277800  0.54970400  1
  C  C41  1  0.50604400  0.87626400  0.49652400  1
  C  C42  1  0.50972100  0.12562600  0.48376600  1
  C  C43  1  0.50887300  0.96405200  0.49110700  1
  C  C44  1  0.50938900  0.03776800  0.48672600  1
  C  C45  1  0.59501100  0.71171100  0.67313400  1
  C  C46  1  0.57841300  0.72879700  0.80429200  1
  C  C47  1  0.40149100  0.28957000  0.33445300  1
  C  C48  1  0.32050100  0.26567400  0.34727000  1
  C  C49  1  0.37867800  0.71770200  0.37335900  1
  C  C50  1  0.30524200  0.76361500  0.37241700  1
  C  C51  1  0.62578600  0.28880600  0.62177900  1
  C  C52  1  0.70170200  0.24840600  0.62592500  1
  N  N1  1  0.49497500  0.70574800  0.50927500  1
  N  N2  1  0.50809800  0.29660600  0.48765800  1
  O  O1  1  0.38964500  0.56673400  0.50504700  1
  O  O2  1  0.61336500  0.43557100  0.49466000  1
  O  O3  1  0.60932100  0.57529100  0.50865400  1
  O  O4  1  0.39379700  0.42691100  0.48641700  1
  O  O5  1  0.50394000  0.57505500  0.32479100  1
  O  O6  1  0.49718900  0.42705400  0.67243800  1
  O  O7  1  0.49957700  0.56689100  0.68095700  1
  O  O8  1  0.50441600  0.43577300  0.31682400  1
  O  O9  1  0.65916000  0.69166600  0.64665100  1
  O  O10  1  0.42199400  0.31896800  0.23745300  1
  O  O11  1  0.38189600  0.65489700  0.31431200  1
  O  O12  1  0.61625000  0.34694200  0.68909300  1
