# generated using pymatgen
data_ZnH13C15NO4
_symmetry_space_group_name_H-M   'P 1'
_cell_length_a   10.78351200
_cell_length_b   10.97379000
_cell_length_c   9.85069000
_cell_angle_alpha   90.00452200
_cell_angle_beta   90.00920200
_cell_angle_gamma   90.00657600
_symmetry_Int_Tables_number   1
_chemical_formula_structural   ZnH13C15NO4
_chemical_formula_sum   'Zn2 H26 C30 N2 O8'
_cell_volume   1165.69118758
_cell_formula_units_Z   2
loop_
 _symmetry_equiv_pos_site_id
 _symmetry_equiv_pos_as_xyz
  1  'x, y, z'
loop_
 _atom_site_type_symbol
 _atom_site_label
 _atom_site_symmetry_multiplicity
 _atom_site_fract_x
 _atom_site_fract_y
 _atom_site_fract_z
 _atom_site_occupancy
  Zn  Zn1  1  0.49633000  0.47731000  0.65186700  1
  Zn  Zn2  1  0.49926100  0.47628800  0.34230800  1
  H  H1  1  0.91854300  0.30051400  0.37375000  1
  H  H2  1  0.07680700  0.29260600  0.60089400  1
  H  H3  1  0.92390000  0.46644700  0.72874100  1
  H  H4  1  0.07398200  0.65403900  0.61651400  1
  H  H5  1  0.91669800  0.66038100  0.39052400  1
  H  H6  1  0.06686200  0.48681800  0.26192500  1
  H  H7  1  0.48903500  0.08876500  0.27898800  1
  H  H8  1  0.48998800  0.86743300  0.27710200  1
  H  H9  1  0.42499300  0.86413800  0.80586200  1
  H  H10  1  0.59969100  0.86469300  0.79581500  1
  H  H11  1  0.42398200  0.08511500  0.80779700  1
  H  H12  1  0.59869400  0.08609100  0.79757700  1
  H  H13  1  0.66494900  0.57858400  0.11800300  1
  H  H14  1  0.66146700  0.57487700  0.86818100  1
  H  H15  1  0.28627000  0.27955300  0.86785800  1
  H  H16  1  0.23024900  0.38412200  0.14971600  1
  H  H17  1  0.32494400  0.24679400  0.10832800  1
  H  H18  1  0.08787900  0.39518600  0.93827300  1
  H  H19  1  0.15839900  0.45686200  0.79173400  1
  H  H20  1  0.20569800  0.57102000  0.07420200  1
  H  H21  1  0.24375100  0.64778700  0.77971400  1
  H  H22  1  0.34385600  0.66628300  0.92614900  1
  H  H23  1  0.20932900  0.75878000  0.90801300  1
  H  H24  1  0.00143900  0.63596400  0.87292200  1
  H  H25  1  0.03499700  0.70648900  0.03457500  1
  H  H26  1  0.97776700  0.55305500  0.02971000  1
  C  C1  1  0.49716200  0.23844300  0.49884000  1
  C  C2  1  0.25509400  0.47764100  0.49293200  1
  C  C3  1  0.49879300  0.71518400  0.49499000  1
  C  C4  1  0.74004700  0.47594700  0.50060400  1
  C  C5  1  0.03914900  0.37637300  0.55328200  1
  C  C6  1  0.95567600  0.38064900  0.42902400  1
  C  C7  1  0.87790900  0.47593500  0.49906000  1
  C  C8  1  0.95892000  0.47171300  0.62311500  1
  C  C9  1  0.03814800  0.57278300  0.56247400  1
  C  C10  1  0.95472900  0.57682200  0.43822800  1
  C  C11  1  0.03493500  0.48162300  0.36845900  1
  C  C12  1  0.11644100  0.47743900  0.49283000  1
  C  C13  1  0.50232300  0.03666800  0.61299300  1
  C  C14  1  0.49731500  0.10504300  0.49662800  1
  C  C15  1  0.49306800  0.04106200  0.37484000  1
  C  C16  1  0.49367500  0.91403500  0.37365700  1
  C  C17  1  0.49858800  0.84860700  0.49425700  1
  C  C18  1  0.50294500  0.91558500  0.61188700  1
  C  C19  1  0.51027100  0.90411700  0.76169600  1
  C  C20  1  0.50959700  0.04631600  0.76292000  1
  C  C21  1  0.41502400  0.41759000  0.06622600  1
  C  C22  1  0.59031800  0.53205600  0.06623400  1
  C  C23  1  0.58753200  0.53094200  0.92371300  1
  C  C24  1  0.40305600  0.43059200  0.93389900  1
  C  C25  1  0.28308400  0.36471900  0.92831200  1
  C  C26  1  0.30191400  0.34290600  0.08437600  1
  C  C27  1  0.17004300  0.44622000  0.90168300  1
  C  C28  1  0.17034900  0.57335400  0.96900300  1
  C  C29  1  0.24676500  0.66610100  0.88999500  1
  C  C30  1  0.03772100  0.61986500  0.97660300  1
  N  N1  1  0.50209300  0.47376600  0.13919700  1
  N  N2  1  0.49230900  0.47865300  0.85523700  1
  O  O1  1  0.49648500  0.29527800  0.61650100  1
  O  O2  1  0.49788200  0.29520800  0.38165400  1
  O  O3  1  0.31227200  0.47709400  0.61063800  1
  O  O4  1  0.31383400  0.47757600  0.37608800  1
  O  O5  1  0.49762600  0.65856100  0.61240800  1
  O  O6  1  0.49938400  0.65809200  0.37787700  1
  O  O7  1  0.68175500  0.47607100  0.61787200  1
  O  O8  1  0.68327600  0.47612100  0.38314600  1
