# generated using pymatgen
data_ZnH18C28NO4
_symmetry_space_group_name_H-M   'P 1'
_cell_length_a   10.97200000
_cell_length_b   19.45132400
_cell_length_c   18.26794600
_cell_angle_alpha   89.98923500
_cell_angle_beta   90.01684900
_cell_angle_gamma   90.00446200
_symmetry_Int_Tables_number   1
_chemical_formula_structural   ZnH18C28NO4
_chemical_formula_sum   'Zn2 H36 C56 N2 O8'
_cell_volume   3898.74345125
_cell_formula_units_Z   2
loop_
 _symmetry_equiv_pos_site_id
 _symmetry_equiv_pos_as_xyz
  1  'x, y, z'
loop_
 _atom_site_type_symbol
 _atom_site_label
 _atom_site_symmetry_multiplicity
 _atom_site_fract_x
 _atom_site_fract_y
 _atom_site_fract_z
 _atom_site_occupancy
  Zn  Zn1  1  0.49864500  0.50011500  0.58318000  1
  Zn  Zn2  1  0.50135400  0.49988500  0.41682000  1
  H  H1  1  0.24259500  0.66545800  0.21377100  1
  H  H2  1  0.75740500  0.33454200  0.78622900  1
  H  H3  1  0.27681900  0.70776700  0.33890700  1
  H  H4  1  0.72318000  0.29223300  0.66109400  1
  H  H5  1  0.19252300  0.64497600  0.44382700  1
  H  H6  1  0.80747600  0.35502400  0.55617300  1
  H  H7  1  0.03849800  0.49703000  0.29812200  1
  H  H8  1  0.96150200  0.50297000  0.70187800  1
  H  H9  1  0.12270100  0.56033900  0.19356400  1
  H  H10  1  0.87729900  0.43966100  0.80643600  1
  H  H11  1  0.88067500  0.54472200  0.39706000  1
  H  H12  1  0.11932500  0.45527700  0.60294000  1
  H  H13  1  0.51821400  0.71937000  0.38277300  1
  H  H14  1  0.48178600  0.28063000  0.61722700  1
  H  H15  1  0.51781600  0.84373400  0.38292400  1
  H  H16  1  0.48218400  0.15626600  0.61707600  1
  H  H17  1  0.49524500  0.84351500  0.61670100  1
  H  H18  1  0.50475500  0.15648500  0.38329900  1
  H  H19  1  0.49864400  0.71925900  0.61681700  1
  H  H20  1  0.50135600  0.28074100  0.38318400  1
  H  H21  1  0.62161900  0.93931800  0.59266000  1
  H  H22  1  0.37838000  0.06068200  0.40734100  1
  H  H23  1  0.61607300  0.06365800  0.59293100  1
  H  H24  1  0.38392600  0.93634200  0.40707000  1
  H  H25  1  0.63651800  0.57447500  0.69901400  1
  H  H26  1  0.36348200  0.42552500  0.30098700  1
  H  H27  1  0.63858000  0.57651900  0.83236900  1
  H  H28  1  0.36141900  0.42348100  0.16763200  1
  H  H29  1  0.35737000  0.42411500  0.83292200  1
  H  H30  1  0.64263000  0.57588500  0.16707800  1
  H  H31  1  0.35811300  0.42606300  0.69946600  1
  H  H32  1  0.64188700  0.57393700  0.30053400  1
  H  H33  1  0.30467800  0.49294800  0.93460500  1
  H  H34  1  0.69532100  0.50705200  0.06539600  1
  H  H35  1  0.30630400  0.49279000  0.06699500  1
  H  H36  1  0.69369500  0.50721000  0.93300500  1
  C  C1  1  0.49329800  0.36538500  0.50023700  1
  C  C2  1  0.50670200  0.63461500  0.49976300  1
  C  C3  1  0.26111400  0.50447700  0.49872200  1
  C  C4  1  0.73888600  0.49552300  0.50127900  1
  C  C5  1  0.22529200  0.66113900  0.33009800  1
  C  C6  1  0.77470800  0.33886100  0.66990300  1
  C  C7  1  0.17838400  0.62558900  0.38902200  1
  C  C8  1  0.82161500  0.37441100  0.61097800  1
  C  C9  1  0.11240100  0.56593100  0.37794800  1
  C  C10  1  0.88759900  0.43406900  0.62205200  1
  C  C11  1  0.09125700  0.54314900  0.30745200  1
  C  C12  1  0.90874300  0.45685100  0.69254800  1
  C  C13  1  0.13861100  0.57863300  0.24861800  1
  C  C14  1  0.86138900  0.42136700  0.75138300  1
  C  C15  1  0.20583100  0.63753900  0.25992800  1
  C  C16  1  0.79416900  0.36246100  0.74007300  1
  C  C17  1  0.93277600  0.52337500  0.44182000  1
  C  C18  1  0.06722400  0.47662500  0.55818100  1
  C  C19  1  0.87319100  0.49502300  0.50125900  1
  C  C20  1  0.12680800  0.50497700  0.49874200  1
  C  C21  1  0.94184400  0.47064200  0.55984700  1
  C  C22  1  0.05815600  0.52935800  0.44015400  1
  C  C23  1  0.51329200  0.74601800  0.43457800  1
  C  C24  1  0.48670800  0.25398200  0.56542200  1
  C  C25  1  0.51200800  0.81691500  0.43461200  1
  C  C26  1  0.48799200  0.18308500  0.56538900  1
  C  C27  1  0.50617200  0.85290500  0.49980700  1
  C  C28  1  0.49382800  0.14709500  0.50019400  1
  C  C29  1  0.50233200  0.81682900  0.56500700  1
  C  C30  1  0.49766800  0.18317100  0.43499300  1
  C  C31  1  0.50325200  0.74594300  0.56501100  1
  C  C32  1  0.49674700  0.25405700  0.43498900  1
  C  C33  1  0.50832400  0.71005700  0.49977400  1
  C  C34  1  0.49167600  0.28994300  0.50022600  1
  C  C35  1  0.56644900  0.96537300  0.55226000  1
  C  C36  1  0.43355000  0.03462700  0.44774100  1
  C  C37  1  0.56322300  0.03624400  0.55244000  1
  C  C38  1  0.43677600  0.96375600  0.44756000  1
  C  C39  1  0.49673200  0.07147000  0.50018900  1
  C  C40  1  0.50326800  0.92853000  0.49981100  1
  C  C41  1  0.57500500  0.54149300  0.72904900  1
  C  C42  1  0.42499400  0.45850700  0.27095100  1
  C  C43  1  0.57679600  0.54206800  0.80450700  1
  C  C44  1  0.42320300  0.45793200  0.19549300  1
  C  C45  1  0.49809900  0.50028700  0.84332400  1
  C  C46  1  0.50190000  0.49971300  0.15667600  1
  C  C47  1  0.41872100  0.45862200  0.80480100  1
  C  C48  1  0.58127900  0.54137800  0.19519900  1
  C  C49  1  0.41967500  0.45918900  0.72929800  1
  C  C50  1  0.58032400  0.54081100  0.27070200  1
  C  C51  1  0.39126700  0.49507800  0.96270100  1
  C  C52  1  0.60873300  0.50492200  0.03729900  1
  C  C53  1  0.39221000  0.49498400  0.03818700  1
  C  C54  1  0.60779000  0.50501600  0.96181300  1
  C  C55  1  0.50095000  0.49989200  0.07613000  1
  C  C56  1  0.49904900  0.50010800  0.92387000  1
  N  N1  1  0.49721000  0.50032000  0.69267200  1
  N  N2  1  0.50279000  0.49968000  0.30732800  1
  O  O1  1  0.49363800  0.39768000  0.56329500  1
  O  O2  1  0.50636200  0.60232000  0.43670600  1
  O  O3  1  0.49603600  0.39753500  0.43713200  1
  O  O4  1  0.50396300  0.60246500  0.56286800  1
  O  O5  1  0.31739600  0.50309800  0.56214800  1
  O  O6  1  0.68260400  0.49690200  0.43785300  1
  O  O7  1  0.31958300  0.50278700  0.43606900  1
  O  O8  1  0.68041600  0.49721300  0.56393100  1
