# generated using pymatgen
data_ZnH12C17(NO2)2
_symmetry_space_group_name_H-M   'P 1'
_cell_length_a   8.49216200
_cell_length_b   12.19364300
_cell_length_c   12.94028100
_cell_angle_alpha   108.15468800
_cell_angle_beta   86.46859500
_cell_angle_gamma   91.51399200
_symmetry_Int_Tables_number   1
_chemical_formula_structural   ZnH12C17(NO2)2
_chemical_formula_sum   'Zn2 H24 C34 N4 O8'
_cell_volume   1270.81113340
_cell_formula_units_Z   2
loop_
 _symmetry_equiv_pos_site_id
 _symmetry_equiv_pos_as_xyz
  1  'x, y, z'
loop_
 _atom_site_type_symbol
 _atom_site_label
 _atom_site_symmetry_multiplicity
 _atom_site_fract_x
 _atom_site_fract_y
 _atom_site_fract_z
 _atom_site_occupancy
  Zn  Zn1  1  0.51140300  0.12758000  0.51760900  1
  Zn  Zn2  1  0.50718800  0.87147500  0.46672200  1
  H  H1  1  0.29825700  0.00012600  0.14563400  1
  H  H2  1  0.79464300  0.99446700  0.13718600  1
  H  H3  1  0.21772800  0.98067400  0.84417100  1
  H  H4  1  0.00636700  0.95534800  0.40792500  1
  H  H5  1  0.01250300  0.04760200  0.58180300  1
  H  H6  1  0.50030800  0.71672400  0.26806100  1
  H  H7  1  0.49184800  0.32770300  0.22594700  1
  H  H8  1  0.49307200  0.50766500  0.19740000  1
  H  H9  1  0.51281000  0.70815400  0.58729800  1
  H  H10  1  0.50962200  0.27371100  0.71372600  1
  H  H11  1  0.50736900  0.60693100  0.68773700  1
  H  H12  1  0.50939700  0.48114300  0.79656800  1
  H  H13  1  0.51406600  0.20851000  0.33748100  1
  H  H14  1  0.60049000  0.93205700  0.80731700  1
  H  H15  1  0.68148400  0.94628100  0.98871100  1
  H  H16  1  0.50555700  0.01500100  0.99448600  1
  H  H17  1  0.81415500  0.15820400  0.03936900  1
  H  H18  1  0.65637600  0.14768500  0.13493700  1
  H  H19  1  0.65681600  0.32296900  0.07302000  1
  H  H20  1  0.47663400  0.23768900  0.04928300  1
  H  H21  1  0.74975200  0.23327200  0.88133200  1
  H  H22  1  0.55721200  0.29767200  0.89202200  1
  H  H23  1  0.52397600  0.10822300  0.76491500  1
  H  H24  1  0.43580200  0.10624300  0.88529500  1
  C  C1  1  0.16483000  0.97807800  0.28340300  1
  C  C2  1  0.18188200  0.99104900  0.18095100  1
  C  C3  1  0.05005500  0.99070600  0.12290100  1
  C  C4  1  0.90088400  0.98817200  0.17444100  1
  C  C5  1  0.88606200  0.97840700  0.27830000  1
  C  C6  1  0.01817000  0.96615700  0.32847300  1
  C  C7  1  0.82731500  0.01522300  0.80897400  1
  C  C8  1  0.85129500  0.02300300  0.70397100  1
  C  C9  1  0.99967600  0.03509600  0.66054400  1
  C  C10  1  0.13178600  0.01929000  0.70886100  1
  C  C11  1  0.11353400  0.99907500  0.80892200  1
  C  C12  1  0.96315100  0.00137600  0.86206700  1
  C  C13  1  0.29726700  0.98622700  0.35135400  1
  C  C14  1  0.28275900  0.01180800  0.64316200  1
  C  C15  1  0.72372400  0.01267600  0.63133900  1
  C  C16  1  0.73547500  0.98657100  0.34209000  1
  C  C17  1  0.49697500  0.54938100  0.28417400  1
  C  C18  1  0.51124400  0.32731800  0.66170900  1
  C  C19  1  0.51042400  0.44470700  0.70893000  1
  C  C20  1  0.50954100  0.51593000  0.64557300  1
  C  C21  1  0.50901700  0.46865300  0.53334400  1
  C  C22  1  0.51083600  0.34802300  0.48825000  1
  C  C23  1  0.50614000  0.53847900  0.46503300  1
  C  C24  1  0.50035900  0.48530800  0.35429100  1
  C  C25  1  0.49940300  0.36769200  0.31174700  1
  C  C26  1  0.50886200  0.29956800  0.37695900  1
  C  C27  1  0.50805500  0.65952600  0.50265500  1
  C  C28  1  0.50067100  0.66708900  0.32411500  1
  C  C29  1  0.65549000  0.01433500  0.85494300  1
  C  C30  1  0.63328300  0.02301400  0.97457400  1
  C  C31  1  0.68669400  0.14159700  0.04881400  1
  C  C32  1  0.60418900  0.23953800  0.02590600  1
  C  C33  1  0.62354000  0.22745200  0.90666000  1
  C  C34  1  0.55377200  0.11227200  0.84620100  1
  N  N1  1  0.07152500  0.00072600  0.01596600  1
  N  N2  1  0.94757500  0.98434400  0.96626300  1
  N  N3  1  0.50569100  0.72052400  0.43171000  1
  N  N4  1  0.51246800  0.27898200  0.55285400  1
  O  O1  1  0.34226200  0.89200300  0.36895100  1
  O  O2  1  0.35047600  0.08927400  0.40328900  1
  O  O3  1  0.33694700  0.10583600  0.62288800  1
  O  O4  1  0.33773900  0.90875800  0.58857500  1
  O  O5  1  0.67842400  0.10703100  0.61384800  1
  O  O6  1  0.66716900  0.90950000  0.58177400  1
  O  O7  1  0.68263900  0.89274000  0.36230200  1
  O  O8  1  0.68025400  0.09000500  0.39541000  1
