# generated using pymatgen
data_CuH18C18NO10
_symmetry_space_group_name_H-M   'P 1'
_cell_length_a   10.68592500
_cell_length_b   9.34463200
_cell_length_c   15.85497800
_cell_angle_alpha   90.00000000
_cell_angle_beta   89.99173500
_cell_angle_gamma   90.00000000
_symmetry_Int_Tables_number   1
_chemical_formula_structural   CuH18C18NO10
_chemical_formula_sum   'Cu2 H36 C36 N2 O20'
_cell_volume   1583.21524865
_cell_formula_units_Z   2
loop_
 _symmetry_equiv_pos_site_id
 _symmetry_equiv_pos_as_xyz
  1  'x, y, z'
loop_
 _atom_site_type_symbol
 _atom_site_label
 _atom_site_symmetry_multiplicity
 _atom_site_fract_x
 _atom_site_fract_y
 _atom_site_fract_z
 _atom_site_occupancy
  Cu  Cu1  1  0.50931200  0.64385300  0.50149400  1
  Cu  Cu2  1  0.50739300  0.35624100  0.50413500  1
  H  H1  1  0.35025100  0.64439100  0.92677900  1
  H  H2  1  0.33220900  0.40414000  0.94145100  1
  H  H3  1  0.32839200  0.60767100  0.06555200  1
  H  H4  1  0.35913100  0.33403300  0.07611400  1
  H  H5  1  0.51623400  0.26900400  0.05852700  1
  H  H6  1  0.46040900  0.72327000  0.08301600  1
  H  H7  1  0.67643100  0.61496000  0.07491300  1
  H  H8  1  0.69520400  0.42422300  0.08301600  1
  H  H9  1  0.70336200  0.58209600  0.93222600  1
  H  H10  1  0.68838200  0.39495800  0.94277100  1
  H  H11  1  0.11607600  0.73352100  0.52199800  1
  H  H12  1  0.09969900  0.27503900  0.51183400  1
  H  H13  1  0.08799800  0.62641900  0.61604600  1
  H  H14  1  0.11814800  0.36459100  0.61319800  1
  H  H15  1  0.88529600  0.67032000  0.58984400  1
  H  H16  1  0.91031900  0.40963300  0.62291200  1
  H  H17  1  0.91625200  0.72604200  0.48245900  1
  H  H18  1  0.89533800  0.27696700  0.54063400  1
  H  H19  1  0.10551600  0.60301500  0.38281000  1
  H  H20  1  0.13166800  0.41222000  0.37884000  1
  H  H21  1  0.89950500  0.54880100  0.36502700  1
  H  H22  1  0.92411900  0.36276100  0.39044100  1
  H  H23  1  0.57288100  0.09657100  0.63160100  1
  H  H24  1  0.63028700  0.86177500  0.60957800  1
  H  H25  1  0.68998900  0.13465000  0.55982200  1
  H  H26  1  0.70597000  0.90281400  0.51656300  1
  H  H27  1  0.45835500  0.12682600  0.37841800  1
  H  H28  1  0.42408400  0.90528100  0.38557600  1
  H  H29  1  0.31775300  0.09718400  0.47727400  1
  H  H30  1  0.31386300  0.87411800  0.50192100  1
  H  H31  1  0.16104100  0.12769100  0.67470800  1
  H  H32  1  0.26319600  0.77105100  0.71092100  1
  H  H33  1  0.83996000  0.12712200  0.38405800  1
  H  H34  1  0.77730200  0.78644800  0.32817100  1
  H  H35  1  0.58042500  0.10269500  0.86088100  1
  H  H36  1  0.65067600  0.91013500  0.95190600  1
  C  C1  1  0.26749400  0.50242200  0.50838500  1
  C  C2  1  0.49776300  0.49574500  0.34121700  1
  C  C3  1  0.74860500  0.49770500  0.49581100  1
  C  C4  1  0.51897400  0.50460600  0.66450200  1
  C  C5  1  0.42878900  0.62441300  0.05080000  1
  C  C6  1  0.45055800  0.35847300  0.04630300  1
  C  C7  1  0.43225700  0.37873800  0.95229400  1
  C  C8  1  0.44447300  0.63854600  0.95590000  1
  C  C9  1  0.51809800  0.50681800  0.75501300  1
  C  C10  1  0.50341700  0.49645100  0.08254500  1
  C  C11  1  0.51068700  0.50554000  0.92323100  1
  C  C12  1  0.64310900  0.49729300  0.95919100  1
  C  C13  1  0.63810500  0.51055300  0.05432200  1
  C  C14  1  0.51542900  0.50745400  0.83100200  1
  C  C15  1  0.49865000  0.49318400  0.17474000  1
  C  C16  1  0.49675300  0.49340000  0.25072800  1
  C  C17  1  0.07304200  0.63446000  0.54708400  1
  C  C18  1  0.07670300  0.37167500  0.54927300  1
  C  C19  1  0.93397300  0.64200300  0.53032700  1
  C  C20  1  0.93591900  0.38244800  0.55703500  1
  C  C21  1  0.08336100  0.49935400  0.41341900  1
  C  C22  1  0.12696100  0.50267400  0.50456600  1
  C  C23  1  0.88863900  0.49829700  0.49802700  1
  C  C24  1  0.94289000  0.47401600  0.41076600  1
  C  C25  1  0.59919200  0.07952400  0.56528700  1
  C  C26  1  0.61668000  0.91901100  0.54933400  1
  C  C27  1  0.38374500  0.07664900  0.52983000  1
  C  C28  1  0.39451700  0.91449700  0.53837600  1
  C  C29  1  0.53091700  0.08608700  0.42200300  1
  C  C30  1  0.51557500  0.92437000  0.41655900  1
  C  C31  1  0.31722000  0.13087900  0.60741200  1
  C  C32  1  0.37287800  0.86844500  0.62856400  1
  C  C33  1  0.65468900  0.13126400  0.38460200  1
  C  C34  1  0.61091700  0.86681000  0.35520500  1
  C  C35  1  0.45932900  0.24578100  0.90303500  1
  C  C36  1  0.51120200  0.77364300  0.93279000  1
  N  N1  1  0.50593300  0.14101100  0.50785700  1
  N  N2  1  0.51162400  0.85917100  0.50120100  1
  O  O1  1  0.32726300  0.62470300  0.50344800  1
  O  O2  1  0.32568500  0.37875300  0.50776200  1
  O  O3  1  0.49848400  0.61969100  0.37938200  1
  O  O4  1  0.49421300  0.37411700  0.38175400  1
  O  O5  1  0.69066400  0.62107700  0.49499600  1
  O  O6  1  0.68898000  0.37502100  0.49470300  1
  O  O7  1  0.51220100  0.62624500  0.62420800  1
  O  O8  1  0.51464100  0.38079000  0.62632100  1
  O  O9  1  0.37236000  0.18348000  0.66683500  1
  O  O10  1  0.19113000  0.09733100  0.61688200  1
  O  O11  1  0.44403800  0.90094700  0.68553300  1
  O  O12  1  0.26557900  0.79190700  0.64830300  1
  O  O13  1  0.65545600  0.18742200  0.31518700  1
  O  O14  1  0.76859000  0.09835100  0.42235500  1
  O  O15  1  0.58330200  0.86324700  0.28062000  1
  O  O16  1  0.72869300  0.81929700  0.37941300  1
  O  O17  1  0.37606600  0.19144300  0.86137600  1
  O  O18  1  0.57801300  0.18498600  0.90225800  1
  O  O19  1  0.46791900  0.84979500  0.87763800  1
  O  O20  1  0.61854100  0.81666300  0.97557200  1
