# generated using pymatgen
data_Fe2H27C71N3O20
_symmetry_space_group_name_H-M   'P 1'
_cell_length_a   16.21635800
_cell_length_b   21.94955600
_cell_length_c   12.93344300
_cell_angle_alpha   115.96076600
_cell_angle_beta   91.71036400
_cell_angle_gamma   77.31703200
_symmetry_Int_Tables_number   1
_chemical_formula_structural   Fe2H27C71N3O20
_chemical_formula_sum   'Fe2 H27 C71 N3 O20'
_cell_volume   4026.49556250
_cell_formula_units_Z   1
loop_
 _symmetry_equiv_pos_site_id
 _symmetry_equiv_pos_as_xyz
  1  'x, y, z'
loop_
 _atom_site_type_symbol
 _atom_site_label
 _atom_site_symmetry_multiplicity
 _atom_site_fract_x
 _atom_site_fract_y
 _atom_site_fract_z
 _atom_site_occupancy
  Fe  Fe1  1  0.63517900  0.13707800  0.52753700  1
  Fe  Fe2  1  0.63858500  0.08464900  0.93771000  1
  H  H1  1  0.19514100  0.32341900  0.28509000  1
  H  H2  1  0.30205600  0.96628500  0.17408300  1
  H  H3  1  0.23315500  0.87614900  0.15634600  1
  H  H4  1  0.99206100  0.01227100  0.22008000  1
  H  H5  1  0.97143400  0.25655700  0.29224200  1
  H  H6  1  0.04025700  0.34647900  0.30869400  1
  H  H7  1  0.28135700  0.21029200  0.24455000  1
  H  H8  1  0.32912300  0.06420500  0.03555800  1
  H  H9  1  0.55843900  0.05632300  0.20515700  1
  H  H10  1  0.32170600  0.11539100  0.39344700  1
  H  H11  1  0.95196300  0.10703500  0.07257000  1
  H  H12  1  0.71516000  0.16623600  0.26063600  1
  H  H13  1  0.94431900  0.15896300  0.43075300  1
  H  H14  1  0.41262200  0.31705300  0.10868100  1
  H  H15  1  0.32997800  0.41357500  0.07852000  1
  H  H16  1  0.07608900  0.47175800  0.89280000  1
  H  H17  1  0.84149400  0.90592600  0.73549800  1
  H  H18  1  0.85650200  0.66927700  0.66035500  1
  H  H19  1  0.93387900  0.59046400  0.72446900  1
  H  H20  1  0.99443800  0.55009800  0.83080800  1
  H  H21  1  0.43411400  0.31712700  0.73132400  1
  H  H22  1  0.43096500  0.53845700  0.76985000  1
  H  H23  1  0.28303700  0.70081000  0.68789100  1
  H  H24  1  0.86940100  0.90937700  0.36160700  1
  H  H25  1  0.20137900  0.77684200  0.62213000  1
  H  H26  1  0.95503600  0.81452900  0.39391200  1
  H  H27  1  0.35470300  0.61653200  0.70435100  1
  C  C1  1  0.23373900  0.97950400  0.18577000  1
  C  C2  1  0.19513400  0.92734500  0.17497400  1
  C  C3  1  0.10843400  0.94011700  0.18737700  1
  C  C4  1  0.05987400  0.00519300  0.21101500  1
  C  C5  1  0.09795200  0.05860100  0.22263200  1
  C  C6  1  0.18551500  0.04559300  0.20954600  1
  C  C7  1  0.04923100  0.12450400  0.24657500  1
  C  C8  1  0.08796100  0.17721400  0.25661200  1
  C  C9  1  0.17551500  0.16416200  0.24326500  1
  C  C10  1  0.22426100  0.09831300  0.21963300  1
  C  C11  1  0.03973100  0.24328800  0.28029200  1
  C  C12  1  0.07830200  0.29532300  0.29029200  1
  C  C13  1  0.16498300  0.28243300  0.27719500  1
  C  C14  1  0.21356000  0.21744600  0.25411700  1
  C  C15  1  0.36240000  0.06749200  0.11082000  1
  C  C16  1  0.44983600  0.05666500  0.10732100  1
  C  C17  1  0.49072100  0.06147300  0.20486100  1
  C  C18  1  0.44501800  0.08417300  0.30799300  1
  C  C19  1  0.35800700  0.09638900  0.31225200  1
  C  C20  1  0.31683700  0.08554100  0.21297200  1
  C  C21  1  0.91559800  0.12613300  0.15374200  1
  C  C22  1  0.82860900  0.13821400  0.15788200  1
  C  C23  1  0.78287100  0.16108700  0.26101400  1
  C  C24  1  0.82365800  0.16613000  0.35870900  1
  C  C25  1  0.91106700  0.15547600  0.35538600  1
  C  C26  1  0.95667200  0.13726700  0.25317500  1
  C  C27  1  0.77418900  0.16974700  0.45513300  1
  C  C28  1  0.75249800  0.01852400  0.50536300  1
  C  C29  1  0.48904700  0.10758100  0.41340700  1
  C  C30  1  0.52988800  0.20548600  0.72774600  1
  C  C31  1  0.74438400  0.01718500  0.73827400  1
  C  C32  1  0.78457000  0.11467600  0.05250600  1
  C  C33  1  0.52389800  0.20469800  0.96142100  1
  C  C34  1  0.49915900  0.05302400  0.01072800  1
  C  C35  1  0.24343600  0.43871300  0.88812900  1
  C  C36  1  0.36811800  0.46376700  0.84785100  1
  C  C37  1  0.43088300  0.31713400  0.81469100  1
  C  C38  1  0.47697600  0.26096100  0.82883900  1
  C  C39  1  0.41831100  0.31569800  0.02465300  1
  C  C40  1  0.37119700  0.37080800  0.00817500  1
  C  C41  1  0.37779400  0.37175000  0.90303600  1
  C  C42  1  0.23504100  0.52294500  0.81538800  1
  C  C43  1  0.19574800  0.48674400  0.85484900  1
  C  C44  1  0.10896000  0.49791000  0.85932300  1
  C  C45  1  0.32193700  0.51173500  0.81351100  1
  C  C46  1  0.47185100  0.26013000  0.93598300  1
  C  C47  1  0.80564900  0.96392000  0.53176500  1
  C  C48  1  0.05441300  0.61983000  0.72824100  1
  C  C49  1  0.18121100  0.65438500  0.70471100  1
  C  C50  1  0.09456200  0.65956200  0.69660900  1
  C  C51  1  0.96861500  0.62310800  0.71092800  1
  C  C52  1  0.92310000  0.66795900  0.67112900  1
  C  C53  1  0.96187200  0.71021300  0.64644100  1
  C  C54  1  0.04745500  0.70528600  0.65733100  1
  C  C55  1  0.08513000  0.74725400  0.62986000  1
  C  C56  1  0.03693600  0.79440100  0.59517200  1
  C  C57  1  0.91516900  0.75773600  0.61154500  1
  C  C58  1  0.84599400  0.90671800  0.65289100  1
  C  C59  1  0.79888200  0.96235900  0.63813200  1
  C  C60  1  0.86223000  0.90999200  0.44485400  1
  C  C61  1  0.91092300  0.85584000  0.46244000  1
  C  C62  1  0.90225500  0.85392000  0.56642000  1
  C  C63  1  0.10081100  0.57719800  0.77470500  1
  C  C64  1  0.18811600  0.56907100  0.77676100  1
  C  C65  1  0.22899700  0.60614900  0.73960900  1
  C  C66  1  0.06195100  0.54275900  0.82053600  1
  C  C67  1  0.36270100  0.54700200  0.77417900  1
  C  C68  1  0.21774900  0.69816500  0.67808500  1
  C  C69  1  0.17027400  0.74371900  0.64105000  1
  C  C70  1  0.31717800  0.59340400  0.73746900  1
  C  C71  1  0.06837200  0.88549600  0.17564500  1
  N  N1  1  0.32860500  0.42736800  0.88291100  1
  N  N2  1  0.95297800  0.79937100  0.58764900  1
  N  N3  1  0.03609200  0.84143900  0.16614500  1
  O  O1  1  0.69160500  0.17883600  0.44992300  1
  O  O2  1  0.75693000  0.01330900  0.40055400  1
  O  O3  1  0.81205300  0.14743800  0.52724900  1
  O  O4  1  0.69971300  0.07188500  0.58480700  1
  O  O5  1  0.56854200  0.07617700  0.40988300  1
  O  O6  1  0.45759600  0.16921600  0.49766200  1
  O  O7  1  0.57498700  0.22229300  0.66583000  1
  O  O8  1  0.52106600  0.14118300  0.68746000  1
  O  O9  1  0.69939600  0.99972400  0.79930500  1
  O  O10  1  0.75200900  0.08182800  0.77922000  1
  O  O11  1  0.70476200  0.14551900  0.05642100  1
  O  O12  1  0.81665700  0.05342700  0.96767800  1
  O  O13  1  0.46132300  0.07690400  0.94043500  1
  O  O14  1  0.57430200  0.15008500  0.88074200  1
  O  O15  1  0.58196800  0.04231600  0.01418400  1
  O  O16  1  0.52087600  0.21039800  0.06663200  1
  O  O17  1  0.20506900  0.40076900  0.92058800  1
  O  O18  1  0.83139500  0.76308300  0.60222600  1
  O  O19  1  0.45303600  0.45300900  0.84592900  1
  O  O20  1  0.07307100  0.83762100  0.57363100  1
