# generated using pymatgen
data_CuH17C22NO4
_symmetry_space_group_name_H-M   'P 1'
_cell_length_a   9.55069700
_cell_length_b   10.94935100
_cell_length_c   13.96711300
_cell_angle_alpha   89.98826100
_cell_angle_beta   85.22171500
_cell_angle_gamma   89.99978900
_symmetry_Int_Tables_number   1
_chemical_formula_structural   CuH17C22NO4
_chemical_formula_sum   'Cu2 H34 C44 N2 O8'
_cell_volume   1455.51961970
_cell_formula_units_Z   2
loop_
 _symmetry_equiv_pos_site_id
 _symmetry_equiv_pos_as_xyz
  1  'x, y, z'
loop_
 _atom_site_type_symbol
 _atom_site_label
 _atom_site_symmetry_multiplicity
 _atom_site_fract_x
 _atom_site_fract_y
 _atom_site_fract_z
 _atom_site_occupancy
  Cu  Cu1  1  0.35983800  0.50279300  0.49921000  1
  Cu  Cu2  1  0.64008100  0.49605100  0.50167400  1
  H  H1  1  0.34426200  0.46691700  0.01849900  1
  H  H2  1  0.65565700  0.53192700  0.98238500  1
  H  H3  1  0.96262400  0.91777300  0.57284000  1
  H  H4  1  0.03729500  0.08107100  0.42804300  1
  H  H5  1  0.32228800  0.79243700  0.36844100  1
  H  H6  1  0.67763100  0.20640800  0.63244200  1
  H  H7  1  0.09758100  0.88523800  0.35004300  1
  H  H8  1  0.90233900  0.11360600  0.65084000  1
  H  H9  1  0.20408400  0.18618400  0.51528600  1
  H  H10  1  0.79583500  0.81266100  0.48559700  1
  H  H11  1  0.76859200  0.32537100  0.37531000  1
  H  H12  1  0.23132800  0.67347300  0.62557300  1
  H  H13  1  0.90261700  0.22256000  0.25859500  1
  H  H14  1  0.09730300  0.77628500  0.74228800  1
  H  H15  1  0.26770500  0.34510100  0.36904000  1
  H  H16  1  0.73221500  0.65374300  0.63184300  1
  H  H17  1  0.86167200  0.88724300  0.76579100  1
  H  H18  1  0.85687200  0.75877700  0.84533100  1
  H  H19  1  0.63045600  0.69290600  0.78869000  1
  H  H20  1  0.63277100  0.82368500  0.70829000  1
  H  H21  1  0.64128000  0.96228400  0.84844400  1
  H  H22  1  0.63555600  0.83148000  0.92790000  1
  H  H23  1  0.41160600  0.90178900  0.79182900  1
  H  H24  1  0.39986700  0.92285600  0.92061400  1
  H  H25  1  0.40586500  0.77034200  0.87090100  1
  H  H26  1  0.14304500  0.24006900  0.15555300  1
  H  H27  1  0.13824600  0.11160200  0.23509300  1
  H  H28  1  0.36714800  0.17516000  0.29259300  1
  H  H29  1  0.36946200  0.30594100  0.21219400  1
  H  H30  1  0.36436600  0.16736900  0.07298200  1
  H  H31  1  0.35864000  0.03656300  0.15243500  1
  H  H32  1  0.59405400  0.22850400  0.12998500  1
  H  H33  1  0.60005100  0.07599100  0.08026800  1
  H  H34  1  0.58831100  0.09705300  0.20905300  1
  C  C1  1  0.50847700  0.73576300  0.49277000  1
  C  C2  1  0.49144200  0.26308100  0.50811300  1
  C  C3  1  0.47275400  0.49815100  0.68490300  1
  C  C4  1  0.52716500  0.50069400  0.31598100  1
  C  C5  1  0.54102100  0.50473200  0.21291700  1
  C  C6  1  0.45889700  0.49411300  0.78796700  1
  C  C7  1  0.55702800  0.51089700  0.02314600  1
  C  C8  1  0.44289000  0.48794800  0.97773700  1
  C  C9  1  0.45048900  0.49107000  0.87450500  1
  C  C10  1  0.54943000  0.50777400  0.12637900  1
  C  C11  1  0.29930000  0.87813600  0.40450700  1
  C  C12  1  0.70061900  0.12070900  0.59637600  1
  C  C13  1  0.17296400  0.93189900  0.39061300  1
  C  C14  1  0.82695500  0.06694500  0.61027000  1
  C  C15  1  0.14045500  0.04221900  0.43248000  1
  C  C16  1  0.85946500  0.95662500  0.56840300  1
  C  C17  1  0.24006800  0.10476600  0.47837100  1
  C  C18  1  0.75985200  0.89407900  0.52251200  1
  C  C19  1  0.37461400  0.05729400  0.48392800  1
  C  C20  1  0.62530500  0.94155100  0.51695500  1
  C  C21  1  0.39571800  0.93522600  0.45910900  1
  C  C22  1  0.60420100  0.06361800  0.54177500  1
  C  C23  1  0.48545500  0.12614200  0.51654700  1
  C  C24  1  0.51446400  0.87270300  0.48433600  1
  C  C25  1  0.87643900  0.34398200  0.37656700  1
  C  C26  1  0.12348000  0.65486200  0.62431700  1
  C  C27  1  0.95457800  0.28007300  0.30763700  1
  C  C28  1  0.04534100  0.71877200  0.69324700  1
  C  C29  1  0.09646100  0.28397600  0.30311700  1
  C  C30  1  0.90345800  0.71486900  0.69776600  1
  C  C31  1  0.15861500  0.35415700  0.37004200  1
  C  C32  1  0.84130400  0.64468800  0.63084200  1
  C  C33  1  0.08222900  0.42987700  0.43691100  1
  C  C34  1  0.91769000  0.56896800  0.56397200  1
  C  C35  1  0.93464600  0.42403600  0.44029700  1
  C  C36  1  0.06527300  0.57480800  0.56058700  1
  C  C37  1  0.82629900  0.79122700  0.77478800  1
  C  C38  1  0.66704400  0.78788100  0.77674400  1
  C  C39  1  0.60376900  0.86692700  0.85854700  1
  C  C40  1  0.44486000  0.86519500  0.86042800  1
  C  C41  1  0.17362000  0.20761900  0.22609500  1
  C  C42  1  0.33287500  0.21096500  0.22413900  1
  C  C43  1  0.39615000  0.13192000  0.14233500  1
  C  C44  1  0.55505900  0.13365000  0.14045500  1
  N  N1  1  0.14914800  0.50649000  0.49656300  1
  N  N2  1  0.85077100  0.49235400  0.50432000  1
  O  O1  1  0.38572800  0.67998400  0.50028700  1
  O  O2  1  0.61419100  0.31886000  0.50059700  1
  O  O3  1  0.62459500  0.67370700  0.49644400  1
  O  O4  1  0.37532400  0.32513700  0.50444000  1
  O  O5  1  0.35948700  0.50656000  0.63907500  1
  O  O6  1  0.64043200  0.49228500  0.36180900  1
  O  O7  1  0.59866900  0.49209900  0.64100300  1
  O  O8  1  0.40125000  0.50674600  0.35988000  1
