# generated using pymatgen
data_CuH13C25NO5
_symmetry_space_group_name_H-M   'P 1'
_cell_length_a   14.61758200
_cell_length_b   16.03625700
_cell_length_c   17.39688200
_cell_angle_alpha   89.99756100
_cell_angle_beta   86.31086200
_cell_angle_gamma   90.00913700
_symmetry_Int_Tables_number   1
_chemical_formula_structural   CuH13C25NO5
_chemical_formula_sum   'Cu2 H26 C50 N2 O10'
_cell_volume   4069.57535178
_cell_formula_units_Z   2
loop_
 _symmetry_equiv_pos_site_id
 _symmetry_equiv_pos_as_xyz
  1  'x, y, z'
loop_
 _atom_site_type_symbol
 _atom_site_label
 _atom_site_symmetry_multiplicity
 _atom_site_fract_x
 _atom_site_fract_y
 _atom_site_fract_z
 _atom_site_occupancy
  Cu  Cu1  1  0.41701100  0.49317000  0.49969300  1
  Cu  Cu2  1  0.60025600  0.49372400  0.49758500  1
  H  H1  1  0.64025300  0.48941500  0.73988100  1
  H  H2  1  0.37662600  0.49733700  0.25764500  1
  H  H3  1  0.66964600  0.49998000  0.25392200  1
  H  H4  1  0.34733500  0.49096800  0.74310400  1
  H  H5  1  0.60659800  0.52842700  0.99594000  1
  H  H6  1  0.40958100  0.46242400  0.00126400  1
  H  H7  1  0.33935100  0.48731400  0.88281800  1
  H  H8  1  0.67716100  0.50489400  0.11424600  1
  H  H9  1  0.38405300  0.50408100  0.11957400  1
  H  H10  1  0.63234600  0.48419900  0.87813100  1
  H  H11  1  0.36630600  0.91741600  0.53329000  1
  H  H12  1  0.65110200  0.06939000  0.46014000  1
  H  H13  1  0.36704700  0.07081600  0.53242600  1
  H  H14  1  0.65038900  0.91594000  0.46115100  1
  H  H15  1  0.93289000  0.44120400  0.38610100  1
  H  H16  1  0.08437100  0.54852300  0.60998900  1
  H  H17  1  0.16770300  0.34321600  0.24065600  1
  H  H18  1  0.15187400  0.38636400  0.10767200  1
  H  H19  1  0.07967900  0.52039900  0.07953300  1
  H  H20  1  0.02442600  0.61222600  0.18567400  1
  H  H21  1  0.04102900  0.57148200  0.31885700  1
  H  H22  1  0.76685000  0.60618700  0.72956800  1
  H  H23  1  0.65732500  0.72030100  0.72112100  1
  H  H24  1  0.66466200  0.81258900  0.60809400  1
  H  H25  1  0.78260000  0.79019400  0.50301000  1
  H  H26  1  0.89340800  0.67729400  0.51054100  1
  C  C1  1  0.50802100  0.65344800  0.49946000  1
  C  C2  1  0.50928700  0.33342400  0.49718800  1
  C  C3  1  0.49964500  0.49253500  0.64672800  1
  C  C4  1  0.51758400  0.49534000  0.35056400  1
  C  C5  1  0.49448000  0.49155300  0.73120100  1
  C  C6  1  0.52254500  0.49760900  0.26610600  1
  C  C7  1  0.57361300  0.49005200  0.77055800  1
  C  C8  1  0.44325200  0.49831100  0.22690500  1
  C  C9  1  0.56887700  0.48803600  0.84997900  1
  C  C10  1  0.44771900  0.50106900  0.14751000  1
  C  C11  1  0.48453000  0.48792700  0.89124600  1
  C  C12  1  0.53195200  0.50258800  0.10607500  1
  C  C13  1  0.40571200  0.48826500  0.85160500  1
  C  C14  1  0.61089400  0.50297500  0.14557000  1
  C  C15  1  0.41039900  0.49048200  0.77225900  1
  C  C16  1  0.60648600  0.50007700  0.22489900  1
  C  C17  1  0.47477000  0.48413100  0.97608000  1
  C  C18  1  0.54148600  0.50663100  0.02122600  1
  C  C19  1  0.42926500  0.03678400  0.51664700  1
  C  C20  1  0.58811100  0.95000200  0.47667200  1
  C  C21  1  0.50907700  0.07936600  0.49611500  1
  C  C22  1  0.50826700  0.90744300  0.49715600  1
  C  C23  1  0.58851100  0.03598900  0.47611700  1
  C  C24  1  0.42885100  0.95081500  0.51714900  1
  C  C25  1  0.50949100  0.16882900  0.49602800  1
  C  C26  1  0.50790100  0.81800300  0.49788400  1
  C  C27  1  0.50782300  0.74288600  0.49859900  1
  C  C28  1  0.50955900  0.24396200  0.49631500  1
  C  C29  1  0.06103200  0.46405400  0.43504400  1
  C  C30  1  0.95676500  0.53009500  0.55918200  1
  C  C31  1  0.10294300  0.49267300  0.49902900  1
  C  C32  1  0.91445200  0.49881800  0.49628400  1
  C  C33  1  0.05083100  0.52519000  0.56074400  1
  C  C34  1  0.96660000  0.46638800  0.43450400  1
  C  C35  1  0.20101500  0.49267300  0.50056500  1
  C  C36  1  0.81630200  0.49600800  0.49589900  1
  C  C37  1  0.11572500  0.42729400  0.36967500  1
  C  C38  1  0.10363700  0.45317800  0.28971500  1
  C  C39  1  0.13587600  0.40246300  0.22958800  1
  C  C40  1  0.12695800  0.42649800  0.15435200  1
  C  C41  1  0.08647500  0.50156300  0.13855000  1
  C  C42  1  0.05530600  0.55288700  0.19806300  1
  C  C43  1  0.06406000  0.52911100  0.27340400  1
  C  C44  1  0.90350700  0.56408000  0.62656500  1
  C  C45  1  0.83701000  0.63240800  0.62010500  1
  C  C46  1  0.77112700  0.64609100  0.67941100  1
  C  C47  1  0.70907500  0.71034100  0.67481400  1
  C  C48  1  0.71304800  0.76197100  0.61143000  1
  C  C49  1  0.77912400  0.74932700  0.55252700  1
  C  C50  1  0.84119400  0.68500400  0.55681000  1
  N  N1  1  0.73717900  0.49424800  0.49596500  1
  N  N2  1  0.28009700  0.49276500  0.50121200  1
  O  O1  1  0.42947400  0.61441900  0.49797400  1
  O  O2  1  0.58795100  0.37253100  0.49436700  1
  O  O3  1  0.58710800  0.61488900  0.49619100  1
  O  O4  1  0.43059900  0.37206400  0.49620000  1
  O  O5  1  0.42322200  0.49486500  0.61147600  1
  O  O6  1  0.59415700  0.49733900  0.38581800  1
  O  O7  1  0.58042800  0.49531800  0.60966800  1
  O  O8  1  0.43668100  0.49683000  0.38764600  1
  O  O9  1  0.17092600  0.37257200  0.38181300  1
  O  O10  1  0.91870800  0.53783800  0.69027600  1
