# generated using pymatgen
data_Fe2H20C49O17
_symmetry_space_group_name_H-M   'P 1'
_cell_length_a   13.54334300
_cell_length_b   9.37541500
_cell_length_c   19.28835400
_cell_angle_alpha   85.25692200
_cell_angle_beta   98.93492700
_cell_angle_gamma   112.89509800
_symmetry_Int_Tables_number   1
_chemical_formula_structural   Fe2H20C49O17
_chemical_formula_sum   'Fe2 H20 C49 O17'
_cell_volume   2228.13777181
_cell_formula_units_Z   1
loop_
 _symmetry_equiv_pos_site_id
 _symmetry_equiv_pos_as_xyz
  1  'x, y, z'
loop_
 _atom_site_type_symbol
 _atom_site_label
 _atom_site_symmetry_multiplicity
 _atom_site_fract_x
 _atom_site_fract_y
 _atom_site_fract_z
 _atom_site_occupancy
  Fe  Fe1  1  0.50243700  0.96586000  0.13354700  1
  Fe  Fe2  1  0.49358500  0.95437500  0.87326000  1
  H  H1  1  0.09595800  0.85314500  0.84198500  1
  H  H2  1  0.92049300  0.85459900  0.82524900  1
  H  H3  1  0.77712700  0.89798000  0.86746400  1
  H  H4  1  0.21939900  0.02384900  0.13920800  1
  H  H5  1  0.07596700  0.06701800  0.18146300  1
  H  H6  1  0.90034600  0.06782800  0.16481300  1
  H  H7  1  0.47672300  0.48765000  0.84626300  1
  H  H8  1  0.48282500  0.23660700  0.67340100  1
  H  H9  1  0.50164100  0.70208700  0.64355000  1
  H  H10  1  0.60456300  0.35488100  0.58808300  1
  H  H11  1  0.61241700  0.34943800  0.46341800  1
  H  H12  1  0.37903000  0.55665900  0.41668900  1
  H  H13  1  0.49680300  0.21859500  0.36364400  1
  H  H14  1  0.52180500  0.43367400  0.16105800  1
  H  H15  1  0.50119500  0.67675700  0.33239200  1
  H  H16  1  0.24339300  0.67787100  0.62452700  1
  H  H17  1  0.12800000  0.54016500  0.71396600  1
  H  H18  1  0.09109100  0.26470900  0.74094500  1
  H  H19  1  0.16852400  0.12609200  0.67691700  1
  H  H20  1  0.28179300  0.26033200  0.58643900  1
  C  C1  1  0.20508400  0.90585800  0.93783100  1
  C  C2  1  0.10775400  0.88349600  0.89632700  1
  C  C3  1  0.02579800  0.90504400  0.92248000  1
  C  C4  1  0.93102500  0.88716700  0.87919100  1
  C  C5  1  0.84914400  0.91185600  0.90386900  1
  C  C6  1  0.21819100  0.94477400  0.00774900  1
  C  C7  1  0.13516300  0.96703900  0.03391400  1
  C  C8  1  0.03932400  0.94820900  0.99084400  1
  C  C9  1  0.95711700  0.97338700  0.01587100  1
  C  C10  1  0.86128400  0.95458000  0.97279700  1
  C  C11  1  0.77819400  0.97665300  0.99898100  1
  C  C12  1  0.14734600  0.00988600  0.10282400  1
  C  C13  1  0.06543700  0.03447000  0.12751900  1
  C  C14  1  0.97062300  0.01645900  0.08424800  1
  C  C15  1  0.88858400  0.03768300  0.11044500  1
  C  C16  1  0.79119400  0.01509700  0.06896900  1
  C  C17  1  0.70135700  0.01503200  0.10339400  1
  C  C18  1  0.51185500  0.69922300  0.19308200  1
  C  C19  1  0.32279600  0.98109200  0.05162100  1
  C  C20  1  0.50419900  0.17027500  0.23105200  1
  C  C21  1  0.49433100  0.75044500  0.77643000  1
  C  C22  1  0.67357900  0.94019100  0.95507900  1
  C  C23  1  0.48213500  0.21965900  0.81363700  1
  C  C24  1  0.29482000  0.90541900  0.90345500  1
  C  C25  1  0.48187300  0.34885100  0.76523900  1
  C  C26  1  0.48492000  0.34131400  0.69431400  1
  C  C27  1  0.48675900  0.46566300  0.64967300  1
  C  C28  1  0.49250300  0.60071700  0.67702000  1
  C  C29  1  0.48637800  0.60693400  0.74724700  1
  C  C30  1  0.47874700  0.48008900  0.79095300  1
  C  C31  1  0.55297200  0.39666100  0.55085400  1
  C  C32  1  0.55786800  0.39445700  0.48018000  1
  C  C33  1  0.49723400  0.45497200  0.43168900  1
  C  C34  1  0.43004000  0.51505000  0.45451100  1
  C  C35  1  0.42128100  0.51159400  0.52511600  1
  C  C36  1  0.48571200  0.45634500  0.57396000  1
  C  C37  1  0.50315300  0.31877800  0.32986000  1
  C  C38  1  0.51109000  0.31360400  0.25990200  1
  C  C39  1  0.51757900  0.44003700  0.21612300  1
  C  C40  1  0.51111700  0.56946400  0.24145000  1
  C  C41  1  0.50314900  0.57425800  0.31184600  1
  C  C42  1  0.50168600  0.45004800  0.35649200  1
  C  C43  1  0.34119700  0.56363200  0.54612300  1
  C  C44  1  0.27340200  0.48025400  0.60057300  1
  C  C45  1  0.22769900  0.55668200  0.63569600  1
  C  C46  1  0.16281200  0.47951800  0.68624800  1
  C  C47  1  0.14219600  0.32521300  0.70143100  1
  C  C48  1  0.18592000  0.24771600  0.66569700  1
  C  C49  1  0.25106800  0.32460100  0.61521700  1
  O  O1  1  0.60904900  0.00762000  0.06747200  1
  O  O2  1  0.53093000  0.69896100  0.12845200  1
  O  O3  1  0.70987600  0.00767800  0.17218900  1
  O  O4  1  0.49188900  0.81494600  0.21294100  1
  O  O5  1  0.35522500  0.87039700  0.07815800  1
  O  O6  1  0.38400200  0.12608100  0.06542000  1
  O  O7  1  0.54897000  0.17545300  0.17468300  1
  O  O8  1  0.44453800  0.03675000  0.25765900  1
  O  O9  1  0.44785000  0.74490900  0.83206600  1
  O  O10  1  0.55476400  0.88406800  0.75029800  1
  O  O11  1  0.64077000  0.05066300  0.92870900  1
  O  O12  1  0.61265000  0.79517000  0.94115600  1
  O  O13  1  0.28663200  0.91393300  0.83467500  1
  O  O14  1  0.50357400  0.10517800  0.79387300  1
  O  O15  1  0.38681500  0.91142700  0.93940000  1
  O  O16  1  0.46342200  0.21986700  0.87835900  1
  O  O17  1  0.32823600  0.67585000  0.51596100  1
