# generated using pymatgen
data_Fe2H24C58N8O17
_symmetry_space_group_name_H-M   'P 1'
_cell_length_a   19.78707700
_cell_length_b   16.97320700
_cell_length_c   11.14860400
_cell_angle_alpha   108.73710500
_cell_angle_beta   96.37107000
_cell_angle_gamma   106.87180200
_symmetry_Int_Tables_number   1
_chemical_formula_structural   Fe2H24C58N8O17
_chemical_formula_sum   'Fe2 H24 C58 N8 O17'
_cell_volume   3305.93982925
_cell_formula_units_Z   1
loop_
 _symmetry_equiv_pos_site_id
 _symmetry_equiv_pos_as_xyz
  1  'x, y, z'
loop_
 _atom_site_type_symbol
 _atom_site_label
 _atom_site_symmetry_multiplicity
 _atom_site_fract_x
 _atom_site_fract_y
 _atom_site_fract_z
 _atom_site_occupancy
  Fe  Fe1  1  0.50829500  0.00357500  0.24767100  1
  Fe  Fe2  1  0.49306200  0.00025000  0.75021300  1
  H  H1  1  0.90934100  0.11005400  0.34377900  1
  H  H2  1  0.82878700  0.02254100  0.72525100  1
  H  H3  1  0.08988000  0.88458200  0.65669800  1
  H  H4  1  0.17454000  0.98198600  0.27582400  1
  H  H5  1  0.97705700  0.06642500  0.02274300  1
  H  H6  1  0.02395100  0.93260700  0.97757200  1
  H  H7  1  0.21742300  0.94028100  0.72616300  1
  H  H8  1  0.27788300  0.99576100  0.19568500  1
  H  H9  1  0.17764100  0.03136200  0.49278500  1
  H  H10  1  0.15686300  0.09631000  0.71073400  1
  H  H11  1  0.05448700  0.14994100  0.73798800  1
  H  H12  1  0.97166000  0.14005800  0.54767400  1
  H  H13  1  0.78251300  0.05923800  0.27125900  1
  H  H14  1  0.72466800  0.00947300  0.80346800  1
  H  H15  1  0.82471300  0.97389700  0.51063000  1
  H  H16  1  0.83804100  0.90039300  0.29033100  1
  H  H17  1  0.93244200  0.83337800  0.25709900  1
  H  H18  1  0.50562500  0.27647800  0.40752000  1
  H  H19  1  0.48621900  0.43312800  0.77949800  1
  H  H20  1  0.47794600  0.31203000  0.85205900  1
  H  H21  1  0.51434500  0.57024100  0.21792900  1
  H  H22  1  0.52245300  0.69122400  0.14520900  1
  H  H23  1  0.49583100  0.72732400  0.59037600  1
  H  H24  1  0.06120100  0.86567600  0.40480800  1
  C  C1  1  0.08493800  0.04881800  0.39853700  1
  C  C2  1  0.02883300  0.07907900  0.41374300  1
  C  C3  1  0.99322800  0.06550800  0.29118300  1
  C  C4  1  0.08273100  0.01754500  0.26686500  1
  C  C5  1  0.93334900  0.08370300  0.26455000  1
  C  C6  1  0.89427300  0.06381600  0.13206900  1
  C  C7  1  0.82176000  0.05216000  0.09837300  1
  C  C8  1  0.80610200  0.03746700  0.97006800  1
  C  C9  1  0.86857800  0.03858800  0.92547300  1
  C  C10  1  0.87218200  0.01824300  0.78786900  1
  C  C11  1  0.91900400  0.98365700  0.73296500  1
  C  C12  1  0.91506500  0.95016000  0.60090300  1
  C  C13  1  0.96852500  0.91491900  0.58352600  1
  C  C14  1  0.00556500  0.93009300  0.70665000  1
  C  C15  1  0.06557500  0.91204700  0.73429100  1
  C  C16  1  0.10610100  0.93578500  0.86727700  1
  C  C17  1  0.17908900  0.94917300  0.90039000  1
  C  C18  1  0.19564200  0.96573800  0.02922100  1
  C  C19  1  0.13344500  0.96416400  0.07469700  1
  C  C20  1  0.13067900  0.98517600  0.21274200  1
  C  C21  1  0.23135100  0.95141900  0.82810100  1
  C  C22  1  0.30249000  0.97040600  0.89042100  1
  C  C23  1  0.31819600  0.98436600  0.02318900  1
  C  C24  1  0.26453300  0.98235400  0.09287800  1
  C  C25  1  0.13243600  0.05449000  0.50367800  1
  C  C26  1  0.12066300  0.09109300  0.62622500  1
  C  C27  1  0.06286100  0.12137200  0.64161900  1
  C  C28  1  0.01610300  0.11568600  0.53470200  1
  C  C29  1  0.76916200  0.04948200  0.16977400  1
  C  C30  1  0.69842900  0.03175100  0.10717400  1
  C  C31  1  0.68335200  0.01922400  0.97487100  1
  C  C32  1  0.73749000  0.02192600  0.90603000  1
  C  C33  1  0.86727300  0.94615700  0.49747100  1
  C  C34  1  0.87480300  0.90474900  0.37344600  1
  C  C35  1  0.92830700  0.86727200  0.35479400  1
  C  C36  1  0.97575800  0.87169600  0.45977600  1
  C  C37  1  0.64116600  0.02526700  0.18182000  1
  C  C38  1  0.51850900  0.85157100  0.27588700  1
  C  C39  1  0.39123300  0.00584100  0.09575600  1
  C  C40  1  0.48908700  0.13087300  0.44770200  1
  C  C41  1  0.51217600  0.87281400  0.55003000  1
  C  C42  1  0.61034400  0.99765100  0.90178700  1
  C  C43  1  0.48221900  0.15183600  0.72144100  1
  C  C44  1  0.35956700  0.97668300  0.81523100  1
  C  C45  1  0.49373100  0.21483400  0.54550500  1
  C  C46  1  0.50072500  0.28546900  0.50616500  1
  C  C47  1  0.49720100  0.36407600  0.58827300  1
  C  C48  1  0.48890300  0.37242600  0.71263400  1
  C  C49  1  0.48366500  0.30286600  0.75373500  1
  C  C50  1  0.48557700  0.22317400  0.67108400  1
  C  C51  1  0.50144800  0.56712500  0.45574400  1
  C  C52  1  0.49963200  0.43650100  0.54197800  1
  C  C53  1  0.51183500  0.63102400  0.28487300  1
  C  C54  1  0.51696300  0.70052000  0.24366900  1
  C  C55  1  0.51526100  0.78031500  0.32639400  1
  C  C56  1  0.50742200  0.78881200  0.45217900  1
  C  C57  1  0.50051500  0.71822700  0.49161000  1
  C  C58  1  0.50383300  0.63952300  0.40941100  1
  N  N1  1  0.02648700  0.02799700  0.20115800  1
  N  N2  1  0.92292400  0.05605200  0.02574500  1
  N  N3  1  0.97455100  0.97145500  0.79764200  1
  N  N4  1  0.07821600  0.94441000  0.97446200  1
  N  N5  1  0.49382900  0.51202200  0.62050900  1
  N  N6  1  0.49484400  0.57655200  0.57797400  1
  N  N7  1  0.50725200  0.49160400  0.37721500  1
  N  N8  1  0.50624200  0.42707700  0.41975200  1
  O  O1  1  0.57581500  0.01979900  0.13222200  1
  O  O2  1  0.52901700  0.84099900  0.15841200  1
  O  O3  1  0.65520700  0.02385000  0.29879400  1
  O  O4  1  0.50653500  0.92327700  0.34350900  1
  O  O5  1  0.40767100  0.94736700  0.13517700  1
  O  O6  1  0.43898400  0.08571400  0.12942900  1
  O  O7  1  0.53944300  0.12697500  0.38094500  1
  O  O8  1  0.43083700  0.06059200  0.41773300  1
  O  O9  1  0.46183900  0.87679900  0.61681700  1
  O  O10  1  0.57052100  0.94299600  0.58009300  1
  O  O11  1  0.59370000  0.05625400  0.86293800  1
  O  O12  1  0.56261000  0.91777100  0.86813600  1
  O  O13  1  0.34497100  0.97662100  0.69746200  1
  O  O14  1  0.49507300  0.08063900  0.65446100  1
  O  O15  1  0.42541400  0.98399400  0.86556900  1
  O  O16  1  0.47082400  0.16191700  0.83829900  1
  O  O17  1  0.02509600  0.82965500  0.43850100  1
