# generated using pymatgen
data_Zn2H12C28N4O9
_symmetry_space_group_name_H-M   'P 1'
_cell_length_a   6.59688300
_cell_length_b   12.35472000
_cell_length_c   13.35728500
_cell_angle_alpha   89.88673900
_cell_angle_beta   89.91706700
_cell_angle_gamma   80.31270000
_symmetry_Int_Tables_number   1
_chemical_formula_structural   Zn2H12C28N4O9
_chemical_formula_sum   'Zn2 H12 C28 N4 O9'
_cell_volume   1073.12789449
_cell_formula_units_Z   1
loop_
 _symmetry_equiv_pos_site_id
 _symmetry_equiv_pos_as_xyz
  1  'x, y, z'
loop_
 _atom_site_type_symbol
 _atom_site_label
 _atom_site_symmetry_multiplicity
 _atom_site_fract_x
 _atom_site_fract_y
 _atom_site_fract_z
 _atom_site_occupancy
  Zn  Zn1  1  0.50944200  0.50523300  0.11053300  1
  Zn  Zn2  1  0.49074800  0.49764500  0.88744400  1
  H  H1  1  0.47007600  0.15423500  0.05713800  1
  H  H2  1  0.52852300  0.85703900  0.95404600  1
  H  H3  1  0.35078500  0.98075000  0.05128000  1
  H  H4  1  0.26144200  0.84606100  0.02083800  1
  H  H5  1  0.47983700  0.05197100  0.93873400  1
  H  H6  1  0.82862900  0.43757200  0.25776300  1
  H  H7  1  0.99170100  0.39641900  0.41592500  1
  H  H8  1  0.16511300  0.57152500  0.56680100  1
  H  H9  1  0.17606200  0.57787100  0.42375100  1
  H  H10  1  0.79650100  0.42646800  0.74711800  1
  H  H11  1  0.20343600  0.57785100  0.24312600  1
  H  H12  1  0.06338200  0.50794400  0.76688300  1
  C  C1  1  0.18210100  0.24894300  0.01682100  1
  C  C2  1  0.31187600  0.15244700  0.03786600  1
  C  C3  1  0.24308900  0.05361100  0.03344200  1
  C  C4  1  0.97746300  0.24723800  0.99703700  1
  C  C5  1  0.90944600  0.14756600  0.98914200  1
  C  C6  1  0.04247100  0.05012600  0.00578600  1
  C  C7  1  0.97058400  0.95126800  0.99713100  1
  C  C8  1  0.09897900  0.85154000  0.00872100  1
  C  C9  1  0.02417400  0.75443800  0.00067200  1
  C  C10  1  0.63890000  0.05103100  0.95829900  1
  C  C11  1  0.76689900  0.95232200  0.97431300  1
  C  C12  1  0.69028600  0.85507500  0.96838500  1
  C  C13  1  0.81783200  0.75554100  0.98287600  1
  C  C14  1  0.27166200  0.34869200  0.00990200  1
  C  C15  1  0.82474600  0.34779900  0.99688400  1
  C  C16  1  0.72660600  0.65550000  0.98841500  1
  C  C17  1  0.17418700  0.65375300  0.00093800  1
  C  C18  1  0.65734600  0.45714800  0.70619600  1
  C  C19  1  0.30827100  0.53394800  0.70691200  1
  C  C20  1  0.30699800  0.53829000  0.60370400  1
  C  C21  1  0.48575800  0.50173300  0.55068800  1
  C  C22  1  0.66179300  0.46027900  0.60305500  1
  C  C23  1  0.32286000  0.54695800  0.39026500  1
  C  C24  1  0.49326100  0.50596700  0.44703300  1
  C  C25  1  0.67599300  0.46772200  0.39873900  1
  C  C26  1  0.84832700  0.42650700  0.45373200  1
  C  C27  1  0.33807900  0.54761000  0.28748800  1
  C  C28  1  0.68604400  0.46960500  0.29543200  1
  N  N1  1  0.71153300  0.14619600  0.96580800  1
  N  N2  1  0.48217300  0.49369400  0.75636100  1
  N  N3  1  0.83881400  0.42370800  0.55431100  1
  N  N4  1  0.51750200  0.50937400  0.24162000  1
  O  O1  1  0.32319400  0.38013500  0.92068900  1
  O  O2  1  0.33042700  0.38965800  0.09320400  1
  O  O3  1  0.75177000  0.38591000  0.08389200  1
  O  O4  1  0.74301900  0.38374800  0.91113900  1
  O  O5  1  0.67637200  0.62300300  0.07734900  1
  O  O6  1  0.66932200  0.61360800  0.90493100  1
  O  O7  1  0.24820200  0.61666800  0.91406400  1
  O  O8  1  0.25690000  0.61883500  0.08674400  1
  O  O9  1  0.13288600  0.57252300  0.75915100  1
