# generated using pymatgen
data_ZnH9C19NO5
_symmetry_space_group_name_H-M   'P 1'
_cell_length_a   9.88430400
_cell_length_b   11.04188200
_cell_length_c   14.07908700
_cell_angle_alpha   89.98841300
_cell_angle_beta   85.26403300
_cell_angle_gamma   89.99890100
_symmetry_Int_Tables_number   1
_chemical_formula_structural   ZnH9C19NO5
_chemical_formula_sum   'Zn2 H18 C38 N2 O10'
_cell_volume   1531.36372132
_cell_formula_units_Z   2
loop_
 _symmetry_equiv_pos_site_id
 _symmetry_equiv_pos_as_xyz
  1  'x, y, z'
loop_
 _atom_site_type_symbol
 _atom_site_label
 _atom_site_symmetry_multiplicity
 _atom_site_fract_x
 _atom_site_fract_y
 _atom_site_fract_z
 _atom_site_occupancy
  Zn  Zn1  1  0.34606600  0.50414900  0.49979100  1
  Zn  Zn2  1  0.65393400  0.49585200  0.50020900  1
  H  H1  1  0.35213500  0.54092700  0.01628100  1
  H  H2  1  0.64786500  0.45907400  0.98371900  1
  H  H3  1  0.94940000  0.91808600  0.56513000  1
  H  H4  1  0.05060000  0.08191400  0.43487000  1
  H  H5  1  0.32739200  0.79972800  0.36525000  1
  H  H6  1  0.67260800  0.20027200  0.63475000  1
  H  H7  1  0.10874800  0.89163700  0.35150100  1
  H  H8  1  0.89125200  0.10836400  0.64850000  1
  H  H9  1  0.21493000  0.18531800  0.51972600  1
  H  H10  1  0.78507000  0.81468300  0.48027400  1
  H  H11  1  0.90615600  0.21811100  0.26611500  1
  H  H12  1  0.09384400  0.78189000  0.73388600  1
  H  H13  1  0.74031200  0.65484500  0.62483900  1
  H  H14  1  0.25968800  0.34515600  0.37516100  1
  H  H15  1  0.22665200  0.66933100  0.61934200  1
  H  H16  1  0.77334800  0.33066900  0.38065900  1
  H  H17  1  0.87530200  0.85184000  0.80632000  1
  H  H18  1  0.12469800  0.14816100  0.19368000  1
  C  C1  1  0.50665700  0.73873500  0.48954400  1
  C  C2  1  0.49334300  0.26126500  0.51045600  1
  C  C3  1  0.47531300  0.50687100  0.68629500  1
  C  C4  1  0.52468700  0.49313000  0.31370500  1
  C  C5  1  0.53585400  0.49004900  0.21146300  1
  C  C6  1  0.46414600  0.50995200  0.78853700  1
  C  C7  1  0.55355000  0.48517500  0.02316100  1
  C  C8  1  0.44645000  0.51482600  0.97684000  1
  C  C9  1  0.45575600  0.51226300  0.87439000  1
  C  C10  1  0.54424400  0.48773700  0.12561000  1
  C  C11  1  0.30537600  0.88348900  0.40288400  1
  C  C12  1  0.69462400  0.11651200  0.59711600  1
  C  C13  1  0.18246000  0.93679600  0.39173000  1
  C  C14  1  0.81754000  0.06320500  0.60827000  1
  C  C15  1  0.15117900  0.04423700  0.43640400  1
  C  C16  1  0.84882100  0.95576400  0.56359600  1
  C  C17  1  0.24871400  0.10544900  0.48137800  1
  C  C18  1  0.75128600  0.89455100  0.51862200  1
  C  C19  1  0.37901700  0.05827200  0.48483400  1
  C  C20  1  0.62098300  0.94172900  0.51516600  1
  C  C21  1  0.39901500  0.93794900  0.45792800  1
  C  C22  1  0.60098500  0.06205100  0.54207200  1
  C  C23  1  0.48638800  0.12530800  0.51820100  1
  C  C24  1  0.51361200  0.87469300  0.48179900  1
  C  C25  1  0.84657800  0.64667300  0.62465400  1
  C  C26  1  0.15342200  0.35332800  0.37534600  1
  C  C27  1  0.90653300  0.71841300  0.68905600  1
  C  C28  1  0.09346700  0.28158800  0.31094400  1
  C  C29  1  0.04437700  0.72280500  0.68626700  1
  C  C30  1  0.95562300  0.27719600  0.31373300  1
  C  C31  1  0.12068600  0.65535200  0.62024700  1
  C  C32  1  0.87931400  0.34464900  0.37975300  1
  C  C33  1  0.06280200  0.57553300  0.55881700  1
  C  C34  1  0.93719800  0.42446800  0.44118300  1
  C  C35  1  0.92111200  0.57062900  0.56108500  1
  C  C36  1  0.07888800  0.42937100  0.43891500  1
  C  C37  1  0.82512400  0.79399800  0.75787800  1
  C  C38  1  0.17487600  0.20600300  0.24212200  1
  N  N1  1  0.14258800  0.50518100  0.49769100  1
  N  N2  1  0.85741200  0.49481900  0.50230900  1
  O  O1  1  0.38717900  0.68424500  0.49492400  1
  O  O2  1  0.61282100  0.31575500  0.50507600  1
  O  O3  1  0.61873500  0.67633700  0.49372800  1
  O  O4  1  0.38126500  0.32366400  0.50627200  1
  O  O5  1  0.36402600  0.50995100  0.64209200  1
  O  O6  1  0.63597400  0.49005000  0.35790800  1
  O  O7  1  0.59662700  0.50087200  0.64176300  1
  O  O8  1  0.40337300  0.49912900  0.35823800  1
  O  O9  1  0.70145300  0.79212800  0.76167800  1
  O  O10  1  0.29854700  0.20787200  0.23832200  1
