# generated using pymatgen
data_ZnH10C20NO5
_symmetry_space_group_name_H-M   'P 1'
_cell_length_a   8.52735500
_cell_length_b   13.01382700
_cell_length_c   14.43450300
_cell_angle_alpha   110.42076900
_cell_angle_beta   90.08609200
_cell_angle_gamma   95.32155700
_symmetry_Int_Tables_number   1
_chemical_formula_structural   ZnH10C20NO5
_chemical_formula_sum   'Zn2 H20 C40 N2 O10'
_cell_volume   1493.72562947
_cell_formula_units_Z   2
loop_
 _symmetry_equiv_pos_site_id
 _symmetry_equiv_pos_as_xyz
  1  'x, y, z'
loop_
 _atom_site_type_symbol
 _atom_site_label
 _atom_site_symmetry_multiplicity
 _atom_site_fract_x
 _atom_site_fract_y
 _atom_site_fract_z
 _atom_site_occupancy
  Zn  Zn1  1  0.55705800  0.46493900  0.89161900  1
  Zn  Zn2  1  0.56605700  0.53555300  0.11161000  1
  H  H1  1  0.62700500  0.17440800  0.00648300  1
  H  H2  1  0.60474500  0.99033800  0.01386800  1
  H  H3  1  0.07380600  0.58578200  0.03624800  1
  H  H4  1  0.36138700  0.84510600  0.99012200  1
  H  H5  1  0.24810800  0.99962900  0.98811400  1
  H  H6  1  0.71828800  0.83160900  0.01255000  1
  H  H7  1  0.27142000  0.16524100  0.01519600  1
  H  H8  1  0.04406700  0.41239900  0.96267300  1
  H  H9  1  0.53281100  0.20872300  0.42180100  1
  H  H10  1  0.55245600  0.42341200  0.24648600  1
  H  H11  1  0.59078300  0.74465300  0.24785500  1
  H  H12  1  0.52205800  0.18152500  0.57436100  1
  H  H13  1  0.52820300  0.25549200  0.75468600  1
  H  H14  1  0.57920400  0.57756200  0.75723800  1
  H  H15  1  0.55230600  0.32265600  0.32606100  1
  H  H16  1  0.54594400  0.67425800  0.67658300  1
  H  H17  1  0.59489100  0.81973700  0.42645400  1
  H  H18  1  0.54800100  0.01415900  0.68953300  1
  H  H19  1  0.74655500  0.03837000  0.74250200  1
  H  H20  1  0.58423700  0.99662800  0.80652500  1
  C  C1  1  0.01478100  0.13512200  0.00163000  1
  C  C2  1  0.87919600  0.18712300  0.00049800  1
  C  C3  1  0.73307900  0.13500400  0.00646200  1
  C  C4  1  0.72019200  0.03038900  0.01019000  1
  C  C5  1  0.85246600  0.97594600  0.00699300  1
  C  C6  1  0.00069200  0.02734600  0.00277200  1
  C  C7  1  0.83485500  0.86955700  0.00810900  1
  C  C8  1  0.96524900  0.81376000  0.00711600  1
  C  C9  1  0.11330600  0.86345900  0.00110600  1
  C  C10  1  0.13046800  0.96805600  0.99681700  1
  C  C11  1  0.95118600  0.70994000  0.01445500  1
  C  C12  1  0.08463500  0.66256900  0.02371600  1
  C  C13  1  0.23092500  0.70816600  0.01159700  1
  C  C14  1  0.24581500  0.80844200  0.99863600  1
  C  C15  1  0.16127000  0.19341700  0.00337000  1
  C  C16  1  0.17049500  0.29287500  0.98945500  1
  C  C17  1  0.03585700  0.33660500  0.97694200  1
  C  C18  1  0.89127800  0.29001900  0.99062800  1
  C  C19  1  0.80076100  0.64428600  0.00970100  1
  C  C20  1  0.75798200  0.35502900  0.99500600  1
  C  C21  1  0.32101600  0.35772600  0.99380200  1
  C  C22  1  0.36435400  0.64437600  0.00795700  1
  C  C23  1  0.53241000  0.26971700  0.61257400  1
  C  C24  1  0.53621100  0.31121600  0.71382700  1
  C  C25  1  0.56198300  0.49170500  0.71280500  1
  C  C26  1  0.55391600  0.45307900  0.60926100  1
  C  C27  1  0.54186000  0.34040800  0.56040400  1
  C  C28  1  0.56010800  0.52294100  0.55345200  1
  C  C29  1  0.55996200  0.47828100  0.45003200  1
  C  C30  1  0.55144500  0.36437000  0.40449100  1
  C  C31  1  0.54064000  0.29698400  0.45928300  1
  C  C32  1  0.56361600  0.63647200  0.59911000  1
  C  C33  1  0.57699600  0.70505600  0.54490000  1
  C  C34  1  0.57676600  0.66119100  0.44330800  1
  C  C35  1  0.56671500  0.54828000  0.39441300  1
  C  C36  1  0.58605300  0.73132700  0.39019300  1
  C  C37  1  0.58368600  0.68923600  0.28901200  1
  C  C38  1  0.56308000  0.50927400  0.29082100  1
  C  C39  1  0.65584900  0.86939200  0.67952700  1
  C  C40  1  0.63214800  0.98715000  0.73292900  1
  N  N1  1  0.55175500  0.42063200  0.76213300  1
  N  N2  1  0.57149300  0.57987600  0.24109900  1
  O  O1  1  0.75011200  0.63370300  0.09185800  1
  O  O2  1  0.73829200  0.58410300  0.92203700  1
  O  O3  1  0.71116700  0.36603100  0.91269000  1
  O  O4  1  0.71201700  0.41556100  0.08238800  1
  O  O5  1  0.37242100  0.36723500  0.91134600  1
  O  O6  1  0.38481000  0.41651100  0.08133500  1
  O  O7  1  0.41143300  0.63414900  0.09060000  1
  O  O8  1  0.41125300  0.58486900  0.92067700  1
  O  O9  1  0.58327500  0.81527700  0.59028900  1
  O  O10  1  0.74878700  0.82498400  0.71363100  1
