# generated using pymatgen
data_Zn3H32C58(NO6)2
_symmetry_space_group_name_H-M   'P 1'
_cell_length_a   36.67589600
_cell_length_b   30.08840300
_cell_length_c   21.52427000
_cell_angle_alpha   90.00000000
_cell_angle_beta   55.15678500
_cell_angle_gamma   90.00000000
_symmetry_Int_Tables_number   1
_chemical_formula_structural   Zn3H32C58(NO6)2
_chemical_formula_sum   'Zn12 H128 C232 N8 O48'
_cell_volume   19494.07056612
_cell_formula_units_Z   4
loop_
 _symmetry_equiv_pos_site_id
 _symmetry_equiv_pos_as_xyz
  1  'x, y, z'
loop_
 _atom_site_type_symbol
 _atom_site_label
 _atom_site_symmetry_multiplicity
 _atom_site_fract_x
 _atom_site_fract_y
 _atom_site_fract_z
 _atom_site_occupancy
  Zn  Zn1  1  0.99911100  0.54269600  0.50064400  1
  Zn  Zn2  1  0.49911100  0.04269600  0.50064400  1
  Zn  Zn3  1  0.99909200  0.44193500  0.50070900  1
  Zn  Zn4  1  0.49909200  0.94193500  0.50070900  1
  Zn  Zn5  1  0.94847400  0.49352200  0.04960500  1
  Zn  Zn6  1  0.04921000  0.49303300  0.95219700  1
  Zn  Zn7  1  0.44847400  0.99352200  0.04960500  1
  Zn  Zn8  1  0.54921000  0.99303200  0.95219700  1
  Zn  Zn9  1  0.49943200  0.49318500  0.07111300  1
  Zn  Zn10  1  0.49876600  0.49329400  0.93097100  1
  Zn  Zn11  1  0.99943200  0.99318500  0.07111300  1
  Zn  Zn12  1  0.99876600  0.99329400  0.93097100  1
  H  H1  1  0.99346100  0.41687900  0.79781700  1
  H  H2  1  0.01427000  0.41901900  0.19524000  1
  H  H3  1  0.49346100  0.91687900  0.79781700  1
  H  H4  1  0.51427000  0.91901900  0.19524000  1
  H  H5  1  0.06244600  0.44877500  0.65240900  1
  H  H6  1  0.94181100  0.44197000  0.34388200  1
  H  H7  1  0.56244600  0.94877500  0.65240900  1
  H  H8  1  0.44181100  0.94197000  0.34388200  1
  H  H9  1  0.06754400  0.52483000  0.72352100  1
  H  H10  1  0.92644300  0.51616200  0.28201600  1
  H  H11  1  0.56754400  0.02483000  0.72352100  1
  H  H12  1  0.42644300  0.01616200  0.28201600  1
  H  H13  1  0.00640200  0.56777900  0.70466100  1
  H  H14  1  0.98149700  0.56738900  0.30584200  1
  H  H15  1  0.50640200  0.06777900  0.70466100  1
  H  H16  1  0.48149700  0.06738900  0.30584200  1
  H  H17  1  0.93607200  0.53536300  0.84854100  1
  H  H18  1  0.05538600  0.54412300  0.15841800  1
  H  H19  1  0.43607200  0.03536300  0.84854100  1
  H  H20  1  0.55538600  0.04412300  0.15841800  1
  H  H21  1  0.35870000  0.44266700  0.06951600  1
  H  H22  1  0.63985800  0.44462600  0.93413800  1
  H  H23  1  0.85870000  0.94266700  0.06951600  1
  H  H24  1  0.13985800  0.94462600  0.93413800  1
  H  H25  1  0.35951200  0.54352500  0.20665800  1
  H  H26  1  0.63834100  0.54263200  0.79377600  1
  H  H27  1  0.85951200  0.04352500  0.20665800  1
  H  H28  1  0.13834100  0.04263200  0.79377600  1
  H  H29  1  0.29120600  0.57434300  0.31007600  1
  H  H30  1  0.70639800  0.57311700  0.68927300  1
  H  H31  1  0.79120600  0.07434300  0.31007600  1
  H  H32  1  0.20639800  0.07311700  0.68927300  1
  H  H33  1  0.20999200  0.57582200  0.38929600  1
  H  H34  1  0.78759800  0.57505000  0.60973900  1
  H  H35  1  0.70999200  0.07582200  0.38929600  1
  H  H36  1  0.28759800  0.07505000  0.60973900  1
  H  H37  1  0.14048100  0.54683300  0.42099700  1
  H  H38  1  0.85730100  0.54717200  0.57871300  1
  H  H39  1  0.64048100  0.04683300  0.42099700  1
  H  H40  1  0.35730100  0.04717200  0.57871300  1
  H  H41  1  0.13843300  0.43642100  0.29918500  1
  H  H42  1  0.86015400  0.43905700  0.70363600  1
  H  H43  1  0.63843300  0.93642100  0.29918500  1
  H  H44  1  0.36015400  0.93905700  0.70363600  1
  H  H45  1  0.20632200  0.40782900  0.19241400  1
  H  H46  1  0.79271000  0.41066600  0.81064100  1
  H  H47  1  0.70632200  0.90782900  0.19241400  1
  H  H48  1  0.29271000  0.91066600  0.81064100  1
  H  H49  1  0.54366700  0.63390300  0.03528500  1
  H  H50  1  0.45389000  0.63362300  0.96955600  1
  H  H51  1  0.04366700  0.13390300  0.03528500  1
  H  H52  1  0.95389000  0.13362300  0.96955600  1
  H  H53  1  0.42607700  0.70255800  0.95647500  1
  H  H54  1  0.57143000  0.70290300  0.04799200  1
  H  H55  1  0.92607700  0.20255800  0.95647500  1
  H  H56  1  0.07143000  0.20290300  0.04799200  1
  H  H57  1  0.92416700  0.28383400  0.96048800  1
  H  H58  1  0.07345300  0.28416100  0.04327900  1
  H  H59  1  0.42416700  0.78383400  0.96048800  1
  H  H60  1  0.57345300  0.78416100  0.04327900  1
  H  H61  1  0.94952300  0.35295900  0.97869100  1
  H  H62  1  0.04846900  0.35308100  0.02385400  1
  H  H63  1  0.44952300  0.85295900  0.97869100  1
  H  H64  1  0.54846900  0.85308100  0.02385400  1
  H  H65  1  0.54706100  0.35270500  0.88036200  1
  H  H66  1  0.45151900  0.35312200  0.11930400  1
  H  H67  1  0.04706100  0.85270500  0.88036200  1
  H  H68  1  0.95151900  0.85312200  0.11930400  1
  H  H69  1  0.42172700  0.28423000  0.18589200  1
  H  H70  1  0.57665900  0.28353300  0.81449900  1
  H  H71  1  0.92172700  0.78423000  0.18589200  1
  H  H72  1  0.07665900  0.78353300  0.81449900  1
  H  H73  1  0.91950600  0.70297600  0.18542900  1
  H  H74  1  0.07847800  0.70227100  0.81579800  1
  H  H75  1  0.41950600  0.20297600  0.18542900  1
  H  H76  1  0.57847800  0.20227100  0.81579800  1
  H  H77  1  0.94616100  0.63383700  0.11831900  1
  H  H78  1  0.05128700  0.63333100  0.88357400  1
  H  H79  1  0.44616100  0.13383700  0.11831900  1
  H  H80  1  0.55128700  0.13333100  0.88357400  1
  H  H81  1  0.28949100  0.37088800  0.11045000  1
  H  H82  1  0.27495700  0.33666400  0.03172200  1
  H  H83  1  0.25263400  0.34335500  0.94466400  1
  H  H84  1  0.24480900  0.41702700  0.90419900  1
  H  H85  1  0.26032100  0.48431000  0.95009300  1
  H  H86  1  0.28349400  0.47847900  0.03580400  1
  H  H87  1  0.70469600  0.37442100  0.89598600  1
  H  H88  1  0.72596200  0.33536600  0.96194300  1
  H  H89  1  0.75609900  0.33601500  0.03810100  1
  H  H90  1  0.77040900  0.40689200  0.07728400  1
  H  H91  1  0.75360700  0.47747300  0.04115800  1
  H  H92  1  0.72287400  0.47758800  0.96601500  1
  H  H93  1  0.78949100  0.87088800  0.11045000  1
  H  H94  1  0.77495700  0.83666400  0.03172200  1
  H  H95  1  0.75263400  0.84335500  0.94466400  1
  H  H96  1  0.74480900  0.91702700  0.90419900  1
  H  H97  1  0.76032100  0.98431000  0.95009300  1
  H  H98  1  0.78349400  0.97847900  0.03580400  1
  H  H99  1  0.20469600  0.87442100  0.89598600  1
  H  H100  1  0.22596200  0.83536600  0.96194300  1
  H  H101  1  0.25609900  0.83601500  0.03810100  1
  H  H102  1  0.27040900  0.90689200  0.07728400  1
  H  H103  1  0.25360700  0.97747300  0.04115800  1
  H  H104  1  0.22287400  0.97758800  0.96601500  1
  H  H105  1  0.89606900  0.47732000  0.81837300  1
  H  H106  1  0.86005800  0.42708500  0.91769900  1
  H  H107  1  0.84728700  0.34922600  0.95805300  1
  H  H108  1  0.89416600  0.29038800  0.86801000  1
  H  H109  1  0.95392600  0.30959000  0.73671200  1
  H  H110  1  0.96714700  0.38743900  0.69566900  1
  H  H111  1  0.10310400  0.49153000  0.18045000  1
  H  H112  1  0.14222400  0.44451600  0.07616500  1
  H  H113  1  0.16263700  0.36809600  0.02949900  1
  H  H114  1  0.12476800  0.30518500  0.11625600  1
  H  H115  1  0.06611200  0.31886000  0.25056600  1
  H  H116  1  0.04498000  0.39522400  0.29779000  1
  H  H117  1  0.39606900  0.97732000  0.81837300  1
  H  H118  1  0.36005800  0.92708500  0.91769900  1
  H  H119  1  0.34728700  0.84922600  0.95805300  1
  H  H120  1  0.39416600  0.79038800  0.86801000  1
  H  H121  1  0.45392600  0.80959000  0.73671200  1
  H  H122  1  0.46714700  0.88743900  0.69566900  1
  H  H123  1  0.60310400  0.99153000  0.18045000  1
  H  H124  1  0.64222400  0.94451600  0.07616500  1
  H  H125  1  0.66263700  0.86809600  0.02949900  1
  H  H126  1  0.62476800  0.80518500  0.11625600  1
  H  H127  1  0.56611200  0.81886000  0.25056600  1
  H  H128  1  0.54498000  0.89522400  0.29779000  1
  C  C1  1  0.08597500  0.49138400  0.41425900  1
  C  C2  1  0.91224400  0.49325600  0.58706100  1
  C  C3  1  0.58597500  0.99138400  0.41425900  1
  C  C4  1  0.41224400  0.99325600  0.58706100  1
  C  C5  1  0.00006500  0.49145600  0.62104700  1
  C  C6  1  0.99811500  0.49318300  0.38031000  1
  C  C7  1  0.50006500  0.99145600  0.62104700  1
  C  C8  1  0.49811500  0.99318300  0.38031000  1
  C  C9  1  0.03377900  0.46825900  0.69776600  1
  C  C10  1  0.96759300  0.46499700  0.30097100  1
  C  C11  1  0.53377900  0.96825900  0.69776600  1
  C  C12  1  0.46759300  0.96499700  0.30097100  1
  C  C13  1  0.99591000  0.45064800  0.77506800  1
  C  C14  1  0.00740500  0.45232700  0.22180300  1
  C  C15  1  0.49591000  0.95064800  0.77506800  1
  C  C16  1  0.50740500  0.95232700  0.22180300  1
  C  C17  1  0.99876600  0.49257600  0.81080300  1
  C  C18  1  0.99891700  0.49324000  0.19103600  1
  C  C19  1  0.49876600  0.99257600  0.81080300  1
  C  C20  1  0.49891700  0.99324000  0.19103600  1
  C  C21  1  0.03660500  0.50994600  0.73495200  1
  C  C22  1  0.95916000  0.50565300  0.26873300  1
  C  C23  1  0.53660500  0.00994600  0.73495200  1
  C  C24  1  0.45916000  0.00565300  0.26873300  1
  C  C25  1  0.00301400  0.53345900  0.72612100  1
  C  C26  1  0.98940300  0.53372000  0.28035800  1
  C  C27  1  0.50301400  0.03345900  0.72612100  1
  C  C28  1  0.48940300  0.03372000  0.28035800  1
  C  C29  1  0.96507600  0.51617700  0.80328500  1
  C  C30  1  0.02923400  0.52138400  0.20137300  1
  C  C31  1  0.46507600  0.01617700  0.80328500  1
  C  C32  1  0.52923400  0.02138400  0.20137300  1
  C  C33  1  0.96340100  0.47483600  0.76551000  1
  C  C34  1  0.03645900  0.48088700  0.23424800  1
  C  C35  1  0.46340100  0.97483600  0.76551000  1
  C  C36  1  0.53645900  0.98088700  0.23424800  1
  C  C37  1  0.00020600  0.49182300  0.68978900  1
  C  C38  1  0.99780100  0.49309300  0.31175300  1
  C  C39  1  0.50020600  0.99182300  0.68978900  1
  C  C40  1  0.49780100  0.99309300  0.31175300  1
  C  C41  1  0.34036400  0.46465600  0.11761900  1
  C  C42  1  0.65806600  0.46606600  0.88525300  1
  C  C43  1  0.84036400  0.96465600  0.11761900  1
  C  C44  1  0.15806600  0.96606600  0.88525300  1
  C  C45  1  0.36368500  0.49296800  0.13337500  1
  C  C46  1  0.63454900  0.49347300  0.86864500  1
  C  C47  1  0.86368500  0.99296800  0.13337500  1
  C  C48  1  0.13454900  0.99347300  0.86864500  1
  C  C49  1  0.34120000  0.52096500  0.19496800  1
  C  C50  1  0.65682400  0.52077500  0.80611500  1
  C  C51  1  0.84120000  0.02096500  0.19496800  1
  C  C52  1  0.15682400  0.02077500  0.80611500  1
  C  C53  1  0.29540900  0.52150300  0.23974600  1
  C  C54  1  0.70260100  0.52155600  0.76119500  1
  C  C55  1  0.79540900  0.02150300  0.23974600  1
  C  C56  1  0.20260100  0.02155600  0.76119500  1
  C  C57  1  0.27199300  0.49230100  0.22551700  1
  C  C58  1  0.72622900  0.49320600  0.77623900  1
  C  C59  1  0.77199300  0.99230100  0.22551700  1
  C  C60  1  0.22622900  0.99320600  0.77623900  1
  C  C61  1  0.29439000  0.46333800  0.16497300  1
  C  C62  1  0.70405100  0.46490000  0.83777400  1
  C  C63  1  0.79439000  0.96333800  0.16497300  1
  C  C64  1  0.20405100  0.96490000  0.83777400  1
  C  C65  1  0.27302300  0.55126900  0.29888900  1
  C  C66  1  0.72475700  0.55071000  0.70108400  1
  C  C67  1  0.77302300  0.05126900  0.29888900  1
  C  C68  1  0.22475700  0.05071000  0.70108400  1
  C  C69  1  0.22728100  0.55212200  0.34349600  1
  C  C70  1  0.77048900  0.55182000  0.65630200  1
  C  C71  1  0.72728100  0.05212200  0.34349600  1
  C  C72  1  0.27048900  0.05182000  0.65630200  1
  C  C73  1  0.20379400  0.52238600  0.33036100  1
  C  C74  1  0.79419300  0.52290800  0.67023600  1
  C  C75  1  0.70379400  0.02238600  0.33036100  1
  C  C76  1  0.29419300  0.02290800  0.67023600  1
  C  C77  1  0.22615000  0.49209900  0.27203100  1
  C  C78  1  0.77206200  0.49321300  0.72954500  1
  C  C79  1  0.72615000  0.99209900  0.27203100  1
  C  C80  1  0.27206200  0.99321300  0.72954500  1
  C  C81  1  0.20261700  0.46152900  0.26046600  1
  C  C82  1  0.79581300  0.46339200  0.74183800  1
  C  C83  1  0.70261700  0.96152900  0.26046600  1
  C  C84  1  0.29581300  0.96339200  0.74183800  1
  C  C85  1  0.22483900  0.43192300  0.20119200  1
  C  C86  1  0.77384200  0.43434500  0.80197100  1
  C  C87  1  0.72483900  0.93192300  0.20119200  1
  C  C88  1  0.27384200  0.93434500  0.80197100  1
  C  C89  1  0.27057800  0.43332000  0.15243700  1
  C  C90  1  0.72807100  0.43571700  0.85120000  1
  C  C91  1  0.77057800  0.93332000  0.15243700  1
  C  C92  1  0.22807100  0.93571700  0.85120000  1
  C  C93  1  0.15796200  0.52286300  0.37567600  1
  C  C94  1  0.84001900  0.52362200  0.62475300  1
  C  C95  1  0.65796200  0.02286300  0.37567600  1
  C  C96  1  0.34001900  0.02362200  0.62475300  1
  C  C97  1  0.13445500  0.49156600  0.36524300  1
  C  C98  1  0.86375700  0.49309800  0.63603500  1
  C  C99  1  0.63445500  0.99156600  0.36524300  1
  C  C100  1  0.36375700  0.99309800  0.63603500  1
  C  C101  1  0.15684000  0.46053800  0.30816800  1
  C  C102  1  0.84158700  0.46257300  0.69399900  1
  C  C103  1  0.65684000  0.96053800  0.30816800  1
  C  C104  1  0.34158700  0.96257300  0.69399900  1
  C  C105  1  0.99935800  0.40640800  0.00054600  1
  C  C106  1  0.49935800  0.90640800  0.00054600  1
  C  C107  1  0.99835700  0.49312500  0.88003400  1
  C  C108  1  0.99931900  0.49345400  0.12180700  1
  C  C109  1  0.49835700  0.99312500  0.88003400  1
  C  C110  1  0.49931900  0.99345400  0.12180700  1
  C  C111  1  0.99833300  0.58017600  0.00125100  1
  C  C112  1  0.49833300  0.08017600  0.00125100  1
  C  C113  1  0.49929400  0.40633500  0.99961400  1
  C  C114  1  0.99929400  0.90633500  0.99961400  1
  C  C115  1  0.41221000  0.49309400  0.08525000  1
  C  C116  1  0.58603000  0.49337600  0.91680500  1
  C  C117  1  0.91221000  0.99309400  0.08525000  1
  C  C118  1  0.08603000  0.99337600  0.91680500  1
  C  C119  1  0.49886600  0.58013700  0.00251400  1
  C  C120  1  0.99886600  0.08013700  0.00251400  1
  C  C121  1  0.52365700  0.65174200  0.02135300  1
  C  C122  1  0.47387100  0.65158800  0.98341900  1
  C  C123  1  0.02365700  0.15174200  0.02135300  1
  C  C124  1  0.97387100  0.15158800  0.98341900  1
  C  C125  1  0.49878100  0.62868400  0.00244000  1
  C  C126  1  0.99878100  0.12868400  0.00244000  1
  C  C127  1  0.47303500  0.69743900  0.98505500  1
  C  C128  1  0.52447800  0.69757800  0.01943400  1
  C  C129  1  0.97303500  0.19743900  0.98505500  1
  C  C130  1  0.02447800  0.19757800  0.01943400  1
  C  C131  1  0.49876100  0.72042700  0.00216000  1
  C  C132  1  0.99876100  0.22042700  0.00216000  1
  C  C133  1  0.44646200  0.72034400  0.96965400  1
  C  C134  1  0.55106600  0.72059400  0.03466600  1
  C  C135  1  0.94646200  0.22034400  0.96965400  1
  C  C136  1  0.05106600  0.22059400  0.03466600  1
  C  C137  1  0.94537300  0.26612700  0.97193000  1
  C  C138  1  0.05222400  0.26636000  0.03197300  1
  C  C139  1  0.44537300  0.76612700  0.97193000  1
  C  C140  1  0.55222400  0.76636000  0.03197300  1
  C  C141  1  0.97167100  0.28913900  0.98779700  1
  C  C142  1  0.02598800  0.28923400  0.01582200  1
  C  C143  1  0.47167100  0.78913900  0.98779700  1
  C  C144  1  0.52598800  0.78923400  0.01582200  1
  C  C145  1  0.99879700  0.26626800  0.00194300  1
  C  C146  1  0.49879700  0.76626800  0.00194300  1
  C  C147  1  0.97094200  0.33498500  0.98937200  1
  C  C148  1  0.02691300  0.33504900  0.01355700  1
  C  C149  1  0.47094200  0.83498500  0.98937200  1
  C  C150  1  0.52691300  0.83504900  0.01355700  1
  C  C151  1  0.99900400  0.35793700  0.00125300  1
  C  C152  1  0.49900400  0.85793700  0.00125300  1
  C  C153  1  0.52581600  0.33479900  0.93286100  1
  C  C154  1  0.47273400  0.33503500  0.06699500  1
  C  C155  1  0.02581600  0.83479900  0.93286100  1
  C  C156  1  0.97273400  0.83503500  0.06699500  1
  C  C157  1  0.49929600  0.35784900  0.99981200  1
  C  C158  1  0.99929600  0.85784900  0.99981200  1
  C  C159  1  0.47178500  0.28920800  0.06694800  1
  C  C160  1  0.52662800  0.28896500  0.93339000  1
  C  C161  1  0.97178500  0.78920800  0.06694800  1
  C  C162  1  0.02662800  0.78896500  0.93339000  1
  C  C163  1  0.49916400  0.26617000  0.00028900  1
  C  C164  1  0.99916400  0.76617000  0.00028900  1
  C  C165  1  0.44341800  0.26638600  0.13348600  1
  C  C166  1  0.55489800  0.26588600  0.86709600  1
  C  C167  1  0.94341800  0.76638600  0.13348600  1
  C  C168  1  0.05489800  0.76588600  0.86709600  1
  C  C169  1  0.94215400  0.72062300  0.13322000  1
  C  C170  1  0.05593900  0.72011500  0.86783400  1
  C  C171  1  0.44215400  0.22062300  0.13322000  1
  C  C172  1  0.55593900  0.22011500  0.86783400  1
  C  C173  1  0.97009800  0.69755200  0.06678300  1
  C  C174  1  0.02787000  0.69728500  0.93450000  1
  C  C175  1  0.47009800  0.19755200  0.06678300  1
  C  C176  1  0.52787000  0.19728500  0.93450000  1
  C  C177  1  0.99905400  0.72033500  0.00052600  1
  C  C178  1  0.49905400  0.22033500  0.00052600  1
  C  C179  1  0.96911700  0.65173000  0.06655400  1
  C  C180  1  0.02851400  0.65144500  0.93517500  1
  C  C181  1  0.46911700  0.15173000  0.06655400  1
  C  C182  1  0.52851400  0.15144500  0.93517500  1
  C  C183  1  0.99870800  0.62865800  0.00097800  1
  C  C184  1  0.49870800  0.12865800  0.00097800  1
  C  C185  1  0.27992100  0.40704900  0.04119400  1
  C  C186  1  0.27177400  0.36930900  0.01433500  1
  C  C187  1  0.25921700  0.37294600  0.96519800  1
  C  C188  1  0.25481800  0.41423200  0.94252100  1
  C  C189  1  0.26340400  0.45193500  0.96841700  1
  C  C190  1  0.27616000  0.44846300  0.01732000  1
  C  C191  1  0.72311400  0.40641100  0.95742300  1
  C  C192  1  0.73193300  0.36680900  0.97894000  1
  C  C193  1  0.74893100  0.36704600  0.02185100  1
  C  C194  1  0.75694800  0.40676800  0.04383400  1
  C  C195  1  0.74762500  0.44632100  0.02342100  1
  C  C196  1  0.73054900  0.44623800  0.98061400  1
  C  C197  1  0.77992100  0.90704900  0.04119400  1
  C  C198  1  0.77177400  0.86930900  0.01433500  1
  C  C199  1  0.75921700  0.87294600  0.96519800  1
  C  C200  1  0.75481800  0.91423200  0.94252100  1
  C  C201  1  0.76340400  0.95193500  0.96841700  1
  C  C202  1  0.77616000  0.94846300  0.01732000  1
  C  C203  1  0.22311400  0.90641100  0.95742300  1
  C  C204  1  0.23193300  0.86680900  0.97894000  1
  C  C205  1  0.24893100  0.86704600  0.02185100  1
  C  C206  1  0.25694800  0.90676800  0.04383400  1
  C  C207  1  0.24762500  0.94632100  0.02342100  1
  C  C208  1  0.23054900  0.94623800  0.98061400  1
  C  C209  1  0.91495200  0.41248100  0.80415800  1
  C  C210  1  0.88083900  0.40150800  0.87748400  1
  C  C211  1  0.87357700  0.35770600  0.90039800  1
  C  C212  1  0.89989400  0.32471000  0.84994800  1
  C  C213  1  0.93341500  0.33548100  0.77639800  1
  C  C214  1  0.94084400  0.37926000  0.75342100  1
  C  C215  1  0.09179700  0.42490200  0.19003700  1
  C  C216  1  0.12538700  0.41713000  0.11497400  1
  C  C217  1  0.13696700  0.37414700  0.08852200  1
  C  C218  1  0.11564700  0.33885700  0.13712500  1
  C  C219  1  0.08274100  0.34652500  0.21235100  1
  C  C220  1  0.07087200  0.38946200  0.23882300  1
  C  C221  1  0.41495200  0.91248100  0.80415800  1
  C  C222  1  0.38083900  0.90150800  0.87748400  1
  C  C223  1  0.37357700  0.85770600  0.90039800  1
  C  C224  1  0.39989400  0.82471000  0.84994800  1
  C  C225  1  0.43341500  0.83548100  0.77639800  1
  C  C226  1  0.44084400  0.87926000  0.75342100  1
  C  C227  1  0.59179700  0.92490200  0.19003700  1
  C  C228  1  0.62538700  0.91713000  0.11497400  1
  C  C229  1  0.63696700  0.87414700  0.08852200  1
  C  C230  1  0.61564700  0.83885700  0.13712500  1
  C  C231  1  0.58274100  0.84652500  0.21235100  1
  C  C232  1  0.57087200  0.88946200  0.23882300  1
  N  N1  1  0.29275500  0.40302200  0.09162600  1
  N  N2  1  0.70597600  0.40599700  0.91296500  1
  N  N3  1  0.79275500  0.90302200  0.09162600  1
  N  N4  1  0.20597600  0.90599700  0.91296500  1
  N  N5  1  0.92245500  0.45734100  0.78077700  1
  N  N6  1  0.07936800  0.46887500  0.21692500  1
  N  N7  1  0.42245500  0.95734100  0.78077700  1
  N  N8  1  0.57936800  0.96887500  0.21692500  1
  O  O1  1  0.06514700  0.52970800  0.43429800  1
  O  O2  1  0.93272400  0.53168900  0.56443200  1
  O  O3  1  0.56514700  0.02970800  0.43429800  1
  O  O4  1  0.43272400  0.03168900  0.56443200  1
  O  O5  1  0.06548200  0.45292100  0.43552400  1
  O  O6  1  0.93309300  0.45496300  0.56836400  1
  O  O7  1  0.56548200  0.95292100  0.43552400  1
  O  O8  1  0.43309300  0.95496300  0.56836400  1
  O  O9  1  0.99849000  0.52975800  0.59360000  1
  O  O10  1  0.99756300  0.53166400  0.40936300  1
  O  O11  1  0.49849000  0.02975800  0.59360000  1
  O  O12  1  0.49756300  0.03166400  0.40936300  1
  O  O13  1  0.00143500  0.45298900  0.59119000  1
  O  O14  1  0.99890400  0.45485800  0.40852200  1
  O  O15  1  0.50143500  0.95298900  0.59119000  1
  O  O16  1  0.49890400  0.95485800  0.40852200  1
  O  O17  1  0.96117200  0.42740000  0.03530200  1
  O  O18  1  0.03787700  0.42669900  0.96549100  1
  O  O19  1  0.46117200  0.92740000  0.03530200  1
  O  O20  1  0.53787700  0.92669900  0.96549100  1
  O  O21  1  0.95981400  0.49490100  0.94579300  1
  O  O22  1  0.03788500  0.49249400  0.05601600  1
  O  O23  1  0.45981400  0.99490100  0.94579300  1
  O  O24  1  0.53788500  0.99249400  0.05601600  1
  O  O25  1  0.03656000  0.49146800  0.87205200  1
  O  O26  1  0.96109600  0.49431500  0.12980500  1
  O  O27  1  0.53656000  0.99146800  0.87205200  1
  O  O28  1  0.46109600  0.99431500  0.12980500  1
  O  O29  1  0.95977500  0.55988000  0.03781400  1
  O  O30  1  0.03654800  0.55917300  0.96505400  1
  O  O31  1  0.45977500  0.05988000  0.03781400  1
  O  O32  1  0.53654800  0.05917300  0.96505400  1
  O  O33  1  0.49923400  0.42709500  0.05328100  1
  O  O34  1  0.49927000  0.42688400  0.94590100  1
  O  O35  1  0.99923400  0.92709500  0.05328100  1
  O  O36  1  0.99927000  0.92688400  0.94590100  1
  O  O37  1  0.43331800  0.49517200  0.11798100  1
  O  O38  1  0.56491400  0.49367100  0.88401400  1
  O  O39  1  0.93331800  0.99517200  0.11798100  1
  O  O40  1  0.06491400  0.99367100  0.88401400  1
  O  O41  1  0.43245800  0.49107400  0.01163700  1
  O  O42  1  0.56578800  0.49310600  0.99048800  1
  O  O43  1  0.93245800  0.99107400  0.01163700  1
  O  O44  1  0.06578800  0.99310600  0.99048800  1
  O  O45  1  0.50134800  0.55955700  0.05370800  1
  O  O46  1  0.49659300  0.55933900  0.95122800  1
  O  O47  1  0.00134800  0.05955700  0.05370800  1
  O  O48  1  0.99659300  0.05933900  0.95122800  1
