# generated using pymatgen
data_CuH18C30(NO3)2
_symmetry_space_group_name_H-M   'P 1'
_cell_length_a   12.20216700
_cell_length_b   13.35539500
_cell_length_c   23.31093800
_cell_angle_alpha   78.52016000
_cell_angle_beta   102.53073900
_cell_angle_gamma   116.52454400
_symmetry_Int_Tables_number   1
_chemical_formula_structural   CuH18C30(NO3)2
_chemical_formula_sum   'Cu2 H36 C60 N4 O12'
_cell_volume   3295.27827079
_cell_formula_units_Z   2
loop_
 _symmetry_equiv_pos_site_id
 _symmetry_equiv_pos_as_xyz
  1  'x, y, z'
loop_
 _atom_site_type_symbol
 _atom_site_label
 _atom_site_symmetry_multiplicity
 _atom_site_fract_x
 _atom_site_fract_y
 _atom_site_fract_z
 _atom_site_occupancy
  Cu  Cu1  1  0.09122300  0.47379300  0.50611900  1
  Cu  Cu2  1  0.89603700  0.52410500  0.48334200  1
  H  H1  1  0.71368200  0.29115300  0.02944500  1
  H  H2  1  0.72906700  0.29762800  0.92762800  1
  H  H3  1  0.26731900  0.71530100  0.06597100  1
  H  H4  1  0.87485400  0.57194400  0.75850700  1
  H  H5  1  0.87292000  0.57320300  0.65405000  1
  H  H6  1  0.16821500  0.46801500  0.69750400  1
  H  H7  1  0.16861700  0.46713400  0.80235300  1
  H  H8  1  0.12465500  0.44316300  0.23035100  1
  H  H9  1  0.12331400  0.43689100  0.33485900  1
  H  H10  1  0.81590900  0.52577200  0.29219500  1
  H  H11  1  0.81902500  0.53207500  0.18718100  1
  H  H12  1  0.09462900  0.87534300  0.40247800  1
  H  H13  1  0.45851200  0.19776000  0.37981700  1
  H  H14  1  0.24986800  0.06388700  0.37513700  1
  H  H15  1  0.36512500  0.80287700  0.52642000  1
  H  H16  1  0.54290400  0.86076800  0.56869900  1
  H  H17  1  0.74142900  0.93025100  0.61700000  1
  H  H18  1  0.67018000  0.26219500  0.42274500  1
  H  H19  1  0.17540600  0.33137000  0.60100200  1
  H  H20  1  0.55611600  0.32611900  0.61748800  1
  H  H21  1  0.35843700  0.29427200  0.63122300  1
  H  H22  1  0.31998100  0.54834500  0.45395500  1
  H  H23  1  0.82322400  0.66949900  0.39236300  1
  H  H24  1  0.46897400  0.62836800  0.40738300  1
  H  H25  1  0.64519700  0.71326700  0.35710500  1
  H  H26  1  0.72700600  0.41586100  0.56621600  1
  H  H27  1  0.86830000  0.05117600  0.69121600  1
  H  H28  1  0.94510500  0.99531900  0.65522300  1
  H  H29  1  0.03277100  0.12068000  0.69099300  1
  H  H30  1  0.99806200  0.15816900  0.58116900  1
  H  H31  1  0.94328500  0.22711800  0.62080500  1
  H  H32  1  0.39132100  0.87902600  0.01595900  1
  H  H33  1  0.45716700  0.77519400  0.03664500  1
  H  H34  1  0.50690200  0.88586400  0.97729100  1
  H  H35  1  0.37102000  0.71028800  0.93834500  1
  H  H36  1  0.30371500  0.81197800  0.91869200  1
  C  C1  1  0.84927000  0.28722700  0.51139000  1
  C  C2  1  0.01432600  0.51584500  0.60507100  1
  C  C3  1  0.13801500  0.70987900  0.47748100  1
  C  C4  1  0.97437900  0.48380100  0.38449200  1
  C  C5  1  0.08059600  0.57448300  0.11807100  1
  C  C6  1  0.88437900  0.42440600  0.10610100  1
  C  C7  1  0.89215300  0.42843800  0.04728200  1
  C  C8  1  0.99666800  0.50685700  0.02372300  1
  C  C9  1  0.09103400  0.58039700  0.05928500  1
  C  C10  1  0.79648000  0.35353800  0.01221500  1
  C  C11  1  0.80548700  0.35731200  0.95406900  1
  C  C12  1  0.91001700  0.43593900  0.93043500  1
  C  C13  1  0.00660500  0.51143100  0.96515200  1
  C  C14  1  0.11177900  0.59045600  0.94108000  1
  C  C15  1  0.20919600  0.66626900  0.97775300  1
  C  C16  1  0.19595200  0.65935400  0.03647500  1
  C  C17  1  0.91763700  0.43887600  0.87204900  1
  C  C18  1  0.11428200  0.59035800  0.88095400  1
  C  C19  1  0.93954200  0.54932900  0.74513500  1
  C  C20  1  0.93907400  0.55024100  0.68591600  1
  C  C21  1  0.02053800  0.52059400  0.66809300  1
  C  C22  1  0.10392200  0.49183900  0.71028100  1
  C  C23  1  0.10446900  0.49141700  0.76963700  1
  C  C24  1  0.02153000  0.51929900  0.78724100  1
  C  C25  1  0.05656600  0.46113100  0.24387000  1
  C  C26  1  0.05511100  0.45725100  0.30317500  1
  C  C27  1  0.96943800  0.48104200  0.32130000  1
  C  C28  1  0.88351900  0.50648300  0.27923200  1
  C  C29  1  0.88495300  0.50993300  0.21974800  1
  C  C30  1  0.97252900  0.48857200  0.20188200  1
  C  C31  1  0.27669800  0.00800200  0.40937800  1
  C  C32  1  0.22383200  0.82865600  0.46623800  1
  C  C33  1  0.80079200  0.09843000  0.57021200  1
  C  C34  1  0.71809300  0.98801700  0.58296500  1
  C  C35  1  0.59953400  0.94652600  0.55371600  1
  C  C36  1  0.55844800  0.01246500  0.50868500  1
  C  C37  1  0.64355100  0.12139800  0.49186700  1
  C  C38  1  0.43471500  0.97222100  0.48011100  1
  C  C39  1  0.39873800  0.04210000  0.43592300  1
  C  C40  1  0.48517300  0.14558400  0.41653400  1
  C  C41  1  0.60651800  0.18341500  0.44274000  1
  C  C42  1  0.34504900  0.86389200  0.49402400  1
  C  C43  1  0.18872000  0.90207700  0.42502900  1
  C  C44  1  0.76458600  0.16612400  0.52333700  1
  C  C45  1  0.35202800  0.34969800  0.59123800  1
  C  C46  1  0.74602700  0.63099500  0.41700400  1
  C  C47  1  0.64547500  0.65543000  0.39675900  1
  C  C48  1  0.54448600  0.60564100  0.42607100  1
  C  C49  1  0.54384500  0.53024700  0.47670600  1
  C  C50  1  0.64897000  0.50868800  0.49643800  1
  C  C51  1  0.44156000  0.47562200  0.50818300  1
  C  C52  1  0.44803000  0.40238700  0.55854000  1
  C  C53  1  0.55123200  0.38262400  0.57774100  1
  C  C54  1  0.64995900  0.43489800  0.54741700  1
  C  C55  1  0.33281100  0.49194500  0.49187200  1
  C  C56  1  0.24846400  0.36958700  0.57396000  1
  C  C57  1  0.92655600  0.14565100  0.60751600  1
  C  C58  1  0.94275700  0.07245000  0.66470900  1
  C  C59  1  0.32712200  0.75379400  0.95488700  1
  C  C60  1  0.42592700  0.82743900  0.99965100  1
  N  N1  1  0.97840900  0.49676000  0.14053300  1
  N  N2  1  0.01840200  0.51521900  0.84852400  1
  N  N3  1  0.23882300  0.43748700  0.52430400  1
  N  N4  1  0.74894500  0.56009000  0.46660500  1
  O  O1  1  0.96847200  0.31792200  0.51433400  1
  O  O2  1  0.80277000  0.36146200  0.50101800  1
  O  O3  1  0.08865700  0.48382800  0.58870300  1
  O  O4  1  0.93049100  0.53967800  0.56749600  1
  O  O5  1  0.18632900  0.63690000  0.49123300  1
  O  O6  1  0.01830100  0.68021800  0.47210700  1
  O  O7  1  0.06184600  0.46430800  0.42170000  1
  O  O8  1  0.89495300  0.50949000  0.40124500  1
  O  O9  1  0.17196600  0.64728700  0.15307800  1
  O  O10  1  0.78432600  0.34610300  0.12959900  1
  O  O11  1  0.82475600  0.36450700  0.83836500  1
  O  O12  1  0.20929500  0.66586300  0.85322000  1
