# generated using pymatgen
data_ZnH16C21NO6
_symmetry_space_group_name_H-M   'P 1'
_cell_length_a   21.52593500
_cell_length_b   21.46865900
_cell_length_c   14.16521900
_cell_angle_alpha   90.00000000
_cell_angle_beta   90.00000000
_cell_angle_gamma   90.00000000
_symmetry_Int_Tables_number   1
_chemical_formula_structural   ZnH16C21NO6
_chemical_formula_sum   'Zn4 H64 C84 N4 O24'
_cell_volume   6546.21455961
_cell_formula_units_Z   4
loop_
 _symmetry_equiv_pos_site_id
 _symmetry_equiv_pos_as_xyz
  1  'x, y, z'
loop_
 _atom_site_type_symbol
 _atom_site_label
 _atom_site_symmetry_multiplicity
 _atom_site_fract_x
 _atom_site_fract_y
 _atom_site_fract_z
 _atom_site_occupancy
  Zn  Zn1  1  0.00000000  0.50000000  0.60785500  1
  Zn  Zn2  1  0.00000000  0.50000000  0.39214500  1
  Zn  Zn3  1  0.50000000  0.00000000  0.60785500  1
  Zn  Zn4  1  0.50000000  0.00000000  0.39214500  1
  H  H1  1  0.02809200  0.40548300  0.06610600  1
  H  H2  1  0.02809200  0.59451700  0.93389400  1
  H  H3  1  0.97190800  0.59451700  0.06610600  1
  H  H4  1  0.97190800  0.40548300  0.93389400  1
  H  H5  1  0.52809200  0.90548300  0.06610600  1
  H  H6  1  0.52809200  0.09451700  0.93389400  1
  H  H7  1  0.47190800  0.09451700  0.06610600  1
  H  H8  1  0.47190800  0.90548300  0.93389400  1
  H  H9  1  0.75833300  0.30277600  0.64358100  1
  H  H10  1  0.19748600  0.74153000  0.35647700  1
  H  H11  1  0.24166700  0.69722400  0.64358100  1
  H  H12  1  0.80251400  0.25847000  0.35647700  1
  H  H13  1  0.24166700  0.30277600  0.35641900  1
  H  H14  1  0.80251400  0.74153000  0.64352300  1
  H  H15  1  0.75833300  0.69722400  0.35641900  1
  H  H16  1  0.19748600  0.25847000  0.64352300  1
  H  H17  1  0.25833300  0.80277600  0.64358100  1
  H  H18  1  0.69748600  0.24153000  0.35647700  1
  H  H19  1  0.74166700  0.19722400  0.64358100  1
  H  H20  1  0.30251400  0.75847000  0.35647700  1
  H  H21  1  0.74166700  0.80277600  0.35641900  1
  H  H22  1  0.30251400  0.24153000  0.64352300  1
  H  H23  1  0.25833300  0.19722400  0.35641900  1
  H  H24  1  0.69748600  0.75847000  0.64352300  1
  H  H25  1  0.83880900  0.38119500  0.64397400  1
  H  H26  1  0.11959000  0.66062100  0.35589500  1
  H  H27  1  0.16119100  0.61880500  0.64397400  1
  H  H28  1  0.88041000  0.33937900  0.35589500  1
  H  H29  1  0.16119100  0.38119500  0.35602600  1
  H  H30  1  0.88041000  0.66062100  0.64410500  1
  H  H31  1  0.83880900  0.61880500  0.35602600  1
  H  H32  1  0.11959000  0.33937900  0.64410500  1
  H  H33  1  0.33880900  0.88119500  0.64397400  1
  H  H34  1  0.61959000  0.16062100  0.35589500  1
  H  H35  1  0.66119100  0.11880500  0.64397400  1
  H  H36  1  0.38041000  0.83937900  0.35589500  1
  H  H37  1  0.66119100  0.88119500  0.35602600  1
  H  H38  1  0.38041000  0.16062100  0.64410500  1
  H  H39  1  0.33880900  0.11880500  0.35602600  1
  H  H40  1  0.61959000  0.83937900  0.64410500  1
  H  H41  1  0.00059800  0.38157600  0.31634700  1
  H  H42  1  0.06807900  0.37111400  0.24360500  1
  H  H43  1  0.94104700  0.34903700  0.20451600  1
  H  H44  1  0.00059800  0.61842300  0.68365400  1
  H  H45  1  0.06807900  0.62888600  0.75639500  1
  H  H46  1  0.94104700  0.65096300  0.79548400  1
  H  H47  1  0.99940200  0.61842300  0.31634700  1
  H  H48  1  0.93192100  0.62888600  0.24360500  1
  H  H49  1  0.05895300  0.65096300  0.20451600  1
  H  H50  1  0.99940200  0.38157600  0.68365400  1
  H  H51  1  0.93192100  0.37111400  0.75639500  1
  H  H52  1  0.05895300  0.34903700  0.79548400  1
  H  H53  1  0.50059800  0.88157600  0.31634700  1
  H  H54  1  0.56807900  0.87111400  0.24360500  1
  H  H55  1  0.44104700  0.84903700  0.20451600  1
  H  H56  1  0.50059800  0.11842300  0.68365400  1
  H  H57  1  0.56807900  0.12888600  0.75639500  1
  H  H58  1  0.44104700  0.15096300  0.79548400  1
  H  H59  1  0.49940200  0.11842300  0.31634700  1
  H  H60  1  0.43192100  0.12888600  0.24360500  1
  H  H61  1  0.55895300  0.15096300  0.20451600  1
  H  H62  1  0.49940200  0.88157600  0.68365400  1
  H  H63  1  0.43192100  0.87111400  0.75639500  1
  H  H64  1  0.55895300  0.84903700  0.79548400  1
  C  C1  1  0.08627100  0.41409300  0.50006800  1
  C  C2  1  0.91372900  0.58590700  0.50006800  1
  C  C3  1  0.91372900  0.41409300  0.49993200  1
  C  C4  1  0.08627100  0.58590700  0.49993200  1
  C  C5  1  0.58627100  0.91409300  0.50006800  1
  C  C6  1  0.41372900  0.08590700  0.50006800  1
  C  C7  1  0.41372900  0.91409300  0.49993200  1
  C  C8  1  0.58627100  0.08590700  0.49993200  1
  C  C9  1  0.78566200  0.30921100  0.58038900  1
  C  C10  1  0.19108900  0.71412800  0.41967100  1
  C  C11  1  0.21433800  0.69078900  0.58038900  1
  C  C12  1  0.80891100  0.28587200  0.41967100  1
  C  C13  1  0.21433800  0.30921100  0.41961100  1
  C  C14  1  0.80891100  0.71412800  0.58032900  1
  C  C15  1  0.78566200  0.69078900  0.41961100  1
  C  C16  1  0.19108900  0.28587200  0.58032900  1
  C  C17  1  0.28566200  0.80921100  0.58038900  1
  C  C18  1  0.69108900  0.21412800  0.41967100  1
  C  C19  1  0.71433800  0.19078900  0.58038900  1
  C  C20  1  0.30891100  0.78587200  0.41967100  1
  C  C21  1  0.71433800  0.80921100  0.41961100  1
  C  C22  1  0.30891100  0.21412800  0.58032900  1
  C  C23  1  0.28566200  0.19078900  0.41961100  1
  C  C24  1  0.69108900  0.78587200  0.58032900  1
  C  C25  1  0.83127500  0.35431000  0.58053300  1
  C  C26  1  0.14621500  0.66831400  0.41943300  1
  C  C27  1  0.16872500  0.64569000  0.58053300  1
  C  C28  1  0.85378500  0.33168600  0.41943300  1
  C  C29  1  0.16872500  0.35431000  0.41946700  1
  C  C30  1  0.85378500  0.66831400  0.58056700  1
  C  C31  1  0.83127500  0.64569000  0.41946700  1
  C  C32  1  0.14621500  0.33168600  0.58056700  1
  C  C33  1  0.33127500  0.85431000  0.58053300  1
  C  C34  1  0.64621500  0.16831400  0.41943300  1
  C  C35  1  0.66872500  0.14569000  0.58053300  1
  C  C36  1  0.35378500  0.83168600  0.41943300  1
  C  C37  1  0.66872500  0.85431000  0.41946700  1
  C  C38  1  0.35378500  0.16831400  0.58056700  1
  C  C39  1  0.33127500  0.14569000  0.41946700  1
  C  C40  1  0.64621500  0.83168600  0.58056700  1
  C  C41  1  0.86547400  0.36592800  0.49997600  1
  C  C42  1  0.13452600  0.63407200  0.49997600  1
  C  C43  1  0.13452600  0.36592800  0.50002400  1
  C  C44  1  0.86547400  0.63407200  0.50002400  1
  C  C45  1  0.36547400  0.86592800  0.49997600  1
  C  C46  1  0.63452600  0.13407200  0.49997600  1
  C  C47  1  0.63452600  0.86592800  0.50002400  1
  C  C48  1  0.36547400  0.13407200  0.50002400  1
  C  C49  1  0.01421800  0.44736400  0.10257200  1
  C  C50  1  0.01421800  0.55263600  0.89742800  1
  C  C51  1  0.98578200  0.55263600  0.10257200  1
  C  C52  1  0.98578200  0.44736400  0.89742800  1
  C  C53  1  0.51421800  0.94736400  0.10257200  1
  C  C54  1  0.51421800  0.05263600  0.89742800  1
  C  C55  1  0.48578200  0.05263600  0.10257200  1
  C  C56  1  0.48578200  0.94736400  0.89742800  1
  C  C57  1  0.77420000  0.27430800  0.50006300  1
  C  C58  1  0.22580000  0.72569200  0.50006300  1
  C  C59  1  0.22580000  0.27430800  0.49993700  1
  C  C60  1  0.77420000  0.72569200  0.49993700  1
  C  C61  1  0.27420000  0.77430800  0.50006300  1
  C  C62  1  0.72580000  0.22569200  0.50006300  1
  C  C63  1  0.72580000  0.77430800  0.49993700  1
  C  C64  1  0.27420000  0.22569200  0.49993700  1
  C  C65  1  0.01020200  0.44646900  0.19998700  1
  C  C66  1  0.01020200  0.55353100  0.80001300  1
  C  C67  1  0.98979800  0.55353100  0.19998700  1
  C  C68  1  0.98979800  0.44646900  0.80001300  1
  C  C69  1  0.51020200  0.94646900  0.19998700  1
  C  C70  1  0.51020200  0.05353100  0.80001300  1
  C  C71  1  0.48979800  0.05353100  0.19998700  1
  C  C72  1  0.48979800  0.94646900  0.80001300  1
  C  C73  1  0.00000000  0.50000000  0.05222100  1
  C  C74  1  0.00000000  0.50000000  0.94777900  1
  C  C75  1  0.50000000  0.00000000  0.05222100  1
  C  C76  1  0.50000000  0.00000000  0.94777900  1
  C  C77  1  0.01813100  0.38369100  0.24416100  1
  C  C78  1  0.01813100  0.61630900  0.75583900  1
  C  C79  1  0.98186900  0.61630900  0.24416100  1
  C  C80  1  0.98186900  0.38369100  0.75583900  1
  C  C81  1  0.51813100  0.88369100  0.24416100  1
  C  C82  1  0.51813100  0.11630900  0.75583900  1
  C  C83  1  0.48186900  0.11630900  0.24416100  1
  C  C84  1  0.48186900  0.88369100  0.75583900  1
  N  N1  1  0.00000000  0.50000000  0.25018700  1
  N  N2  1  0.00000000  0.50000000  0.74981300  1
  N  N3  1  0.50000000  0.00000000  0.25018700  1
  N  N4  1  0.50000000  0.00000000  0.74981300  1
  O  O1  1  0.06513000  0.43407300  0.58153200  1
  O  O2  1  0.93386400  0.56488700  0.41863000  1
  O  O3  1  0.93487000  0.56592700  0.58153200  1
  O  O4  1  0.06613600  0.43511300  0.41863000  1
  O  O5  1  0.93487000  0.43407300  0.41846800  1
  O  O6  1  0.06613600  0.56488700  0.58137000  1
  O  O7  1  0.06513000  0.56592700  0.41846800  1
  O  O8  1  0.93386400  0.43511300  0.58137000  1
  O  O9  1  0.56513000  0.93407300  0.58153200  1
  O  O10  1  0.43386400  0.06488700  0.41863000  1
  O  O11  1  0.43487000  0.06592700  0.58153200  1
  O  O12  1  0.56613600  0.93511300  0.41863000  1
  O  O13  1  0.43487000  0.93407300  0.41846800  1
  O  O14  1  0.56613600  0.06488700  0.58137000  1
  O  O15  1  0.56513000  0.06592700  0.41846800  1
  O  O16  1  0.43386400  0.93511300  0.58137000  1
  O  O17  1  0.98528000  0.33945100  0.19209800  1
  O  O18  1  0.98528000  0.66054900  0.80790200  1
  O  O19  1  0.01472000  0.66054900  0.19209800  1
  O  O20  1  0.01472000  0.33945100  0.80790200  1
  O  O21  1  0.48528000  0.83945100  0.19209800  1
  O  O22  1  0.48528000  0.16054900  0.80790200  1
  O  O23  1  0.51472000  0.16054900  0.19209800  1
  O  O24  1  0.51472000  0.83945100  0.80790200  1
