# generated using pymatgen
data_ZnH23C30NO4
_symmetry_space_group_name_H-M   'P 1'
_cell_length_a   8.57523500
_cell_length_b   10.89808900
_cell_length_c   17.78934300
_cell_angle_alpha   90.00000000
_cell_angle_beta   90.00000000
_cell_angle_gamma   90.00000000
_symmetry_Int_Tables_number   1
_chemical_formula_structural   ZnH23C30NO4
_chemical_formula_sum   'Zn2 H46 C60 N2 O8'
_cell_volume   1662.47946542
_cell_formula_units_Z   2
loop_
 _symmetry_equiv_pos_site_id
 _symmetry_equiv_pos_as_xyz
  1  'x, y, z'
loop_
 _atom_site_type_symbol
 _atom_site_label
 _atom_site_symmetry_multiplicity
 _atom_site_fract_x
 _atom_site_fract_y
 _atom_site_fract_z
 _atom_site_occupancy
  Zn  Zn1  1  0.50321500  0.50445400  0.08431900  1
  Zn  Zn2  1  0.50322500  0.49617100  0.91577800  1
  H  H1  1  0.63694000  0.90109000  0.95093300  1
  H  H2  1  0.38944900  0.11042500  0.98745300  1
  H  H3  1  0.28120400  0.03039200  0.91511100  1
  H  H4  1  0.64218400  0.90316400  0.05130300  1
  H  H5  1  0.63745400  0.10434600  0.04757200  1
  H  H6  1  0.38779000  0.88449700  0.00630400  1
  H  H7  1  0.28800500  0.96595800  0.08086800  1
  H  H8  1  0.64478000  0.10179700  0.94720700  1
  H  H9  1  0.99952600  0.58673700  0.97682700  1
  H  H10  1  0.01114100  0.41306700  0.02511000  1
  H  H11  1  0.43600500  0.80607500  0.32406500  1
  H  H12  1  0.55810400  0.19263100  0.67642200  1
  H  H13  1  0.55992800  0.19874200  0.32070900  1
  H  H14  1  0.43297600  0.79950700  0.67950700  1
  H  H15  1  0.40565600  0.90694200  0.43434300  1
  H  H16  1  0.58651700  0.09138400  0.56585900  1
  H  H17  1  0.58590900  0.09356600  0.42941000  1
  H  H18  1  0.40406800  0.90444300  0.57077000  1
  H  H19  1  0.49735200  0.74054200  0.12873200  1
  H  H20  1  0.24893200  0.74268000  0.24120000  1
  H  H21  1  0.25104200  0.79024600  0.14638200  1
  H  H22  1  0.32397500  0.89293500  0.21607000  1
  H  H23  1  0.68366200  0.77167300  0.26035000  1
  H  H24  1  0.57697200  0.90948600  0.23513400  1
  H  H25  1  0.69743400  0.83145500  0.16831600  1
  H  H26  1  0.51146100  0.26079000  0.87209200  1
  H  H27  1  0.32447000  0.21774200  0.73815000  1
  H  H28  1  0.29665900  0.19019600  0.83444700  1
  H  H29  1  0.41741200  0.08623800  0.78218300  1
  H  H30  1  0.75219100  0.25648200  0.75679400  1
  H  H31  1  0.67509700  0.10654400  0.78117300  1
  H  H32  1  0.75392800  0.20622000  0.85114700  1
  H  H33  1  0.51050000  0.26823700  0.12602400  1
  H  H34  1  0.75416800  0.26538600  0.23955700  1
  H  H35  1  0.75267300  0.21217500  0.14529300  1
  H  H36  1  0.67656400  0.11502100  0.21647000  1
  H  H37  1  0.31181400  0.23981700  0.25067600  1
  H  H38  1  0.42288400  0.10106800  0.23268300  1
  H  H39  1  0.31449000  0.17278400  0.15914100  1
  H  H40  1  0.50057500  0.73217300  0.87337000  1
  H  H41  1  0.68590100  0.76166000  0.74147800  1
  H  H42  1  0.70126700  0.82122100  0.83384300  1
  H  H43  1  0.58148900  0.90024000  0.76722500  1
  H  H44  1  0.24436200  0.72925800  0.77178400  1
  H  H45  1  0.32733100  0.88176300  0.77941900  1
  H  H46  1  0.26910900  0.80261100  0.86144900  1
  C  C1  1  0.00036600  0.68329200  0.98723600  1
  C  C2  1  0.00797200  0.31680600  0.01377800  1
  C  C3  1  0.86130700  0.74356900  0.99545200  1
  C  C4  1  0.14556500  0.25517200  0.00372500  1
  C  C5  1  0.86690400  0.25970300  0.00466600  1
  C  C6  1  0.13993000  0.74238400  0.99641000  1
  C  C7  1  0.85906600  0.87013300  0.99871600  1
  C  C8  1  0.14120100  0.12876500  0.99346900  1
  C  C9  1  0.86153700  0.13286200  0.00066000  1
  C  C10  1  0.13896200  0.86946400  0.00507500  1
  C  C11  1  0.70484900  0.93262100  0.00013700  1
  C  C12  1  0.28358200  0.05652900  0.97522100  1
  C  C13  1  0.70603200  0.07217000  0.99871700  1
  C  C14  1  0.28425700  0.93982900  0.02075900  1
  C  C15  1  0.99879100  0.93334300  0.99987000  1
  C  C16  1  0.99988300  0.06730700  0.99894600  1
  C  C17  1  0.72695300  0.33754500  0.00201300  1
  C  C18  1  0.28037200  0.66425000  0.99842300  1
  C  C19  1  0.71974400  0.66857500  0.99811000  1
  C  C20  1  0.28739500  0.33090200  0.00165900  1
  C  C21  1  0.48707600  0.61265100  0.22495100  1
  C  C22  1  0.51565900  0.38746200  0.77530800  1
  C  C23  1  0.51621000  0.39609900  0.22359000  1
  C  C24  1  0.48658400  0.60391900  0.77638300  1
  C  C25  1  0.45431800  0.71673600  0.34700300  1
  C  C26  1  0.54262800  0.28230000  0.65320900  1
  C  C27  1  0.54164400  0.28729700  0.34443400  1
  C  C28  1  0.45141200  0.71115800  0.65571600  1
  C  C29  1  0.47916100  0.61042700  0.30430800  1
  C  C30  1  0.51997700  0.38896700  0.69588200  1
  C  C31  1  0.51998600  0.39531800  0.30299800  1
  C  C32  1  0.47730800  0.60379800  0.69710800  1
  C  C33  1  0.49903300  0.50216400  0.34280100  1
  C  C34  1  0.49826400  0.49692200  0.65734100  1
  C  C35  1  0.42521200  0.82125300  0.46344000  1
  C  C36  1  0.56744600  0.17712600  0.53674300  1
  C  C37  1  0.56707600  0.17838600  0.45955900  1
  C  C38  1  0.42426400  0.81982000  0.54061600  1
  C  C39  1  0.45118300  0.71417100  0.42411700  1
  C  C40  1  0.54381000  0.28452900  0.57606800  1
  C  C41  1  0.54305500  0.28705300  0.42156200  1
  C  C42  1  0.44955300  0.71133600  0.57859800  1
  C  C43  1  0.47439200  0.60644900  0.46178500  1
  C  C44  1  0.52069700  0.39226700  0.53837700  1
  C  C45  1  0.52049400  0.39355800  0.46052600  1
  C  C46  1  0.47383500  0.60506200  0.53962800  1
  C  C47  1  0.49795800  0.50072500  0.42139900  1
  C  C48  1  0.49753100  0.49806200  0.57875100  1
  C  C49  1  0.47972600  0.73833100  0.18856200  1
  C  C50  1  0.31766300  0.79521000  0.19939300  1
  C  C51  1  0.61559900  0.81801600  0.21568100  1
  C  C52  1  0.52423700  0.26229500  0.81210200  1
  C  C53  1  0.38450800  0.18364400  0.78907000  1
  C  C54  1  0.68449600  0.20362500  0.79884300  1
  C  C55  1  0.52483300  0.27069300  0.18590900  1
  C  C56  1  0.68536700  0.21185400  0.19822200  1
  C  C57  1  0.38667200  0.19091800  0.20965000  1
  C  C58  1  0.48261100  0.72974000  0.81372400  1
  C  C59  1  0.61915900  0.80841800  0.78645600  1
  C  C60  1  0.32196600  0.78959300  0.80528400  1
  N  N1  1  0.50286200  0.50536900  0.18391400  1
  N  N2  1  0.50297100  0.49510800  0.81618800  1
  O  O1  1  0.67321400  0.37292700  0.93604600  1
  O  O2  1  0.33383500  0.62809100  0.06410000  1
  O  O3  1  0.33253200  0.61929900  0.93458400  1
  O  O4  1  0.67475800  0.38222000  0.06566700  1
  O  O5  1  0.66713900  0.63274900  0.06424100  1
  O  O6  1  0.33963100  0.36768700  0.93588000  1
  O  O7  1  0.33795000  0.37682900  0.06550100  1
  O  O8  1  0.66915800  0.62313400  0.93435700  1
