# generated using pymatgen
data_Fe2H22C49(NO2)8
_symmetry_space_group_name_H-M   'P 1'
_cell_length_a   14.00660500
_cell_length_b   9.27066600
_cell_length_c   21.73975000
_cell_angle_alpha   93.83800100
_cell_angle_beta   90.20822600
_cell_angle_gamma   68.96493700
_symmetry_Int_Tables_number   1
_chemical_formula_structural   Fe2H22C49(NO2)8
_chemical_formula_sum   'Fe2 H22 C49 N8 O16'
_cell_volume   2628.26261410
_cell_formula_units_Z   1
loop_
 _symmetry_equiv_pos_site_id
 _symmetry_equiv_pos_as_xyz
  1  'x, y, z'
loop_
 _atom_site_type_symbol
 _atom_site_label
 _atom_site_symmetry_multiplicity
 _atom_site_fract_x
 _atom_site_fract_y
 _atom_site_fract_z
 _atom_site_occupancy
  Fe  Fe1  1  0.48185700  0.99054600  0.81762200  1
  Fe  Fe2  1  0.53191500  0.93791900  0.15790000  1
  H  H1  1  0.08865200  0.15020800  0.80088900  1
  H  H2  1  0.29406600  0.68685600  0.13645300  1
  H  H3  1  0.12524000  0.64747900  0.13411700  1
  H  H4  1  0.92837500  0.73948400  0.16769200  1
  H  H5  1  0.70330200  0.89285200  0.98441600  1
  H  H6  1  0.71045000  0.26159400  0.84027700  1
  H  H7  1  0.30717200  0.05093800  0.98985900  1
  H  H8  1  0.99292200  0.82403800  0.98621900  1
  H  H9  1  0.01734000  0.13989200  0.98990200  1
  H  H10  1  0.53897500  0.48400400  0.18435000  1
  H  H11  1  0.51854100  0.23410400  0.33860700  1
  H  H12  1  0.49326800  0.70944600  0.36311900  1
  H  H13  1  0.52280600  0.21661700  0.61305300  1
  H  H14  1  0.47373400  0.44393400  0.79151700  1
  H  H15  1  0.49985400  0.69095600  0.63758500  1
  H  H16  1  0.79907800  0.43708700  0.85310000  1
  H  H17  1  0.85511900  0.29731700  0.78914900  1
  H  H18  1  0.95126400  0.38868300  0.72612700  1
  H  H19  1  0.07202800  0.52048900  0.71157600  1
  H  H20  1  0.13464700  0.63394600  0.80122800  1
  H  H21  1  0.07522600  0.61636200  0.90568200  1
  H  H22  1  0.95245400  0.48737100  0.92084400  1
  C  C1  1  0.29529800  0.86343400  0.07432100  1
  C  C2  1  0.25773600  0.76472700  0.10136800  1
  C  C3  1  0.16292100  0.78975400  0.07715300  1
  C  C4  1  0.22289200  0.94071900  0.03288700  1
  C  C5  1  0.10011100  0.72343500  0.09677500  1
  C  C6  1  0.99269400  0.76945800  0.07983200  1
  C  C7  1  0.91781800  0.76982600  0.12033900  1
  C  C8  1  0.82696800  0.82435100  0.09006900  1
  C  C9  1  0.85007100  0.85253900  0.03121600  1
  C  C10  1  0.77532800  0.91111400  0.98267400  1
  C  C11  1  0.78739200  0.00351100  0.94153500  1
  C  C12  1  0.71340900  0.08302700  0.90143400  1
  C  C13  1  0.74961400  0.18384700  0.87475500  1
  C  C14  1  0.84629500  0.15648600  0.89724300  1
  C  C15  1  0.90977700  0.22351000  0.87821600  1
  C  C16  1  0.01914400  0.16389000  0.89290700  1
  C  C17  1  0.09646100  0.13850700  0.84993900  1
  C  C18  1  0.18668400  0.08915900  0.88110800  1
  C  C19  1  0.16159000  0.08363100  0.94210900  1
  C  C20  1  0.23538200  0.03195400  0.99156600  1
  C  C21  1  0.47853100  0.71551100  0.76288200  1
  C  C22  1  0.28647000  0.04841400  0.85042200  1
  C  C23  1  0.61387200  0.07336700  0.88613800  1
  C  C24  1  0.50296700  0.17585600  0.73012400  1
  C  C25  1  0.51107400  0.75112900  0.24576700  1
  C  C26  1  0.39617400  0.86844800  0.08852400  1
  C  C27  1  0.72862700  0.85820100  0.12157600  1
  C  C28  1  0.53672300  0.21117900  0.21308000  1
  C  C29  1  0.52765200  0.34458400  0.25662000  1
  C  C30  1  0.51722900  0.33995500  0.31995100  1
  C  C31  1  0.50803500  0.46984200  0.35907900  1
  C  C32  1  0.50316800  0.60547100  0.33421800  1
  C  C33  1  0.51608500  0.60834800  0.27189300  1
  C  C34  1  0.53081300  0.47782600  0.23340300  1
  C  C35  1  0.51133800  0.45938300  0.54959300  1
  C  C36  1  0.50669000  0.46591400  0.42655900  1
  C  C37  1  0.51264200  0.32078300  0.64188900  1
  C  C38  1  0.49804700  0.31870900  0.70408400  1
  C  C39  1  0.48320800  0.44938200  0.74253400  1
  C  C40  1  0.48821700  0.58169800  0.71942900  1
  C  C41  1  0.50014900  0.58557800  0.65618900  1
  C  C42  1  0.50916300  0.45578600  0.61705900  1
  C  C43  1  0.87100700  0.34814800  0.83386800  1
  C  C44  1  0.94489500  0.42764600  0.82464800  1
  C  C45  1  0.97803300  0.43836800  0.76589700  1
  C  C46  1  0.04602300  0.51256900  0.75755000  1
  C  C47  1  0.08106600  0.57624300  0.80777100  1
  C  C48  1  0.04757200  0.56662300  0.86635400  1
  C  C49  1  0.97902900  0.49339300  0.87480300  1
  N  N1  1  0.14113300  0.89634300  0.03493000  1
  N  N2  1  0.95200000  0.81943900  0.02544500  1
  N  N3  1  0.86944600  0.04714200  0.93843000  1
  N  N4  1  0.05884100  0.12802100  0.94895500  1
  N  N5  1  0.50043400  0.59333200  0.46252600  1
  N  N6  1  0.50234000  0.59056400  0.52327200  1
  N  N7  1  0.51764800  0.33194600  0.51362800  1
  N  N8  1  0.51575300  0.33471000  0.45288300  1
  O  O1  1  0.51228800  0.82450100  0.74844800  1
  O  O2  1  0.43889900  0.72324500  0.81813900  1
  O  O3  1  0.37218000  0.01330100  0.88070200  1
  O  O4  1  0.28960100  0.05367500  0.79034600  1
  O  O5  1  0.58334200  0.04936900  0.71856300  1
  O  O6  1  0.60458000  0.93981100  0.86944200  1
  O  O7  1  0.43417800  0.17970500  0.77151100  1
  O  O8  1  0.54164500  0.20087700  0.87113400  1
  O  O9  1  0.57630200  0.74527000  0.20177400  1
  O  O10  1  0.46789600  0.73786900  0.10107800  1
  O  O11  1  0.43471300  0.88048900  0.26098500  1
  O  O12  1  0.40745000  0.99911900  0.10751600  1
  O  O13  1  0.64066100  0.91311700  0.09396200  1
  O  O14  1  0.72889700  0.83900500  0.18079000  1
  O  O15  1  0.50722400  0.09878800  0.22859000  1
  O  O16  1  0.57077900  0.20751100  0.15663500  1
