# generated using pymatgen
data_Zn3H52(C4O)12
_symmetry_space_group_name_H-M   'P 1'
_cell_length_a   21.89875800
_cell_length_b   21.90719100
_cell_length_c   22.22313800
_cell_angle_alpha   119.52276200
_cell_angle_beta   119.50407200
_cell_angle_gamma   90.00730200
_symmetry_Int_Tables_number   1
_chemical_formula_structural   Zn3H52(C4O)12
_chemical_formula_sum   'Zn6 H104 C96 O24'
_cell_volume   7647.78666279
_cell_formula_units_Z   2
loop_
 _symmetry_equiv_pos_site_id
 _symmetry_equiv_pos_as_xyz
  1  'x, y, z'
loop_
 _atom_site_type_symbol
 _atom_site_label
 _atom_site_symmetry_multiplicity
 _atom_site_fract_x
 _atom_site_fract_y
 _atom_site_fract_z
 _atom_site_occupancy
  Zn  Zn1  1  0.42586600  0.99826500  0.48846500  1
  Zn  Zn2  1  0.56858200  0.00246700  0.49770000  1
  Zn  Zn3  1  0.99760100  0.55668800  0.49376500  1
  Zn  Zn4  1  0.99308100  0.41836200  0.49305200  1
  Zn  Zn5  1  0.55005500  0.54942200  0.59059900  1
  Zn  Zn6  1  0.44428800  0.45410900  0.40135900  1
  H  H1  1  0.63572100  0.27974900  0.91900800  1
  H  H2  1  0.79683200  0.22963400  0.91419700  1
  H  H3  1  0.75426200  0.30158900  0.93072600  1
  H  H4  1  0.84585300  0.35877800  0.07043800  1
  H  H5  1  0.86951700  0.27568200  0.05202800  1
  H  H6  1  0.67338700  0.11290200  0.91575900  1
  H  H7  1  0.75963700  0.12978500  0.92554100  1
  H  H8  1  0.72983500  0.18874200  0.05624300  1
  H  H9  1  0.61187500  0.20975200  0.93111200  1
  H  H10  1  0.68302200  0.29114200  0.06980400  1
  H  H11  1  0.81643600  0.18917100  0.06557000  1
  H  H12  1  0.61669700  0.23819400  0.58139000  1
  H  H13  1  0.61694000  0.35137200  0.58330100  1
  H  H14  1  0.32846600  0.27067400  0.41869600  1
  H  H15  1  0.33793100  0.22259600  0.32765900  1
  H  H16  1  0.32695100  0.16091000  0.42123000  1
  H  H17  1  0.33721500  0.11312200  0.33075000  1
  H  H18  1  0.16172500  0.62587100  0.92604400  1
  H  H19  1  0.24771800  0.69420600  0.06565500  1
  H  H20  1  0.37795400  0.78789800  0.05234100  1
  H  H21  1  0.36044200  0.71752200  0.06721900  1
  H  H22  1  0.27620300  0.63509700  0.92810600  1
  H  H23  1  0.30485100  0.70058900  0.91269100  1
  H  H24  1  0.22559600  0.85901900  0.05800500  1
  H  H25  1  0.30782100  0.87757300  0.06103700  1
  H  H26  1  0.16103400  0.79158900  0.91650600  1
  H  H27  1  0.19776600  0.76022200  0.07468100  1
  H  H28  1  0.12053500  0.69863100  0.93381700  1
  H  H29  1  0.24513700  0.79857300  0.92010600  1
  H  H30  1  0.61306800  0.85686500  0.59360300  1
  H  H31  1  0.61179800  0.74723400  0.59822600  1
  H  H32  1  0.34514900  0.60394000  0.31589000  1
  H  H33  1  0.32342400  0.64819000  0.39666800  1
  H  H34  1  0.32297100  0.75638800  0.39258000  1
  H  H35  1  0.76499600  0.37276100  0.42734900  1
  H  H36  1  0.65128300  0.37649600  0.42423700  1
  H  H37  1  0.74831500  0.66628400  0.60890300  1
  H  H38  1  0.81892600  0.64742200  0.51208800  1
  H  H39  1  0.33234300  0.41734100  0.53054600  1
  H  H40  1  0.31762200  0.65858600  0.54226800  1
  H  H41  1  0.26303700  0.58659100  0.42644500  1
  H  H42  1  0.65856900  0.38402500  0.03554500  1
  H  H43  1  0.74319700  0.39729500  0.04343700  1
  H  H44  1  0.81499900  0.45627100  0.19109200  1
  H  H45  1  0.73937100  0.41722100  0.18811700  1
  H  H46  1  0.67059100  0.49389100  0.14810600  1
  H  H47  1  0.74188600  0.52882600  0.14330300  1
  H  H48  1  0.76440500  0.54646900  0.29973000  1
  H  H49  1  0.75417000  0.61643100  0.27772500  1
  H  H50  1  0.83351900  0.58443300  0.29423200  1
  H  H51  1  0.33830500  0.76394600  0.29402900  1
  H  H52  1  0.28674100  0.66870700  0.23774000  1
  H  H53  1  0.40968800  0.64012700  0.27747000  1
  H  H54  1  0.45323700  0.73526300  0.32171900  1
  H  H55  1  0.37107000  0.71797600  0.18729200  1
  H  H56  1  0.32026600  0.62451000  0.14054000  1
  H  H57  1  0.48593300  0.68235100  0.21784500  1
  H  H58  1  0.41268100  0.62749800  0.10704800  1
  H  H59  1  0.43248800  0.58837400  0.16710400  1
  H  H60  1  0.71684600  0.70807900  0.50546800  1
  H  H61  1  0.64007700  0.66055200  0.49277900  1
  H  H62  1  0.61475200  0.54638700  0.37099300  1
  H  H63  1  0.70085900  0.57873100  0.38680300  1
  H  H64  1  0.66029500  0.67261600  0.36237300  1
  H  H65  1  0.57546800  0.64649700  0.35210400  1
  H  H66  1  0.62357200  0.53905700  0.24272800  1
  H  H67  1  0.56447300  0.59066600  0.21438100  1
  H  H68  1  0.53466400  0.52399200  0.22797100  1
  H  H69  1  0.92815200  0.65286800  0.63935400  1
  H  H70  1  0.87041500  0.65901900  0.67699400  1
  H  H71  1  0.85908200  0.77609800  0.68618800  1
  H  H72  1  0.91473000  0.76815200  0.64536800  1
  H  H73  1  0.01955400  0.77322300  0.76720300  1
  H  H74  1  0.96384900  0.78090100  0.80794700  1
  H  H75  1  0.00755500  0.88960600  0.77572100  1
  H  H76  1  0.04793900  0.90365500  0.87660400  1
  H  H77  1  0.95197200  0.89737000  0.81675900  1
  H  H78  1  0.15760800  0.34598200  0.47564700  1
  H  H79  1  0.20333400  0.41836900  0.58633000  1
  H  H80  1  0.32056300  0.38986900  0.61409700  1
  H  H81  1  0.27083000  0.31386400  0.50334000  1
  H  H82  1  0.18354400  0.25889800  0.51727400  1
  H  H83  1  0.23508700  0.33310600  0.62765600  1
  H  H84  1  0.29617000  0.22251500  0.53865700  1
  H  H85  1  0.27254600  0.22139500  0.60551500  1
  H  H86  1  0.34813000  0.29713800  0.64901800  1
  H  H87  1  0.14936800  0.67015000  0.54309300  1
  H  H88  1  0.22711600  0.71883100  0.55893500  1
  H  H89  1  0.31077600  0.68215800  0.65641200  1
  H  H90  1  0.22964500  0.63995900  0.64257700  1
  H  H91  1  0.20546800  0.76152600  0.69219400  1
  H  H92  1  0.29156000  0.80257000  0.71378100  1
  H  H93  1  0.27247500  0.72376700  0.78891100  1
  H  H94  1  0.30973400  0.82229100  0.84157200  1
  H  H95  1  0.35909100  0.76178300  0.80912200  1
  H  H96  1  0.14033800  0.60892300  0.37939900  1
  H  H97  1  0.08236100  0.58003100  0.40205500  1
  H  H98  1  0.09080800  0.45572800  0.34187700  1
  H  H99  1  0.15909600  0.48095200  0.32761800  1
  H  H100  1  0.06808400  0.51035900  0.23148300  1
  H  H101  1  0.00005500  0.48611700  0.24655700  1
  H  H102  1  0.07699000  0.38239400  0.17768700  1
  H  H103  1  0.98462600  0.38306700  0.11584900  1
  H  H104  1  0.00591700  0.35869800  0.18927700  1
  C  C1  1  0.49713800  0.12052200  0.49463900  1
  C  C2  1  0.57517000  0.08131400  0.65701000  1
  C  C3  1  0.49754100  0.88040800  0.49185400  1
  C  C4  1  0.41924100  0.91937400  0.32915300  1
  C  C5  1  0.65855600  0.24913300  0.94813700  1
  C  C6  1  0.76972300  0.26014600  0.94542400  1
  C  C7  1  0.82292200  0.29859000  0.03923800  1
  C  C8  1  0.87183500  0.36045600  0.23955700  1
  C  C9  1  0.70090800  0.20651300  0.91417500  1
  C  C10  1  0.70971000  0.30214600  0.04321700  1
  C  C11  1  0.78278800  0.28402200  0.07262900  1
  C  C12  1  0.76461100  0.20229700  0.03862500  1
  C  C13  1  0.72330300  0.15640100  0.94411600  1
  C  C14  1  0.83193800  0.32550500  0.16411700  1
  C  C15  1  0.65421000  0.16192900  0.82246500  1
  C  C16  1  0.61717700  0.12520300  0.74691000  1
  C  C17  1  0.43515000  0.19914000  0.45066900  1
  C  C18  1  0.49865600  0.18796600  0.49627600  1
  C  C19  1  0.56485200  0.24367100  0.54364100  1
  C  C20  1  0.56500500  0.30809500  0.54508300  1
  C  C21  1  0.49937500  0.31573200  0.49569800  1
  C  C22  1  0.43575300  0.25857700  0.44856800  1
  C  C23  1  0.35431800  0.23463800  0.38919500  1
  C  C24  1  0.35362100  0.16435700  0.39111200  1
  C  C25  1  0.22674300  0.73122100  0.04538800  1
  C  C26  1  0.33421800  0.74727300  0.03796400  1
  C  C27  1  0.28204200  0.69224500  0.94389100  1
  C  C28  1  0.11881800  0.61603200  0.74719800  1
  C  C29  1  0.29091300  0.78734600  0.07203600  1
  C  C30  1  0.17315000  0.68557000  0.95094600  1
  C  C31  1  0.20694700  0.70373300  0.91415000  1
  C  C32  1  0.21614000  0.78379400  0.94259900  1
  C  C33  1  0.26120700  0.83332700  0.03751200  1
  C  C34  1  0.15834600  0.65528300  0.82265500  1
  C  C35  1  0.33900400  0.83544200  0.16366700  1
  C  C36  1  0.37689600  0.87415100  0.23923400  1
  C  C37  1  0.43587900  0.75442600  0.44057900  1
  C  C38  1  0.49816100  0.81477200  0.49372900  1
  C  C39  1  0.56232600  0.81076900  0.55000900  1
  C  C40  1  0.56139300  0.74868200  0.55299900  1
  C  C41  1  0.49720800  0.68827000  0.49688600  1
  C  C42  1  0.43563000  0.69409600  0.44122200  1
  C  C43  1  0.35562900  0.65467800  0.37319100  1
  C  C44  1  0.35627700  0.72532000  0.37185200  1
  C  C45  1  0.87280700  0.48924100  0.48688600  1
  C  C46  1  0.91762500  0.40433200  0.32949200  1
  C  C47  1  0.11884400  0.48620600  0.50092700  1
  C  C48  1  0.07300100  0.57089700  0.65729100  1
  C  C49  1  0.61087900  0.49783500  0.48514300  1
  C  C50  1  0.49817400  0.38181600  0.49471700  1
  C  C51  1  0.38340700  0.50527700  0.50668700  1
  C  C52  1  0.49622700  0.62186700  0.49736700  1
  C  C53  1  0.78640300  0.55295100  0.51142500  1
  C  C54  1  0.80433600  0.48922000  0.48321500  1
  C  C55  1  0.75413600  0.42488600  0.45084000  1
  C  C56  1  0.68903700  0.42667100  0.44799400  1
  C  C57  1  0.67396700  0.49287300  0.47853500  1
  C  C58  1  0.72447900  0.55448300  0.50865200  1
  C  C59  1  0.74022400  0.63518700  0.54688400  1
  C  C60  1  0.81380300  0.63376200  0.55158900  1
  C  C61  1  0.21598200  0.54075300  0.49980200  1
  C  C62  1  0.18940400  0.48942200  0.50723900  1
  C  C63  1  0.23313600  0.44432700  0.52131300  1
  C  C64  1  0.29818300  0.45190500  0.52334200  1
  C  C65  1  0.32068200  0.50329000  0.51346700  1
  C  C66  1  0.27778800  0.54665100  0.50255000  1
  C  C67  1  0.27225600  0.60576400  0.48746100  1
  C  C68  1  0.19962800  0.59981700  0.48443700  1
  C  C69  1  0.71575700  0.38183400  0.06677500  1
  C  C70  1  0.75428000  0.43966800  0.16028800  1
  C  C71  1  0.73061500  0.50792400  0.17443900  1
  C  C72  1  0.77357000  0.56767100  0.26767900  1
  C  C73  1  0.34135600  0.71200600  0.29086500  1
  C  C74  1  0.40042000  0.68873500  0.27498100  1
  C  C75  1  0.37511300  0.66826800  0.18860500  1
  C  C76  1  0.43033700  0.63982800  0.16904500  1
  C  C77  1  0.68727400  0.65432600  0.48668600  1
  C  C78  1  0.65632700  0.59550900  0.39488000  1
  C  C79  1  0.61859400  0.62626800  0.34290900  1
  C  C80  1  0.58296800  0.56599000  0.25100000  1
  C  C81  1  0.88193500  0.67244000  0.64080800  1
  C  C82  1  0.90424700  0.75552900  0.68266800  1
  C  C83  1  0.97414400  0.79345000  0.77049000  1
  C  C84  1  0.99678900  0.87648000  0.81254400  1
  C  C85  1  0.21058400  0.38884500  0.53417100  1
  C  C86  1  0.26599100  0.34899500  0.55658400  1
  C  C87  1  0.23890700  0.29917900  0.57338800  1
  C  C88  1  0.29254300  0.25736500  0.59290500  1
  C  C89  1  0.20528800  0.67120700  0.55620100  1
  C  C90  1  0.25463600  0.68312200  0.64156800  1
  C  C91  1  0.26143900  0.75778800  0.70877200  1
  C  C92  1  0.30347900  0.76686800  0.79252000  1
  C  C93  1  0.13064900  0.57334100  0.39804800  1
  C  C94  1  0.11085200  0.49243100  0.33011300  1
  C  C95  1  0.04910400  0.47517000  0.24553800  1
  C  C96  1  0.02784500  0.39448700  0.17774600  1
  O  O1  1  0.44097300  0.08916100  0.48785900  1
  O  O2  1  0.55236700  0.09457600  0.50036600  1
  O  O3  1  0.50257500  0.06174300  0.61418600  1
  O  O4  1  0.61176100  0.06241700  0.62198600  1
  O  O5  1  0.44205600  0.90609700  0.48576300  1
  O  O6  1  0.55359700  0.91171400  0.49851500  1
  O  O7  1  0.38271700  0.93835600  0.36420600  1
  O  O8  1  0.49185100  0.93884200  0.37196400  1
  O  O9  1  0.90469200  0.54342600  0.49133400  1
  O  O10  1  0.89937200  0.43524800  0.48575200  1
  O  O11  1  0.93641400  0.47653000  0.36909300  1
  O  O12  1  0.93606500  0.37056600  0.36783200  1
  O  O13  1  0.09099000  0.53912000  0.50063500  1
  O  O14  1  0.08614500  0.43212700  0.49588700  1
  O  O15  1  0.05480300  0.60453300  0.61892400  1
  O  O16  1  0.05399100  0.49856500  0.61780600  1
  O  O17  1  0.62477600  0.53772900  0.56049400  1
  O  O18  1  0.54367500  0.46057600  0.41628200  1
  O  O19  1  0.54031000  0.44652200  0.56630500  1
  O  O20  1  0.45483300  0.37347600  0.42247300  1
  O  O21  1  0.45065200  0.54157000  0.57565500  1
  O  O22  1  0.36945700  0.46660000  0.43131400  1
  O  O23  1  0.53855400  0.63007900  0.56959400  1
  O  O24  1  0.45497800  0.55704400  0.42557600  1
