# generated using pymatgen
data_FeH8C20N3O8
_symmetry_space_group_name_H-M   'P 1'
_cell_length_a   14.68314500
_cell_length_b   9.36368100
_cell_length_c   19.21269600
_cell_angle_alpha   85.67091800
_cell_angle_beta   90.43230400
_cell_angle_gamma   110.79589000
_symmetry_Int_Tables_number   1
_chemical_formula_structural   FeH8C20N3O8
_chemical_formula_sum   'Fe2 H16 C40 N6 O16'
_cell_volume   2461.85782744
_cell_formula_units_Z   2
loop_
 _symmetry_equiv_pos_site_id
 _symmetry_equiv_pos_as_xyz
  1  'x, y, z'
loop_
 _atom_site_type_symbol
 _atom_site_label
 _atom_site_symmetry_multiplicity
 _atom_site_fract_x
 _atom_site_fract_y
 _atom_site_fract_z
 _atom_site_occupancy
  Fe  Fe1  1  0.50613500  0.99722000  0.13123500  1
  Fe  Fe2  1  0.49712100  0.98008600  0.87560700  1
  H  H1  1  0.86469900  0.09694400  0.12315300  1
  H  H2  1  0.82111900  0.92726300  0.88606700  1
  H  H3  1  0.97824900  0.91193800  0.88593500  1
  H  H4  1  0.13521900  0.89976000  0.88322100  1
  H  H5  1  0.18989000  0.04619000  0.12394100  1
  H  H6  1  0.14643400  0.30170600  0.12822600  1
  H  H7  1  0.13587200  0.31174500  0.26125900  1
  H  H8  1  0.99670500  0.05642400  0.31314800  1
  H  H9  1  0.92297700  0.88997800  0.20531700  1
  H  H10  1  0.48219300  0.51529900  0.84718500  1
  H  H11  1  0.50659200  0.72789400  0.64229400  1
  H  H12  1  0.49698600  0.24971800  0.36094600  1
  H  H13  1  0.52262600  0.46608000  0.15680300  1
  H  H14  1  0.50604900  0.71215100  0.33161300  1
  H  H15  1  0.54606600  0.23195600  0.64270800  1
  H  H16  1  0.42059800  0.18238200  0.63771300  1
  C  C1  1  0.85616500  0.05838500  0.07132100  1
  C  C2  1  0.76857300  0.03897900  0.03868100  1
  C  C3  1  0.75706900  0.99490300  0.97053200  1
  C  C4  1  0.83121200  0.96488000  0.93833500  1
  C  C5  1  0.91680900  0.97943500  0.97218200  1
  C  C6  1  0.92995000  0.02559200  0.03911500  1
  C  C7  1  0.98896400  0.94710800  0.93860900  1
  C  C8  1  0.07476000  0.95985000  0.97168500  1
  C  C9  1  0.08880700  0.00441000  0.03887500  1
  C  C10  1  0.01633400  0.03779200  0.07301200  1
  C  C11  1  0.14704700  0.93041500  0.93651400  1
  C  C12  1  0.23491000  0.94549500  0.96758800  1
  C  C13  1  0.24772800  0.98449300  0.03637200  1
  C  C14  1  0.17529900  0.01396600  0.07115700  1
  C  C15  1  0.09100400  0.21920500  0.23178700  1
  C  C16  1  0.01883900  0.08691600  0.25887900  1
  C  C17  1  0.98066100  0.00099500  0.20324500  1
  C  C18  1  0.03108200  0.08473200  0.14454100  1
  C  C19  1  0.68752300  0.04576000  0.08160500  1
  C  C20  1  0.51563800  0.73263900  0.19064000  1
  C  C21  1  0.34073000  0.01668900  0.07136900  1
  C  C22  1  0.50431900  0.20267900  0.22768400  1
  C  C23  1  0.49922000  0.77711200  0.77607300  1
  C  C24  1  0.66540700  0.96252100  0.93329400  1
  C  C25  1  0.48438300  0.24532700  0.81525300  1
  C  C26  1  0.31493900  0.93864500  0.92365400  1
  C  C27  1  0.48612000  0.37433000  0.76555500  1
  C  C28  1  0.48929000  0.36464900  0.69384200  1
  C  C29  1  0.49588600  0.49227200  0.64809400  1
  C  C30  1  0.49965100  0.62672900  0.67595700  1
  C  C31  1  0.49245900  0.63344600  0.74708100  1
  C  C32  1  0.48454100  0.50702600  0.79150300  1
  C  C33  1  0.50125700  0.48771300  0.43137600  1
  C  C34  1  0.49842300  0.49052800  0.57097500  1
  C  C35  1  0.50274200  0.35068300  0.32749900  1
  C  C36  1  0.51078300  0.34572000  0.25652600  1
  C  C37  1  0.51856300  0.47266800  0.21251800  1
  C  C38  1  0.51413100  0.60312900  0.23911900  1
  C  C39  1  0.50726700  0.60893000  0.31068800  1
  C  C40  1  0.50361400  0.48329700  0.35519400  1
  N  N1  1  0.09808400  0.21689700  0.16215000  1
  N  N2  1  0.49213900  0.60994300  0.52993900  1
  N  N3  1  0.49367500  0.60882500  0.46104800  1
  N  N4  1  0.50832000  0.36940200  0.47220000  1
  N  N5  1  0.50707500  0.37109300  0.54077500  1
  N  N6  1  0.48169000  0.22119400  0.66894100  1
  O  O1  1  0.60301600  0.03311100  0.05478600  1
  O  O2  1  0.53398900  0.73130500  0.12401000  1
  O  O3  1  0.69573100  0.04559800  0.14968200  1
  O  O4  1  0.49610500  0.84842400  0.21230000  1
  O  O5  1  0.37405700  0.90659800  0.08977600  1
  O  O6  1  0.38919300  0.15693300  0.08729500  1
  O  O7  1  0.54722600  0.20576400  0.16754900  1
  O  O8  1  0.44852500  0.07184800  0.25907600  1
  O  O9  1  0.45823400  0.77364700  0.83717000  1
  O  O10  1  0.55267600  0.90824800  0.74366200  1
  O  O11  1  0.62758100  0.06935700  0.91969800  1
  O  O12  1  0.62336200  0.82672100  0.91020100  1
  O  O13  1  0.30775400  0.94832000  0.85546600  1
  O  O14  1  0.50944200  0.13251900  0.79567500  1
  O  O15  1  0.39746200  0.93952800  0.95061000  1
  O  O16  1  0.46181900  0.24617200  0.88113400  1
