# generated using pymatgen
data_VH5C11NO6
_symmetry_space_group_name_H-M   'P 1'
_cell_length_a   6.81800000
_cell_length_b   18.38670000
_cell_length_c   19.70789900
_cell_angle_alpha   90.00000000
_cell_angle_beta   86.61378700
_cell_angle_gamma   90.00000000
_symmetry_Int_Tables_number   1
_chemical_formula_structural   VH5C11NO6
_chemical_formula_sum   'V4 H20 C44 N4 O24'
_cell_volume   2466.27899663
_cell_formula_units_Z   4
loop_
 _symmetry_equiv_pos_site_id
 _symmetry_equiv_pos_as_xyz
  1  'x, y, z'
loop_
 _atom_site_type_symbol
 _atom_site_label
 _atom_site_symmetry_multiplicity
 _atom_site_fract_x
 _atom_site_fract_y
 _atom_site_fract_z
 _atom_site_occupancy
  V  V1  1  0.76733800  0.23242500  0.73151000  1
  V  V2  1  0.23265800  0.75847800  0.26867800  1
  V  V3  1  0.73266100  0.73242500  0.26849000  1
  V  V4  1  0.26734300  0.25847800  0.73132200  1
  H  H1  1  0.24691600  0.44168400  0.59375000  1
  H  H2  1  0.75938200  0.54768700  0.40222500  1
  H  H3  1  0.25308300  0.94168400  0.40625000  1
  H  H4  1  0.74061700  0.04768700  0.59777500  1
  H  H5  1  0.77586200  0.49755400  0.00623800  1
  H  H6  1  0.22447000  0.49339400  0.99361300  1
  H  H7  1  0.72413800  0.99755500  0.99376100  1
  H  H8  1  0.27553000  0.99339500  0.00638700  1
  H  H9  1  0.69579500  0.34842500  0.55871900  1
  H  H10  1  0.29415900  0.64695600  0.44709700  1
  H  H11  1  0.80420500  0.84842500  0.44128100  1
  H  H12  1  0.20584100  0.14695600  0.55290300  1
  H  H13  1  0.51621500  0.55308900  0.63646300  1
  H  H14  1  0.26820600  0.55218000  0.64438800  1
  H  H15  1  0.37887000  0.47247300  0.40601300  1
  H  H16  1  0.49000000  0.53607700  0.45203500  1
  H  H17  1  0.98378300  0.05308900  0.36353700  1
  H  H18  1  0.23179200  0.05218000  0.35561200  1
  H  H19  1  0.12112900  0.97247200  0.59398700  1
  H  H20  1  0.01000000  0.03607700  0.54796500  1
  C  C1  1  0.47066600  0.15776700  0.82755400  1
  C  C2  1  0.52900300  0.83299500  0.17233000  1
  C  C3  1  0.02933300  0.65776700  0.17244600  1
  C  C4  1  0.97099700  0.33299500  0.82767000  1
  C  C5  1  0.49662200  0.15744600  0.63590700  1
  C  C6  1  0.50357700  0.83368700  0.36392600  1
  C  C7  1  0.00337700  0.65744600  0.36409300  1
  C  C8  1  0.99642300  0.33368600  0.63607400  1
  C  C9  1  0.05252300  0.60598000  0.11628900  1
  C  C10  1  0.94808000  0.38488200  0.88373600  1
  C  C11  1  0.44747600  0.10598100  0.88371200  1
  C  C12  1  0.55191900  0.88488200  0.11626400  1
  C  C13  1  0.07966500  0.50982500  0.01358500  1
  C  C14  1  0.92075200  0.48120100  0.98627800  1
  C  C15  1  0.42033400  0.00982500  0.98641500  1
  C  C16  1  0.57924500  0.98120100  0.01372200  1
  C  C17  1  0.93674000  0.42863300  0.93039100  1
  C  C18  1  0.06382600  0.56232200  0.06954800  1
  C  C19  1  0.56326000  0.92863300  0.06961000  1
  C  C20  1  0.43617300  0.06232200  0.93045200  1
  C  C21  1  0.97534200  0.38932600  0.58203500  1
  C  C22  1  0.02194900  0.60285900  0.41921300  1
  C  C23  1  0.52465800  0.88932600  0.41796500  1
  C  C24  1  0.47805000  0.10285900  0.58078700  1
  C  C25  1  0.21328600  0.55445800  0.50782100  1
  C  C26  1  0.77184200  0.44146800  0.49826700  1
  C  C27  1  0.28671300  0.05445800  0.49217900  1
  C  C28  1  0.72815600  0.94146800  0.50173300  1
  C  C29  1  0.18640000  0.60449500  0.45667000  1
  C  C30  1  0.80553800  0.38979700  0.54741700  1
  C  C31  1  0.31359800  0.10449600  0.54333000  1
  C  C32  1  0.69446000  0.88979700  0.45258300  1
  C  C33  1  0.88316400  0.54899600  0.43329100  1
  C  C34  1  0.11300000  0.44340900  0.56762800  1
  C  C35  1  0.61683600  0.04899600  0.56670900  1
  C  C36  1  0.38700000  0.94340900  0.43237200  1
  C  C37  1  0.90969000  0.49649200  0.48370100  1
  C  C38  1  0.07874300  0.49818300  0.52019600  1
  C  C39  1  0.59031000  0.99649200  0.51630000  1
  C  C40  1  0.42125600  0.99818300  0.47980400  1
  C  C41  1  0.38294700  0.56558900  0.54925200  1
  C  C42  1  0.58570800  0.43425300  0.46465900  1
  C  C43  1  0.11705300  0.06558800  0.45074800  1
  C  C44  1  0.91429100  0.93425300  0.53534100  1
  N  N1  1  0.39025400  0.53356600  0.61490700  1
  N  N2  1  0.51433800  0.48975700  0.42215700  1
  N  N3  1  0.10974600  0.03356500  0.38509300  1
  N  N4  1  0.98566100  0.98975700  0.57784300  1
  O  O1  1  0.32698500  0.18849400  0.65777500  1
  O  O2  1  0.67287900  0.80252900  0.34191600  1
  O  O3  1  0.17301300  0.68849400  0.34222500  1
  O  O4  1  0.82712100  0.30252900  0.65808400  1
  O  O5  1  0.65414700  0.16422500  0.80072200  1
  O  O6  1  0.34569500  0.82657100  0.19934100  1
  O  O7  1  0.84585400  0.66422500  0.19927900  1
  O  O8  1  0.15430400  0.32657200  0.80065900  1
  O  O9  1  0.80690900  0.30241600  0.80567000  1
  O  O10  1  0.19321900  0.68835400  0.19461100  1
  O  O11  1  0.69309000  0.80241600  0.19433000  1
  O  O12  1  0.30677900  0.18835400  0.80538900  1
  O  O13  1  0.67289400  0.16468500  0.66228900  1
  O  O14  1  0.32697300  0.82638900  0.33778900  1
  O  O15  1  0.82710600  0.66468500  0.33771100  1
  O  O16  1  0.17302500  0.32638800  0.66221200  1
  O  O17  1  0.49716400  0.29144400  0.73020500  1
  O  O18  1  0.50289900  0.69939400  0.26965400  1
  O  O19  1  0.00283800  0.79144300  0.26979600  1
  O  O20  1  0.99709900  0.19939400  0.73034600  1
  O  O21  1  0.51075200  0.60843200  0.52986600  1
  O  O22  1  0.48623700  0.37995300  0.47560600  1
  O  O23  1  0.98924700  0.10843200  0.47013400  1
  O  O24  1  0.01376300  0.87995300  0.52439400  1
