# generated using pymatgen
data_FeH10C24(NO6)2
_symmetry_space_group_name_H-M   'P 1'
_cell_length_a   13.74620900
_cell_length_b   9.74539800
_cell_length_c   17.11105900
_cell_angle_alpha   86.47901500
_cell_angle_beta   90.65874800
_cell_angle_gamma   109.10551900
_symmetry_Int_Tables_number   1
_chemical_formula_structural   FeH10C24(NO6)2
_chemical_formula_sum   'Fe2 H20 C48 N4 O24'
_cell_volume   2161.79554515
_cell_formula_units_Z   2
loop_
 _symmetry_equiv_pos_site_id
 _symmetry_equiv_pos_as_xyz
  1  'x, y, z'
loop_
 _atom_site_type_symbol
 _atom_site_label
 _atom_site_symmetry_multiplicity
 _atom_site_fract_x
 _atom_site_fract_y
 _atom_site_fract_z
 _atom_site_occupancy
  Fe  Fe1  1  0.53645400  0.04647000  0.21856100  1
  Fe  Fe2  1  0.46814500  0.97184100  0.78409400  1
  H  H1  1  0.94936800  0.27110300  0.21181800  1
  H  H2  1  0.68664400  0.68221700  0.83991200  1
  H  H3  1  0.85842800  0.64009900  0.84157500  1
  H  H4  1  0.05141200  0.74185200  0.78064900  1
  H  H5  1  0.30747900  0.31639800  0.15670700  1
  H  H6  1  0.13996300  0.36162800  0.14997200  1
  H  H7  1  0.69207900  0.08114800  0.99793300  1
  H  H8  1  0.01277500  0.84019100  0.01433100  1
  H  H9  1  0.98184500  0.15054600  0.98189500  1
  H  H10  1  0.43014700  0.78218100  0.42368400  1
  H  H11  1  0.44138100  0.15918500  0.57467000  1
  H  H12  1  0.54054500  0.85678600  0.55726800  1
  H  H13  1  0.57016700  0.85377900  0.43522500  1
  H  H14  1  0.57990000  0.23354400  0.57651200  1
  H  H15  1  0.48822900  0.50626100  0.77005900  1
  H  H16  1  0.52770500  0.51795600  0.23419800  1
  H  H17  1  0.22709900  0.66118100  0.55101700  1
  H  H18  1  0.26466200  0.05856700  0.43888700  1
  H  H19  1  0.69266700  0.12125400  0.40482800  1
  H  H20  1  0.35687100  0.69261100  0.00821800  1
  C  C1  1  0.69214600  0.86861100  0.90778600  1
  C  C2  1  0.72619800  0.76292500  0.88025500  1
  C  C3  1  0.82499800  0.79066500  0.90713700  1
  C  C4  1  0.77030500  0.95285400  0.95293500  1
  C  C5  1  0.88756600  0.72229400  0.88367000  1
  C  C6  1  0.99875200  0.77551800  0.89636200  1
  C  C7  1  0.06882000  0.77645600  0.83951300  1
  C  C8  1  0.16467900  0.83751700  0.87076500  1
  C  C9  1  0.14936500  0.86871900  0.94694100  1
  C  C10  1  0.23104200  0.93104400  0.00361200  1
  C  C11  1  0.22827200  0.04302300  0.04437200  1
  C  C12  1  0.30405600  0.12723800  0.09240700  1
  C  C13  1  0.26966700  0.23520400  0.11610200  1
  C  C14  1  0.17287800  0.20892900  0.08611400  1
  C  C15  1  0.11036700  0.27872700  0.10832200  1
  C  C16  1  0.99886200  0.22609300  0.09728700  1
  C  C17  1  0.93037600  0.23122500  0.15411600  1
  C  C18  1  0.83357900  0.16819600  0.12473900  1
  C  C19  1  0.84676000  0.12886800  0.05013100  1
  C  C20  1  0.76378500  0.05778600  0.99657200  1
  C  C21  1  0.73918700  0.13557300  0.17140800  1
  C  C22  1  0.53302600  0.77419200  0.27907500  1
  C  C23  1  0.40086300  0.11398500  0.12171600  1
  C  C24  1  0.50329900  0.26236000  0.29914500  1
  C  C25  1  0.49044900  0.50359100  0.70707800  1
  C  C26  1  0.49355100  0.62667900  0.66208300  1
  C  C27  1  0.49545000  0.62722800  0.58135600  1
  C  C28  1  0.48343600  0.75629300  0.53693300  1
  C  C29  1  0.49885700  0.76325500  0.44950300  1
  C  C30  1  0.49252100  0.38002600  0.67279700  1
  C  C31  1  0.50121200  0.38384900  0.59102500  1
  C  C32  1  0.50063700  0.50671200  0.54504800  1
  C  C33  1  0.50552600  0.50982300  0.45909100  1
  C  C34  1  0.50804400  0.63427600  0.41346700  1
  C  C35  1  0.52050200  0.64146000  0.33183800  1
  C  C36  1  0.50891600  0.25312200  0.55510700  1
  C  C37  1  0.51122800  0.25400000  0.46677400  1
  C  C38  1  0.50882500  0.38898600  0.42239000  1
  C  C39  1  0.51502700  0.39343800  0.34113500  1
  C  C40  1  0.52303800  0.51902900  0.29713000  1
  C  C41  1  0.59525900  0.88841500  0.88317600  1
  C  C42  1  0.50389800  0.76067500  0.70094600  1
  C  C43  1  0.26005100  0.87402500  0.82467300  1
  C  C44  1  0.48024100  0.24773600  0.72562200  1
  C  C45  1  0.37793300  0.76034800  0.55228800  1
  C  C46  1  0.41675500  0.13273300  0.44616800  1
  C  C47  1  0.61195700  0.23623200  0.44550700  1
  C  C48  1  0.31503900  0.86843400  0.01047500  1
  N  N1  1  0.85225100  0.90557100  0.95225500  1
  N  N2  1  0.04742500  0.83213400  0.96169800  1
  N  N3  1  0.14735000  0.09334700  0.04137400  1
  N  N4  1  0.94828200  0.16363100  0.03401700  1
  O  O1  1  0.64797300  0.08171800  0.14007400  1
  O  O2  1  0.57091600  0.78070700  0.20837500  1
  O  O3  1  0.74691100  0.15465400  0.24669300  1
  O  O4  1  0.50625000  0.88464600  0.30019100  1
  O  O5  1  0.40338500  0.99394300  0.15986200  1
  O  O6  1  0.47967900  0.23338000  0.12701500  1
  O  O7  1  0.58373000  0.23233000  0.27402600  1
  O  O8  1  0.41030600  0.17822600  0.28257700  1
  O  O9  1  0.59483100  0.01393900  0.85036400  1
  O  O10  1  0.51652500  0.77166400  0.87177100  1
  O  O11  1  0.42274600  0.79000100  0.72498800  1
  O  O12  1  0.59631900  0.85108200  0.71356200  1
  O  O13  1  0.43719500  0.23830900  0.79468000  1
  O  O14  1  0.34980700  0.93722100  0.85622800  1
  O  O15  1  0.50942100  0.13864600  0.70536300  1
  O  O16  1  0.25412900  0.85026800  0.74989800  1
  O  O17  1  0.36638900  0.86887300  0.57674900  1
  O  O18  1  0.29238400  0.64056900  0.53791800  1
  O  O19  1  0.42224000  0.02220400  0.42025500  1
  O  O20  1  0.32057700  0.14836100  0.45564100  1
  O  O21  1  0.69116900  0.33712200  0.45415000  1
  O  O22  1  0.61812600  0.11083900  0.41494100  1
  O  O23  1  0.40486000  0.94595800  0.00653000  1
  O  O24  1  0.29138300  0.71864100  0.00805600  1
