# generated using pymatgen
data_CuH5C15I5NO4
_symmetry_space_group_name_H-M   'P 1'
_cell_length_a   11.18069900
_cell_length_b   15.24751100
_cell_length_c   13.83898300
_cell_angle_alpha   89.99676300
_cell_angle_beta   102.09578900
_cell_angle_gamma   89.99351100
_symmetry_Int_Tables_number   1
_chemical_formula_structural   CuH5C15I5NO4
_chemical_formula_sum   'Cu2 H10 C30 I10 N2 O8'
_cell_volume   2306.86145064
_cell_formula_units_Z   2
loop_
 _symmetry_equiv_pos_site_id
 _symmetry_equiv_pos_as_xyz
  1  'x, y, z'
loop_
 _atom_site_type_symbol
 _atom_site_label
 _atom_site_symmetry_multiplicity
 _atom_site_fract_x
 _atom_site_fract_y
 _atom_site_fract_z
 _atom_site_occupancy
  Cu  Cu1  1  0.50095700  0.50101400  0.59553500  1
  Cu  Cu2  1  0.49998300  0.49963100  0.40203200  1
  H  H1  1  0.88174500  0.51434800  0.41317900  1
  H  H2  1  0.11859800  0.52198100  0.58109000  1
  H  H3  1  0.48208500  0.06694700  0.65200200  1
  H  H4  1  0.44459000  0.94107200  0.34145700  1
  H  H5  1  0.55638200  0.06023100  0.36125200  1
  H  H6  1  0.51496600  0.93275500  0.65721800  1
  H  H7  1  0.61576600  0.61275800  0.09188400  1
  H  H8  1  0.33994600  0.42078600  0.89800900  1
  H  H9  1  0.38047000  0.38907100  0.05052200  1
  H  H10  1  0.66119300  0.57988400  0.95472200  1
  C  C1  1  0.51469200  0.33106400  0.50230000  1
  C  C2  1  0.48574500  0.66943900  0.49586600  1
  C  C3  1  0.26539900  0.49639100  0.45924300  1
  C  C4  1  0.73579000  0.50437800  0.53799500  1
  C  C5  1  0.13084100  0.49570100  0.43584100  1
  C  C6  1  0.87037200  0.50305400  0.56092700  1
  C  C7  1  0.06797100  0.50852800  0.50734100  1
  C  C8  1  0.93274000  0.50851500  0.48812300  1
  C  C9  1  0.49843300  0.09689400  0.58567600  1
  C  C10  1  0.46453800  0.90657700  0.41103400  1
  C  C11  1  0.51544000  0.18620300  0.59009700  1
  C  C12  1  0.45590700  0.81610400  0.40758000  1
  C  C13  1  0.52518800  0.23346100  0.50548300  1
  C  C14  1  0.47451500  0.76702100  0.49504400  1
  C  C15  1  0.54440100  0.18480600  0.42423500  1
  C  C16  1  0.48311200  0.81385900  0.58314400  1
  C  C17  1  0.53559200  0.09435900  0.42399500  1
  C  C18  1  0.49974600  0.90317900  0.58520200  1
  C  C19  1  0.50607300  0.04897500  0.50234500  1
  C  C20  1  0.49299800  0.95154200  0.49972800  1
  C  C21  1  0.56395300  0.56119800  0.11701300  1
  C  C22  1  0.41389200  0.45597600  0.87686000  1
  C  C23  1  0.56667200  0.55864200  0.21721900  1
  C  C24  1  0.41728500  0.45404500  0.77773000  1
  C  C25  1  0.42946600  0.44153700  0.19311100  1
  C  C26  1  0.58609800  0.54759100  0.80742000  1
  C  C27  1  0.43240600  0.44018500  0.09385900  1
  C  C28  1  0.58785300  0.54495200  0.90749100  1
  C  C29  1  0.49882600  0.50065400  0.05279600  1
  C  C30  1  0.50015200  0.50057700  0.94481400  1
  I  I1  1  0.95783700  0.48344100  0.71056700  1
  I  I2  1  0.04458600  0.47364300  0.28642100  1
  I  I3  1  0.54821000  0.23412600  0.73710800  1
  I  I4  1  0.39169700  0.76603400  0.26308500  1
  I  I5  1  0.61111200  0.23585600  0.30308700  1
  I  I6  1  0.44788300  0.76514800  0.71807200  1
  I  I7  1  0.68896100  0.65207200  0.29743300  1
  I  I8  1  0.27961100  0.37095600  0.69685100  1
  I  I9  1  0.30938400  0.34560200  0.23014000  1
  I  I10  1  0.72255100  0.63289400  0.77528400  1
  N  N1  1  0.49953000  0.49891100  0.25681000  1
  N  N2  1  0.50124500  0.50173200  0.74079200  1
  O  O1  1  0.50595900  0.37354100  0.58287400  1
  O  O2  1  0.48515000  0.62678700  0.41324700  1
  O  O3  1  0.50681800  0.37227600  0.41796800  1
  O  O4  1  0.50225800  0.62835100  0.58078400  1
  O  O5  1  0.32326500  0.50346900  0.55142500  1
  O  O6  1  0.67769300  0.50359900  0.44563000  1
  O  O7  1  0.32271600  0.49006500  0.38622000  1
  O  O8  1  0.67866300  0.50413700  0.61141400  1
