# generated using pymatgen
data_CuH10C19NO4
_symmetry_space_group_name_H-M   'P 1'
_cell_length_a   19.42252800
_cell_length_b   8.52914700
_cell_length_c   14.28591800
_cell_angle_alpha   90.00000000
_cell_angle_beta   90.77532400
_cell_angle_gamma   90.00000000
_symmetry_Int_Tables_number   1
_chemical_formula_structural   CuH10C19NO4
_chemical_formula_sum   'Cu2 H20 C38 N2 O8'
_cell_volume   2366.35416594
_cell_formula_units_Z   2
loop_
 _symmetry_equiv_pos_site_id
 _symmetry_equiv_pos_as_xyz
  1  'x, y, z'
loop_
 _atom_site_type_symbol
 _atom_site_label
 _atom_site_symmetry_multiplicity
 _atom_site_fract_x
 _atom_site_fract_y
 _atom_site_fract_z
 _atom_site_occupancy
  Cu  Cu1  1  0.99430200  0.00058200  0.09238300  1
  Cu  Cu2  1  0.00569800  0.00058200  0.90761600  1
  H  H1  1  0.06165400  0.23147200  0.55363400  1
  H  H2  1  0.93835600  0.76783000  0.44635600  1
  H  H3  1  0.93834600  0.23147200  0.44636500  1
  H  H4  1  0.06164400  0.76783000  0.55364300  1
  H  H5  1  0.11429200  0.99963000  0.43326200  1
  H  H6  1  0.88570800  0.99963000  0.56673800  1
  H  H7  1  0.95271400  0.50125800  0.95743300  1
  H  H8  1  0.04728500  0.50125800  0.04256600  1
  H  H9  1  0.76823800  0.75314200  0.99733400  1
  H  H10  1  0.23005900  0.24927600  0.98886000  1
  H  H11  1  0.23176100  0.75314200  0.00266600  1
  H  H12  1  0.76994000  0.24927600  0.01113900  1
  H  H13  1  0.45368000  0.26729500  0.05614500  1
  H  H14  1  0.54611700  0.72762000  0.05897700  1
  H  H15  1  0.54632000  0.26729500  0.94385500  1
  H  H16  1  0.45388300  0.72762000  0.94102300  1
  H  H17  1  0.32931700  0.26994300  0.05994300  1
  H  H18  1  0.67076000  0.72683200  0.06562500  1
  H  H19  1  0.67068300  0.26994300  0.94005700  1
  H  H20  1  0.32924000  0.72683100  0.93437500  1
  C  C1  1  0.90615700  0.78325900  0.98723900  1
  C  C2  1  0.09331900  0.21883500  0.01194500  1
  C  C3  1  0.09384200  0.78325900  0.01276100  1
  C  C4  1  0.90668100  0.21883400  0.98805500  1
  C  C5  1  0.96648300  0.12631200  0.47178500  1
  C  C6  1  0.03351700  0.87302800  0.52823300  1
  C  C7  1  0.03351700  0.12631200  0.52821500  1
  C  C8  1  0.96648200  0.87302800  0.47176600  1
  C  C9  1  0.93755600  0.99966900  0.53516700  1
  C  C10  1  0.06244400  0.99966900  0.46483200  1
  C  C11  1  0.00453300  0.99969700  0.58991900  1
  C  C12  1  0.99546700  0.99969700  0.41008100  1
  C  C13  1  0.00855000  0.00006500  0.69278700  1
  C  C14  1  0.99145000  0.00006500  0.30721300  1
  C  C15  1  0.86442300  0.64056100  0.98172300  1
  C  C16  1  0.13518500  0.36126700  0.01704600  1
  C  C17  1  0.13557700  0.64056100  0.01827600  1
  C  C18  1  0.86481500  0.36126700  0.98295400  1
  C  C19  1  0.79398600  0.64134900  0.99443900  1
  C  C20  1  0.20519500  0.36034600  0.00119300  1
  C  C21  1  0.20601400  0.64134900  0.00556000  1
  C  C22  1  0.79480500  0.36034600  0.99880700  1
  C  C23  1  0.75785200  0.50034500  0.99914800  1
  C  C24  1  0.24214800  0.50034500  0.00085200  1
  C  C25  1  0.89823400  0.50098700  0.97002700  1
  C  C26  1  0.10176600  0.50098800  0.02997300  1
  C  C27  1  0.42624600  0.36809300  0.02896400  1
  C  C28  1  0.57369200  0.62676800  0.03315500  1
  C  C29  1  0.57375400  0.36809300  0.97103600  1
  C  C30  1  0.42630800  0.62676800  0.96684500  1
  C  C31  1  0.35513500  0.36947600  0.02981900  1
  C  C32  1  0.64489600  0.62621800  0.03599200  1
  C  C33  1  0.64486500  0.36947600  0.97018100  1
  C  C34  1  0.35510400  0.62621800  0.96400800  1
  C  C35  1  0.31846300  0.49822400  0.99678300  1
  C  C36  1  0.68153700  0.49822400  0.00321700  1
  C  C37  1  0.46220700  0.49752500  0.99889000  1
  C  C38  1  0.53779300  0.49752500  0.00111000  1
  N  N1  1  0.01037200  0.00038100  0.77396200  1
  N  N2  1  0.98962700  0.00038100  0.22603700  1
  O  O1  1  0.92436900  0.83742200  0.07012800  1
  O  O2  1  0.07549700  0.16353900  0.92928300  1
  O  O3  1  0.07563100  0.83742200  0.92987200  1
  O  O4  1  0.92450300  0.16353900  0.07071600  1
  O  O5  1  0.93612900  0.83519900  0.91144200  1
  O  O6  1  0.06352800  0.16695800  0.08798500  1
  O  O7  1  0.06387000  0.83519900  0.08855800  1
  O  O8  1  0.93647200  0.16695800  0.91201400  1
