# generated using pymatgen
data_FeH11C23O8
_symmetry_space_group_name_H-M   'P 1'
_cell_length_a   16.21084500
_cell_length_b   9.39500500
_cell_length_c   19.22030200
_cell_angle_alpha   85.75137700
_cell_angle_beta   84.69288400
_cell_angle_gamma   105.19029700
_symmetry_Int_Tables_number   1
_chemical_formula_structural   FeH11C23O8
_chemical_formula_sum   'Fe2 H22 C46 O16'
_cell_volume   2798.12132542
_cell_formula_units_Z   2
loop_
 _symmetry_equiv_pos_site_id
 _symmetry_equiv_pos_as_xyz
  1  'x, y, z'
loop_
 _atom_site_type_symbol
 _atom_site_label
 _atom_site_symmetry_multiplicity
 _atom_site_fract_x
 _atom_site_fract_y
 _atom_site_fract_z
 _atom_site_occupancy
  Fe  Fe1  1  0.50006200  0.00151200  0.12797000  1
  Fe  Fe2  1  0.49364500  0.01801000  0.87126300  1
  H  H1  1  0.17973600  0.97798400  0.90428000  1
  H  H2  1  0.19945700  0.02816100  0.15362000  1
  H  H3  1  0.05839800  0.91167700  0.87661800  1
  H  H4  1  0.05479400  0.02922200  0.17232500  1
  H  H5  1  0.92203900  0.02596200  0.13265600  1
  H  H6  1  0.77990200  0.94904100  0.85030900  1
  H  H7  1  0.81867000  0.06368200  0.09017100  1
  H  H8  1  0.48231500  0.55698700  0.84667100  1
  H  H9  1  0.49456200  0.30261200  0.67312200  1
  H  H10  1  0.50172300  0.76034900  0.63894700  1
  H  H11  1  0.59054600  0.72958000  0.54212300  1
  H  H12  1  0.58945500  0.71423700  0.41700900  1
  H  H13  1  0.40461800  0.29052700  0.45736000  1
  H  H14  1  0.40583200  0.30581000  0.58245800  1
  H  H15  1  0.49244900  0.25985800  0.36014400  1
  H  H16  1  0.51034100  0.46398000  0.15274300  1
  H  H17  1  0.50090500  0.71827300  0.32662400  1
  H  H18  1  0.91085700  0.67049300  0.83671200  1
  H  H19  1  0.81118400  0.72247800  0.84009200  1
  H  H20  1  0.87029000  0.71800700  0.75623100  1
  H  H21  1  0.89857300  0.98053500  0.78130800  1
  H  H22  1  0.99180300  0.91725500  0.78280100  1
  C  C1  1  0.26446200  0.00294900  0.05635900  1
  C  C2  1  0.25836500  0.98940300  0.98539100  1
  C  C3  1  0.18014300  0.98088300  0.95982400  1
  C  C4  1  0.19347600  0.01172500  0.09904400  1
  C  C5  1  0.11609600  0.00372900  0.07301500  1
  C  C6  1  0.10720000  0.98551000  0.00332100  1
  C  C7  1  0.02701500  0.97828500  0.97862800  1
  C  C8  1  0.01239900  0.94485500  0.91089900  1
  C  C9  1  0.93567900  0.94261200  0.88535800  1
  C  C10  1  0.04804000  0.01662200  0.11752300  1
  C  C11  1  0.97124600  0.01694500  0.09323700  1
  C  C12  1  0.95947900  0.00116300  0.02298200  1
  C  C13  1  0.88124400  0.00347300  0.99670900  1
  C  C14  1  0.86988200  0.97368200  0.92796600  1
  C  C15  1  0.79214600  0.97289200  0.90287300  1
  C  C16  1  0.81326900  0.03388200  0.03779700  1
  C  C17  1  0.73470900  0.02671800  0.01341300  1
  C  C18  1  0.72520900  0.99880500  0.94445100  1
  C  C19  1  0.66186700  0.03331300  0.06428300  1
  C  C20  1  0.50723900  0.73400000  0.18577400  1
  C  C21  1  0.34633400  0.02954700  0.08615300  1
  C  C22  1  0.49598300  0.20608700  0.22605800  1
  C  C23  1  0.49681700  0.81436300  0.77293400  1
  C  C24  1  0.64338400  0.97863300  0.91518600  1
  C  C25  1  0.48707300  0.28728500  0.81402800  1
  C  C26  1  0.33361200  0.99548600  0.93446900  1
  C  C27  1  0.48807300  0.41554600  0.76511100  1
  C  C28  1  0.49282200  0.40609300  0.69342300  1
  C  C29  1  0.49707400  0.52944900  0.64754600  1
  C  C30  1  0.49896500  0.66323100  0.67384500  1
  C  C31  1  0.49223700  0.67206700  0.74529700  1
  C  C32  1  0.48542600  0.54792700  0.79084700  1
  C  C33  1  0.54857800  0.63334800  0.52412800  1
  C  C34  1  0.54779700  0.62482800  0.45286500  1
  C  C35  1  0.49680800  0.50147500  0.42789100  1
  C  C36  1  0.44668700  0.38668300  0.47532500  1
  C  C37  1  0.44751000  0.39517200  0.54658600  1
  C  C38  1  0.49841400  0.51860000  0.57155200  1
  C  C39  1  0.49512700  0.35712300  0.32538200  1
  C  C40  1  0.50094200  0.34836300  0.25390800  1
  C  C41  1  0.50779000  0.47281900  0.20856800  1
  C  C42  1  0.50615900  0.60544400  0.23451600  1
  C  C43  1  0.50210600  0.61469200  0.30619400  1
  C  C44  1  0.49773500  0.49097900  0.35187900  1
  C  C45  1  0.92726000  0.90423700  0.81137600  1
  C  C46  1  0.87627600  0.74369200  0.81123700  1
  O  O1  1  0.58609000  0.02986700  0.04459800  1
  O  O2  1  0.51849700  0.72677700  0.11776900  1
  O  O3  1  0.67002600  0.02724400  0.13166800  1
  O  O4  1  0.49475300  0.85547300  0.20912500  1
  O  O5  1  0.38395100  0.92258800  0.09577800  1
  O  O6  1  0.38220300  0.16222100  0.10335600  1
  O  O7  1  0.53167800  0.20338900  0.16210900  1
  O  O8  1  0.45033100  0.08298800  0.26286800  1
  O  O9  1  0.45905600  0.81730700  0.83610800  1
  O  O10  1  0.54503900  0.93695900  0.73728300  1
  O  O11  1  0.61020600  0.09066200  0.90370800  1
  O  O12  1  0.60370600  0.84690400  0.89907900  1
  O  O13  1  0.32740400  0.00954800  0.86684200  1
  O  O14  1  0.50111000  0.16678100  0.79074700  1
  O  O15  1  0.40793000  0.99108300  0.95480600  1
  O  O16  1  0.47396900  0.29364700  0.88198800  1
