# generated using pymatgen
data_ZnH13C18NO6
_symmetry_space_group_name_H-M   'P 1'
_cell_length_a   13.41529100
_cell_length_b   8.54842300
_cell_length_c   13.46958200
_cell_angle_alpha   90.00000000
_cell_angle_beta   90.98371000
_cell_angle_gamma   90.00000000
_symmetry_Int_Tables_number   1
_chemical_formula_structural   ZnH13C18NO6
_chemical_formula_sum   'Zn2 H26 C36 N2 O12'
_cell_volume   1544.45837440
_cell_formula_units_Z   2
loop_
 _symmetry_equiv_pos_site_id
 _symmetry_equiv_pos_as_xyz
  1  'x, y, z'
loop_
 _atom_site_type_symbol
 _atom_site_label
 _atom_site_symmetry_multiplicity
 _atom_site_fract_x
 _atom_site_fract_y
 _atom_site_fract_z
 _atom_site_occupancy
  Zn  Zn1  1  0.88911400  0.50231400  0.50503400  1
  Zn  Zn2  1  0.11088600  0.50231400  0.49496600  1
  H  H1  1  0.99421400  0.25234900  0.83718400  1
  H  H2  1  0.00573700  0.75227200  0.16279800  1
  H  H3  1  0.00578600  0.25234900  0.16281600  1
  H  H4  1  0.99426300  0.75227200  0.83720200  1
  H  H5  1  0.03716600  0.00229800  0.56961900  1
  H  H6  1  0.96283400  0.00229800  0.43038100  1
  H  H7  1  0.24843100  0.49214300  0.64752300  1
  H  H8  1  0.75156900  0.49214300  0.35247700  1
  H  H9  1  0.58678100  0.42525100  0.73820700  1
  H  H10  1  0.43007400  0.63156800  0.27814900  1
  H  H11  1  0.41321900  0.42525100  0.26179200  1
  H  H12  1  0.56992700  0.63156800  0.72185100  1
  H  H13  1  0.25207000  0.51278600  0.33654100  1
  H  H14  1  0.74793000  0.51278600  0.66345800  1
  H  H15  1  0.49800800  0.25070500  0.61539800  1
  H  H16  1  0.36493800  0.20579200  0.61780700  1
  H  H17  1  0.45022700  0.11902900  0.70529200  1
  H  H18  1  0.52584100  0.51991000  0.13656200  1
  H  H19  1  0.66194100  0.49774800  0.14009900  1
  H  H20  1  0.60516500  0.68276400  0.11416900  1
  H  H21  1  0.50199200  0.25070500  0.38460200  1
  H  H22  1  0.63506200  0.20579200  0.38219300  1
  H  H23  1  0.54977300  0.11902900  0.29470800  1
  H  H24  1  0.47415900  0.51991000  0.86343800  1
  H  H25  1  0.33806000  0.49774800  0.85990100  1
  H  H26  1  0.39483500  0.68276400  0.88583100  1
  C  C1  1  0.01085700  0.14201100  0.69598900  1
  C  C2  1  0.98911400  0.86259600  0.30399900  1
  C  C3  1  0.98914300  0.14201100  0.30401100  1
  C  C4  1  0.01088700  0.86259600  0.69600000  1
  C  C5  1  0.99975700  0.14281200  0.79755900  1
  C  C6  1  0.00021100  0.86180600  0.20242900  1
  C  C7  1  0.00024300  0.14281200  0.20244000  1
  C  C8  1  0.99978900  0.86180600  0.79757000  1
  C  C9  1  0.99916000  0.00231300  0.84873100  1
  C  C10  1  0.00084000  0.00231300  0.15126900  1
  C  C11  1  0.02288600  0.00230200  0.64761700  1
  C  C12  1  0.97711400  0.00230200  0.35238300  1
  C  C13  1  0.99926800  0.00232100  0.95526300  1
  C  C14  1  0.00073200  0.00232100  0.04473700  1
  C  C15  1  0.00683700  0.72048500  0.63582000  1
  C  C16  1  0.99317900  0.28411800  0.36419800  1
  C  C17  1  0.99316300  0.72048500  0.36418000  1
  C  C18  1  0.00682200  0.28411800  0.63580100  1
  C  C19  1  0.29217500  0.50795100  0.40677400  1
  C  C20  1  0.70782500  0.50795100  0.59322600  1
  C  C21  1  0.29030800  0.49690900  0.57976700  1
  C  C22  1  0.70969200  0.49690900  0.42023200  1
  C  C23  1  0.39301700  0.49797200  0.58495000  1
  C  C24  1  0.60698300  0.49797200  0.41505000  1
  C  C25  1  0.44611600  0.50294100  0.49836600  1
  C  C26  1  0.55388400  0.50294100  0.50163400  1
  C  C27  1  0.39516700  0.50728600  0.40853600  1
  C  C28  1  0.60483300  0.50728600  0.59146300  1
  C  C29  1  0.44072500  0.49188900  0.68601700  1
  C  C30  1  0.55927500  0.49188900  0.31398200  1
  C  C31  1  0.55364900  0.51550900  0.68852300  1
  C  C32  1  0.44635100  0.51550900  0.31147700  1
  C  C33  1  0.43334900  0.22761900  0.66320900  1
  C  C34  1  0.59797100  0.57423000  0.15857600  1
  C  C35  1  0.56665100  0.22761900  0.33679100  1
  C  C36  1  0.40202900  0.57423000  0.84142400  1
  N  N1  1  0.24149300  0.50234200  0.49183000  1
  N  N2  1  0.75850800  0.50234200  0.50817000  1
  O  O1  1  0.09002200  0.67137700  0.59676200  1
  O  O2  1  0.91000000  0.33310900  0.40333100  1
  O  O3  1  0.90997800  0.67137700  0.40323800  1
  O  O4  1  0.09000000  0.33310900  0.59666900  1
  O  O5  1  0.91876500  0.66577700  0.60940400  1
  O  O6  1  0.08124600  0.33895100  0.39052900  1
  O  O7  1  0.08123500  0.66577700  0.39059600  1
  O  O8  1  0.91875400  0.33895100  0.60947000  1
  O  O9  1  0.41722000  0.34871000  0.73131200  1
  O  O10  1  0.60122600  0.61467300  0.25945700  1
  O  O11  1  0.58278100  0.34871000  0.26868800  1
  O  O12  1  0.39877400  0.61467300  0.74054300  1
