# generated using pymatgen
data_CuH8C15NO4
_symmetry_space_group_name_H-M   'P 1'
_cell_length_a   6.63056800
_cell_length_b   9.51128100
_cell_length_c   19.58879600
_cell_angle_alpha   96.29927700
_cell_angle_beta   90.93652000
_cell_angle_gamma   103.90504800
_symmetry_Int_Tables_number   1
_chemical_formula_structural   CuH8C15NO4
_chemical_formula_sum   'Cu2 H16 C30 N2 O8'
_cell_volume   1190.76039434
_cell_formula_units_Z   2
loop_
 _symmetry_equiv_pos_site_id
 _symmetry_equiv_pos_as_xyz
  1  'x, y, z'
loop_
 _atom_site_type_symbol
 _atom_site_label
 _atom_site_symmetry_multiplicity
 _atom_site_fract_x
 _atom_site_fract_y
 _atom_site_fract_z
 _atom_site_occupancy
  Cu  Cu1  1  0.03706400  0.14174000  0.00636400  1
  Cu  Cu2  1  0.96073600  0.85391500  0.99384700  1
  H  H1  1  0.82520300  0.35804800  0.97008500  1
  H  H2  1  0.17247600  0.63761200  0.03018200  1
  H  H3  1  0.13434000  0.02592200  0.78420300  1
  H  H4  1  0.86471600  0.97008100  0.21697700  1
  H  H5  1  0.83267300  0.93945900  0.78085800  1
  H  H6  1  0.16922700  0.06454200  0.21975300  1
  H  H7  1  0.65776100  0.95428800  0.67341200  1
  H  H8  1  0.35368800  0.05969200  0.32808000  1
  H  H9  1  0.55697700  0.13432300  0.40490900  1
  H  H10  1  0.48352300  0.91246900  0.59074400  1
  H  H11  1  0.93262600  0.88386900  0.29831100  1
  H  H12  1  0.03119300  0.08566800  0.70249200  1
  H  H13  1  0.11700100  0.87782800  0.40516800  1
  H  H14  1  0.84375300  0.08538000  0.59663100  1
  H  H15  1  0.74482100  0.13429800  0.51167500  1
  H  H16  1  0.30499600  0.92284800  0.48469700  1
  C  C1  1  0.71140400  0.98288800  0.90598300  1
  C  C2  1  0.28623500  0.01329500  0.09438200  1
  C  C3  1  0.27193400  0.00316900  0.90602700  1
  C  C4  1  0.72557100  0.99222000  0.09406200  1
  C  C5  1  0.02557900  0.57783700  0.00480200  1
  C  C6  1  0.97211800  0.41782300  0.99545300  1
  C  C7  1  0.67913200  0.07698600  0.40487800  1
  C  C8  1  0.34535000  0.95326300  0.59301700  1
  C  C9  1  0.73182300  0.00896200  0.34434300  1
  C  C10  1  0.27199700  0.99849300  0.65522800  1
  C  C11  1  0.89162900  0.93939900  0.34517700  1
  C  C12  1  0.09189800  0.04746900  0.65519700  1
  C  C13  1  0.99684800  0.93666400  0.40614400  1
  C  C14  1  0.98595300  0.04947200  0.59427900  1
  C  C15  1  0.94587100  0.00586600  0.46700100  1
  C  C16  1  0.05929300  0.00418300  0.53207500  1
  C  C17  1  0.78637200  0.07652500  0.46571800  1
  C  C18  1  0.24077600  0.95690300  0.53207000  1
  C  C19  1  0.28966700  0.01041200  0.78247100  1
  C  C20  1  0.70954200  0.98719800  0.21773900  1
  C  C21  1  0.38992100  0.00217900  0.84370600  1
  C  C22  1  0.60804600  0.99354100  0.15644700  1
  C  C23  1  0.58655100  0.97671700  0.84316800  1
  C  C24  1  0.41192600  0.02042100  0.15714000  1
  C  C25  1  0.67845400  0.95814300  0.78137800  1
  C  C26  1  0.32304000  0.04473200  0.21912300  1
  C  C27  1  0.57815300  0.96628500  0.72039500  1
  C  C28  1  0.42697700  0.04173800  0.28016900  1
  C  C29  1  0.38233200  0.99284700  0.72036500  1
  C  C30  1  0.62003900  0.01146200  0.27965000  1
  N  N1  1  0.89847500  0.64678900  0.98293500  1
  N  N2  1  0.09927200  0.34887300  0.01728900  1
  O  O1  1  0.81542000  0.11101800  0.93549200  1
  O  O2  1  0.18288100  0.88496300  0.06479800  1
  O  O3  1  0.75442300  0.86293600  0.92266800  1
  O  O4  1  0.24276200  0.13299700  0.07763500  1
  O  O5  1  0.23264300  0.12561000  0.93347400  1
  O  O6  1  0.76530800  0.86985100  0.06677100  1
  O  O7  1  0.17178600  0.87771500  0.92479300  1
  O  O8  1  0.82557900  0.11768900  0.07525300  1
