# generated using pymatgen
data_ZnH15C19N3O4
_symmetry_space_group_name_H-M   'P 1'
_cell_length_a   13.40110600
_cell_length_b   8.54788500
_cell_length_c   14.97395100
_cell_angle_alpha   90.00000000
_cell_angle_beta   90.99545400
_cell_angle_gamma   90.00000000
_symmetry_Int_Tables_number   1
_chemical_formula_structural   ZnH15C19N3O4
_chemical_formula_sum   'Zn2 H30 C38 N6 O8'
_cell_volume   1715.02387639
_cell_formula_units_Z   2
loop_
 _symmetry_equiv_pos_site_id
 _symmetry_equiv_pos_as_xyz
  1  'x, y, z'
loop_
 _atom_site_type_symbol
 _atom_site_label
 _atom_site_symmetry_multiplicity
 _atom_site_fract_x
 _atom_site_fract_y
 _atom_site_fract_z
 _atom_site_occupancy
  Zn  Zn1  1  0.88144300  0.51692700  0.51036400  1
  Zn  Zn2  1  0.10301600  0.51786600  0.49255000  1
  H  H1  1  0.03576900  0.01750100  0.56224000  1
  H  H2  1  0.99364100  0.26856100  0.80246100  1
  H  H3  1  0.99079300  0.76668500  0.80215700  1
  H  H4  1  0.99770900  0.26805500  0.20090700  1
  H  H5  1  0.99600300  0.76624600  0.20062700  1
  H  H6  1  0.94640500  0.01716300  0.43979700  1
  H  H7  1  0.23424800  0.51521500  0.62565300  1
  H  H8  1  0.74943000  0.50969500  0.38037200  1
  H  H9  1  0.40753400  0.51439100  0.27887400  1
  H  H10  1  0.40842500  0.51145100  0.64261400  1
  H  H11  1  0.55614900  0.56256300  0.64844600  1
  H  H12  1  0.25205500  0.51804000  0.34609800  1
  H  H13  1  0.72131000  0.64119000  0.71827100  1
  H  H14  1  0.82175100  0.51712300  0.68885800  1
  H  H15  1  0.61697200  0.40503000  0.74998900  1
  H  H16  1  0.80591000  0.21665200  0.71107600  1
  H  H17  1  0.69830600  0.22783200  0.63624900  1
  H  H18  1  0.68661400  0.14476600  0.74607200  1
  H  H19  1  0.82543600  0.40049900  0.83701500  1
  H  H20  1  0.71345200  0.31324400  0.88069800  1
  H  H21  1  0.72166000  0.52292000  0.86830200  1
  H  H22  1  0.65951300  0.39821900  0.26608500  1
  H  H23  1  0.66541700  0.60926000  0.26276500  1
  H  H24  1  0.49597500  0.41975600  0.17463900  1
  H  H25  1  0.57896700  0.74698600  0.13321600  1
  H  H26  1  0.48258500  0.72309000  0.21382500  1
  H  H27  1  0.46055600  0.66346500  0.09924900  1
  H  H28  1  0.69435300  0.53597500  0.10253500  1
  H  H29  1  0.58825000  0.47369800  0.03503900  1
  H  H30  1  0.64967400  0.33669500  0.10942000  1
  C  C1  1  0.01228400  0.15698400  0.67687400  1
  C  C2  1  0.01104300  0.87819800  0.67673700  1
  C  C3  1  0.99990700  0.15796900  0.76808500  1
  C  C4  1  0.99829900  0.87722100  0.76790900  1
  C  C5  1  0.99747900  0.01754700  0.81447500  1
  C  C6  1  0.02363100  0.01752500  0.63301600  1
  C  C7  1  0.99565500  0.01728500  0.09084500  1
  C  C8  1  0.99443500  0.01747600  0.91223700  1
  C  C9  1  0.98936300  0.15756800  0.23504000  1
  C  C10  1  0.98828100  0.87675300  0.23486500  1
  C  C11  1  0.97425900  0.15679100  0.32588900  1
  C  C12  1  0.97308800  0.87746500  0.32569400  1
  C  C13  1  0.96032400  0.01717500  0.36930600  1
  C  C14  1  0.99135400  0.01721100  0.18854900  1
  C  C15  1  0.00476000  0.73637000  0.62277500  1
  C  C16  1  0.00589700  0.29888000  0.62296200  1
  C  C17  1  0.97918600  0.73512600  0.37955200  1
  C  C18  1  0.98027900  0.29906300  0.37983100  1
  C  C19  1  0.28883700  0.51928800  0.41092200  1
  C  C20  1  0.27836400  0.51777300  0.56603100  1
  C  C21  1  0.38015400  0.51875400  0.57525000  1
  C  C22  1  0.43953200  0.52333200  0.50048300  1
  C  C23  1  0.39251100  0.52036000  0.41776400  1
  C  C24  1  0.59384200  0.53757500  0.58768000  1
  C  C25  1  0.54364700  0.52566700  0.50639400  1
  C  C26  1  0.59968300  0.51711100  0.42997200  1
  C  C27  1  0.55207900  0.51416600  0.34609000  1
  C  C28  1  0.44827000  0.51678300  0.34137900  1
  C  C29  1  0.69600100  0.52470800  0.59434700  1
  C  C30  1  0.70356800  0.51406700  0.43849300  1
  C  C31  1  0.74051400  0.52756900  0.68719700  1
  C  C32  1  0.69900400  0.39601600  0.74493900  1
  C  C33  1  0.72436000  0.23663100  0.70672800  1
  C  C34  1  0.74293800  0.40900900  0.83872600  1
  C  C35  1  0.61448300  0.50700600  0.26315000  1
  C  C36  1  0.55683300  0.50734900  0.17451600  1
  C  C37  1  0.51690200  0.67029100  0.15423900  1
  C  C38  1  0.62697800  0.46061000  0.10066600  1
  N  N1  1  0.99431400  0.88136600  0.95733800  1
  N  N2  1  0.99563700  0.15348200  0.95745300  1
  N  N3  1  0.99453000  0.88128000  0.04562700  1
  N  N4  1  0.99584900  0.15339500  0.04574300  1
  N  N5  1  0.23349000  0.51887400  0.48514100  1
  N  N6  1  0.75076900  0.51604200  0.51907900  1
  O  O1  1  0.08610900  0.68713500  0.58469900  1
  O  O2  1  0.08710400  0.34849700  0.58481100  1
  O  O3  1  0.91592700  0.68149200  0.60235100  1
  O  O4  1  0.91695000  0.35311400  0.60243900  1
  O  O5  1  0.89733400  0.68530800  0.41743000  1
  O  O6  1  0.89834800  0.34815400  0.41782800  1
  O  O7  1  0.06858000  0.68055200  0.39967900  1
  O  O8  1  0.06953200  0.35458000  0.39973500  1
