# generated using pymatgen
data_Zn2H19C31(NO3)3
_symmetry_space_group_name_H-M   'P 1'
_cell_length_a   8.52477900
_cell_length_b   10.69354400
_cell_length_c   14.24854800
_cell_angle_alpha   97.80640100
_cell_angle_beta   90.10272700
_cell_angle_gamma   90.00840500
_symmetry_Int_Tables_number   1
_chemical_formula_structural   Zn2H19C31(NO3)3
_chemical_formula_sum   'Zn2 H19 C31 N3 O9'
_cell_volume   1286.85955967
_cell_formula_units_Z   1
loop_
 _symmetry_equiv_pos_site_id
 _symmetry_equiv_pos_as_xyz
  1  'x, y, z'
loop_
 _atom_site_type_symbol
 _atom_site_label
 _atom_site_symmetry_multiplicity
 _atom_site_fract_x
 _atom_site_fract_y
 _atom_site_fract_z
 _atom_site_occupancy
  Zn  Zn1  1  0.50019600  0.49542900  0.10708100  1
  Zn  Zn2  1  0.49939500  0.50858400  0.89896400  1
  H  H1  1  0.99677300  0.59419600  0.06009900  1
  H  H2  1  0.99569300  0.40905300  0.94569500  1
  H  H3  1  0.25498300  0.90563900  0.99695400  1
  H  H4  1  0.25474700  0.09866400  0.01000800  1
  H  H5  1  0.61086900  0.10550200  0.98818000  1
  H  H6  1  0.71894100  0.60793200  0.59097200  1
  H  H7  1  0.72361600  0.59111600  0.43266400  1
  H  H8  1  0.50399700  0.29276400  0.40868800  1
  H  H9  1  0.69492700  0.36634800  0.41664000  1
  H  H10  1  0.68840400  0.37274800  0.57535100  1
  H  H11  1  0.49422500  0.30448000  0.56784400  1
  H  H12  1  0.27203700  0.41732700  0.42314400  1
  H  H13  1  0.28278000  0.61221200  0.58857700  1
  H  H14  1  0.55943000  0.69543400  0.43417000  1
  H  H15  1  0.54705900  0.70707700  0.59508600  1
  H  H16  1  0.25959000  0.44404400  0.58027500  1
  H  H17  1  0.33262500  0.78334100  0.50197800  1
  H  H18  1  0.13257500  0.89604100  0.39841000  1
  H  H19  1  0.99721600  0.71571300  0.28127400  1
  C  C1  1  0.99845900  0.69222800  0.04937100  1
  C  C2  1  0.13882500  0.74945400  0.03542900  1
  C  C3  1  0.14193100  0.87056800  0.01397400  1
  C  C4  1  0.85985700  0.75289400  0.03611600  1
  C  C5  1  0.86168200  0.87754800  0.01907200  1
  C  C6  1  0.00360800  0.93890600  0.01108200  1
  C  C7  1  0.00345800  0.06477300  0.99527900  1
  C  C8  1  0.14161600  0.13343800  0.99265900  1
  C  C9  1  0.13829600  0.25432900  0.97080200  1
  C  C10  1  0.72275800  0.06018000  0.99510700  1
  C  C11  1  0.86116300  0.12528800  0.98677200  1
  C  C12  1  0.85895900  0.25029200  0.96970500  1
  C  C13  1  0.99762700  0.31107000  0.95654900  1
  C  C14  1  0.27997000  0.67256900  0.02553900  1
  C  C15  1  0.27956500  0.33146600  0.98055400  1
  C  C16  1  0.71771800  0.32872000  0.98009400  1
  C  C17  1  0.71781800  0.67544100  0.02593300  1
  C  C18  1  0.60083700  0.60641500  0.45714700  1
  C  C19  1  0.57174100  0.37601600  0.44144900  1
  C  C20  1  0.56756500  0.38263200  0.54836300  1
  C  C21  1  0.50105700  0.49574900  0.41386900  1
  C  C22  1  0.59756300  0.61518300  0.56410500  1
  C  C23  1  0.49918400  0.50827100  0.59217500  1
  C  C24  1  0.33248500  0.52027900  0.55738500  1
  C  C25  1  0.33306800  0.50663500  0.45005100  1
  C  C26  1  0.49905200  0.51418100  0.69535000  1
  C  C27  1  0.50124500  0.48982400  0.31069200  1
  C  C28  1  0.24552600  0.61103700  0.41325800  1
  C  C29  1  0.25905600  0.73787700  0.44561500  1
  C  C30  1  0.15598000  0.79598400  0.39314200  1
  C  C31  1  0.08633900  0.70106200  0.33272600  1
  N  N1  1  0.72547200  0.93861200  0.01034300  1
  N  N2  1  0.49899800  0.51688400  0.77679700  1
  N  N3  1  0.50122400  0.48711700  0.22924500  1
  O  O1  1  0.33062200  0.63627400  0.93930000  1
  O  O2  1  0.33535700  0.62908200  0.10076600  1
  O  O3  1  0.33114700  0.36771000  0.06672500  1
  O  O4  1  0.33444000  0.37498700  0.90529000  1
  O  O5  1  0.66857500  0.36732700  0.06638800  1
  O  O6  1  0.66350900  0.37427100  0.90540400  1
  O  O7  1  0.66800300  0.63674700  0.93967100  1
  O  O8  1  0.66436300  0.62971500  0.10064300  1
  O  O9  1  0.13988000  0.58808400  0.34479700  1
