# generated using pymatgen
data_FeH7C20NO8
_symmetry_space_group_name_H-M   'P 1'
_cell_length_a   15.92248500
_cell_length_b   11.79205400
_cell_length_c   13.81375100
_cell_angle_alpha   88.78944100
_cell_angle_beta   97.50271900
_cell_angle_gamma   95.73179100
_symmetry_Int_Tables_number   1
_chemical_formula_structural   FeH7C20NO8
_chemical_formula_sum   'Fe2 H14 C40 N2 O16'
_cell_volume   2558.50581552
_cell_formula_units_Z   2
loop_
 _symmetry_equiv_pos_site_id
 _symmetry_equiv_pos_as_xyz
  1  'x, y, z'
loop_
 _atom_site_type_symbol
 _atom_site_label
 _atom_site_symmetry_multiplicity
 _atom_site_fract_x
 _atom_site_fract_y
 _atom_site_fract_z
 _atom_site_occupancy
  Fe  Fe1  1  0.50816800  0.01433200  0.78439000  1
  Fe  Fe2  1  0.50687000  0.98910400  0.21603100  1
  H  H1  1  0.23772100  0.98980000  0.77762800  1
  H  H2  1  0.09154700  0.97737900  0.81574000  1
  H  H3  1  0.18148800  0.00652000  0.11786100  1
  H  H4  1  0.82941200  0.97505600  0.87998500  1
  H  H5  1  0.77799600  0.00100400  0.22134300  1
  H  H6  1  0.92321100  0.00681200  0.18117600  1
  H  H7  1  0.53731100  0.55991200  0.72928800  1
  H  H8  1  0.47440800  0.38157500  0.73351700  1
  H  H9  1  0.61198300  0.55480100  0.35938400  1
  H  H10  1  0.53025100  0.41413200  0.26468300  1
  H  H11  1  0.51700100  0.88819600  0.50474600  1
  H  H12  1  0.47152300  0.11078000  0.49045700  1
  H  H13  1  0.42537900  0.58189600  0.71460100  1
  H  H14  1  0.53818500  0.61870900  0.26978400  1
  C  C1  1  0.22634100  0.99209800  0.85297900  1
  C  C2  1  0.14405700  0.98596800  0.87403800  1
  C  C3  1  0.12868900  0.99348400  0.96906400  1
  C  C4  1  0.19568700  0.00363000  0.04363900  1
  C  C5  1  0.27927500  0.00938300  0.02369900  1
  C  C6  1  0.29419000  0.00655500  0.92629500  1
  C  C7  1  0.04250200  0.99095500  0.98982100  1
  C  C8  1  0.97000700  0.98961500  0.00662700  1
  C  C9  1  0.81644000  0.97928700  0.95459800  1
  C  C10  1  0.73353000  0.97831300  0.97584400  1
  C  C11  1  0.71981700  0.98385800  0.07322500  1
  C  C12  1  0.78835600  0.99659700  0.14578200  1
  C  C13  1  0.87009900  0.99875300  0.12358600  1
  C  C14  1  0.88419400  0.98855800  0.02833600  1
  C  C15  1  0.45981900  0.17901100  0.65818600  1
  C  C16  1  0.37910500  0.02373300  0.89562400  1
  C  C17  1  0.66356800  0.97878100  0.89437400  1
  C  C18  1  0.50000500  0.80799500  0.67908700  1
  C  C19  1  0.48549200  0.19212600  0.31646700  1
  C  C20  1  0.34831100  0.01028500  0.10665700  1
  C  C21  1  0.63502000  0.97126300  0.10419400  1
  C  C22  1  0.54029500  0.81735600  0.34127500  1
  C  C23  1  0.51107300  0.79626000  0.50665500  1
  C  C24  1  0.49855600  0.73666300  0.59126600  1
  C  C25  1  0.48718200  0.61708600  0.58788200  1
  C  C26  1  0.47667100  0.54988600  0.67924000  1
  C  C27  1  0.44834800  0.42448000  0.66569200  1
  C  C28  1  0.51916000  0.74273700  0.42221100  1
  C  C29  1  0.51304800  0.62516300  0.41945100  1
  C  C30  1  0.49376500  0.56190300  0.50088200  1
  C  C31  1  0.48746400  0.43672300  0.49587900  1
  C  C32  1  0.47561700  0.37246300  0.57910600  1
  C  C33  1  0.47195800  0.25503000  0.57509700  1
  C  C34  1  0.54396800  0.56769300  0.33807700  1
  C  C35  1  0.49485700  0.45350600  0.31647500  1
  C  C36  1  0.49039300  0.38252300  0.40707300  1
  C  C37  1  0.48335800  0.26301400  0.40353700  1
  C  C38  1  0.47633700  0.20267900  0.48901300  1
  C  C39  1  0.35528300  0.40889000  0.65723800  1
  C  C40  1  0.40873700  0.46964100  0.27011300  1
  N  N1  1  0.28174500  0.39658300  0.65046600  1
  N  N2  1  0.34069400  0.48236100  0.23345400  1
  O  O1  1  0.52416300  0.16870500  0.72666500  1
  O  O2  1  0.42803600  0.11808900  0.91870400  1
  O  O3  1  0.39848200  0.09555100  0.64646000  1
  O  O4  1  0.40000600  0.95455700  0.83149700  1
  O  O5  1  0.58966600  0.01222600  0.90801100  1
  O  O6  1  0.67755500  0.95574000  0.80571500  1
  O  O7  1  0.52287200  0.91766800  0.67112800  1
  O  O8  1  0.47737700  0.76733300  0.76189400  1
  O  O9  1  0.49761300  0.08438400  0.33216900  1
  O  O10  1  0.47073700  0.23003600  0.22652100  1
  O  O11  1  0.42752100  0.00387300  0.09194600  1
  O  O12  1  0.32961500  0.00787600  0.19646800  1
  O  O13  1  0.60520800  0.89520600  0.35815300  1
  O  O14  1  0.61809800  0.03886200  0.17173500  1
  O  O15  1  0.48057200  0.83413700  0.26884100  1
  O  O16  1  0.58079900  0.88352200  0.07535600  1
