# generated using pymatgen
data_Zn3H26(C8O3)4
_symmetry_space_group_name_H-M   'P 1'
_cell_length_a   22.09880700
_cell_length_b   22.10993400
_cell_length_c   22.35570000
_cell_angle_alpha   60.38142100
_cell_angle_beta   119.58786400
_cell_angle_gamma   89.96011200
_symmetry_Int_Tables_number   1
_chemical_formula_structural   Zn3H26(C8O3)4
_chemical_formula_sum   'Zn6 H52 C64 O24'
_cell_volume   7812.90129197
_cell_formula_units_Z   2
loop_
 _symmetry_equiv_pos_site_id
 _symmetry_equiv_pos_as_xyz
  1  'x, y, z'
loop_
 _atom_site_type_symbol
 _atom_site_label
 _atom_site_symmetry_multiplicity
 _atom_site_fract_x
 _atom_site_fract_y
 _atom_site_fract_z
 _atom_site_occupancy
  Zn  Zn1  1  0.48735000  0.45631600  0.48462500  1
  Zn  Zn2  1  0.49154400  0.59367700  0.48374800  1
  Zn  Zn3  1  0.05692300  0.01162300  0.48166200  1
  Zn  Zn4  1  0.92304900  0.00157700  0.48747400  1
  Zn  Zn5  1  0.94019800  0.55091400  0.38782500  1
  Zn  Zn6  1  0.03728500  0.46409600  0.57677800  1
  H  H1  1  0.35589500  0.79448300  0.03718500  1
  H  H2  1  0.30749100  0.73747800  0.93873500  1
  H  H3  1  0.21408600  0.89948300  0.92640800  1
  H  H4  1  0.17352900  0.80046500  0.02993500  1
  H  H5  1  0.12516300  0.74345300  0.93153500  1
  H  H6  1  0.26692600  0.63848400  0.04225800  1
  H  H7  1  0.73624900  0.53782900  0.36368100  1
  H  H8  1  0.81624000  0.47092900  0.55069700  1
  H  H9  1  0.70918400  0.54146400  0.50836300  1
  H  H10  1  0.66933000  0.19124700  0.03256500  1
  H  H11  1  0.76959000  0.33610700  0.04593000  1
  H  H12  1  0.84840900  0.18512000  0.03284400  1
  H  H13  1  0.70317300  0.19552200  0.92404500  1
  H  H14  1  0.23865400  0.41807100  0.59076500  1
  H  H15  1  0.16123600  0.55980200  0.41538600  1
  H  H16  1  0.33566600  0.41313700  0.56128500  1
  H  H17  1  0.27688700  0.57918100  0.47284300  1
  H  H18  1  0.99115800  0.65154000  0.58340000  1
  H  H19  1  0.95783700  0.75037300  0.40811900  1
  H  H20  1  0.95369800  0.77717100  0.55398300  1
  H  H21  1  0.03440000  0.80869000  0.46862400  1
  H  H22  1  0.98636100  0.36274900  0.38160600  1
  H  H23  1  0.02000100  0.26477100  0.55712700  1
  H  H24  1  0.02408100  0.23669100  0.41208300  1
  H  H25  1  0.94510000  0.20508800  0.49938000  1
  H  H26  1  0.61881600  0.41639900  0.91287200  1
  H  H27  1  0.61161300  0.34210600  0.99116100  1
  H  H28  1  0.53469400  0.39175500  0.80803200  1
  H  H29  1  0.53503200  0.26881400  0.95599100  1
  H  H30  1  0.55267700  0.26252800  0.88760600  1
  H  H31  1  0.46170700  0.30819000  0.84822000  1
  H  H32  1  0.47503000  0.40335100  0.90106500  1
  H  H33  1  0.42306100  0.43532700  0.79225400  1
  H  H34  1  0.48881000  0.47780600  0.82866800  1
  H  H35  1  0.81749800  0.34179800  0.88630000  1
  H  H36  1  0.87617500  0.32690100  0.98687800  1
  H  H37  1  0.73031600  0.44267500  0.87759200  1
  H  H38  1  0.88980300  0.44322200  0.96453200  1
  H  H39  1  0.84074600  0.41401900  0.01361500  1
  H  H40  1  0.80876000  0.50795600  0.92632400  1
  H  H41  1  0.83881600  0.46291400  0.82669400  1
  H  H42  1  0.76308800  0.53551000  0.78655300  1
  H  H43  1  0.74489000  0.46554400  0.76682000  1
  H  H44  1  0.60346200  0.55122800  0.29537500  1
  H  H45  1  0.56265700  0.51462700  0.35109500  1
  H  H46  1  0.69115000  0.42428700  0.37825400  1
  H  H47  1  0.59251400  0.37700600  0.44188400  1
  H  H48  1  0.68840200  0.36788600  0.50492500  1
  H  H49  1  0.66282800  0.31745000  0.45802800  1
  H  H50  1  0.52623000  0.44359300  0.28653300  1
  H  H51  1  0.59650300  0.38013200  0.30649400  1
  H  H52  1  0.57623300  0.47786800  0.23926500  1
  C  C1  1  0.60402300  0.52329500  0.47690400  1
  C  C2  1  0.40395700  0.60766900  0.32075500  1
  C  C3  1  0.37451600  0.52717200  0.49060800  1
  C  C4  1  0.57487700  0.44223400  0.64756100  1
  C  C5  1  0.27772700  0.75116300  0.96066800  1
  C  C6  1  0.30297000  0.78349800  0.01193600  1
  C  C7  1  0.35932800  0.65171000  0.23102700  1
  C  C8  1  0.12002600  0.88499600  0.73768100  1
  C  C9  1  0.25436100  0.69826800  0.01470200  1
  C  C10  1  0.27880200  0.73136700  0.06433100  1
  C  C11  1  0.17808600  0.75444100  0.95678100  1
  C  C12  1  0.20222100  0.80658100  0.90435200  1
  C  C13  1  0.20329700  0.78678600  0.00800200  1
  C  C14  1  0.22665400  0.83969900  0.95396200  1
  C  C15  1  0.32267800  0.68800000  0.15571300  1
  C  C16  1  0.15774200  0.84951000  0.81297300  1
  C  C17  1  0.74193400  0.51883100  0.42166900  1
  C  C18  1  0.80843200  0.49600000  0.49067700  1
  C  C19  1  0.67584800  0.51332700  0.42255200  1
  C  C20  1  0.66842200  0.52436800  0.47297400  1
  C  C21  1  0.69885500  0.22603200  0.00927500  1
  C  C22  1  0.67690000  0.30929000  0.95938000  1
  C  C23  1  0.61879700  0.39736200  0.73721600  1
  C  C24  1  0.85975100  0.13241600  0.23149300  1
  C  C25  1  0.71887800  0.22703800  0.95244700  1
  C  C26  1  0.69708500  0.31013100  0.90376000  1
  C  C27  1  0.79709300  0.22201400  0.01010100  1
  C  C28  1  0.77623000  0.22214100  0.06499100  1
  C  C29  1  0.77413900  0.30512100  0.96092500  1
  C  C30  1  0.75469400  0.30485400  0.01722600  1
  C  C31  1  0.65449600  0.35844600  0.81246400  1
  C  C32  1  0.82159600  0.17254000  0.15624900  1
  C  C33  1  0.23367300  0.46510900  0.53691400  1
  C  C34  1  0.16862900  0.51736200  0.47332100  1
  C  C35  1  0.29700300  0.46534800  0.53090400  1
  C  C36  1  0.31055800  0.52770000  0.49488100  1
  C  C37  1  0.99950300  0.88660500  0.48838900  1
  C  C38  1  0.07349900  0.92753400  0.64803100  1
  C  C39  1  0.98035400  0.12662600  0.48053900  1
  C  C40  1  0.90644300  0.08597200  0.32112600  1
  C  C41  1  0.97843800  0.63102000  0.47129500  1
  C  C42  1  0.87342600  0.50016500  0.48822800  1
  C  C43  1  0.99908600  0.38402900  0.49336200  1
  C  C44  1  0.10395700  0.51438700  0.47629600  1
  C  C45  1  0.98346700  0.70092400  0.52933500  1
  C  C46  1  0.97360700  0.69970700  0.46609800  1
  C  C47  1  0.97652100  0.76986900  0.52391200  1
  C  C48  1  0.00417900  0.81950100  0.49036600  1
  C  C49  1  0.99427000  0.31355500  0.43598400  1
  C  C50  1  0.00403300  0.31524500  0.49889600  1
  C  C51  1  0.00165200  0.24419900  0.44237600  1
  C  C52  1  0.97508500  0.19420300  0.47745300  1
  C  C53  1  0.61126400  0.36162100  0.93474500  1
  C  C54  1  0.53677000  0.37000700  0.86565000  1
  C  C55  1  0.52093100  0.29758200  0.89150800  1
  C  C56  1  0.47710700  0.42508300  0.84577400  1
  C  C57  1  0.81836300  0.34893200  0.93240700  1
  C  C58  1  0.78669500  0.43017700  0.89306200  1
  C  C59  1  0.83469900  0.44994300  0.95337000  1
  C  C60  1  0.78329400  0.47639800  0.81319200  1
  C  C61  1  0.61489800  0.50673800  0.35650800  1
  C  C62  1  0.63794100  0.43314700  0.37104100  1
  C  C63  1  0.64584400  0.37011700  0.44897800  1
  C  C64  1  0.58041600  0.43376300  0.29599700  1
  O  O1  1  0.57684300  0.46953600  0.48186700  1
  O  O2  1  0.57785400  0.57577900  0.47795900  1
  O  O3  1  0.42382200  0.53592400  0.36024400  1
  O  O4  1  0.42444100  0.64107500  0.35893200  1
  O  O5  1  0.40173500  0.47347200  0.49178100  1
  O  O6  1  0.40159500  0.58094000  0.48559300  1
  O  O7  1  0.55511800  0.40896700  0.60931800  1
  O  O8  1  0.55435900  0.51401900  0.60818700  1
  O  O9  1  0.04722200  0.92012000  0.48246800  1
  O  O10  1  0.94778700  0.91051500  0.49198100  1
  O  O11  1  0.10412600  0.94885000  0.60665300  1
  O  O12  1  0.00224200  0.94381700  0.61174500  1
  O  O13  1  0.03214600  0.10274700  0.47702100  1
  O  O14  1  0.93273300  0.09302600  0.48668300  1
  O  O15  1  0.97771000  0.06948300  0.35738600  1
  O  O16  1  0.87580700  0.06455800  0.36248500  1
  O  O17  1  0.94520900  0.63537800  0.40117500  1
  O  O18  1  0.01622600  0.56842500  0.54540000  1
  O  O19  1  0.86449800  0.53611700  0.41542000  1
  O  O20  1  0.93808900  0.46724700  0.55968000  1
  O  O21  1  0.96187900  0.44662600  0.41917400  1
  O  O22  1  0.03165600  0.37961900  0.56346900  1
  O  O23  1  0.03929200  0.54848100  0.40486100  1
  O  O24  1  0.11307300  0.47808500  0.54925500  1
