# generated using pymatgen
data_CuH7C15NO5
_symmetry_space_group_name_H-M   'P 1'
_cell_length_a   13.99879600
_cell_length_b   14.61781000
_cell_length_c   16.04159800
_cell_angle_alpha   90.00909200
_cell_angle_beta   89.98288000
_cell_angle_gamma   85.28863100
_symmetry_Int_Tables_number   1
_chemical_formula_structural   CuH7C15NO5
_chemical_formula_sum   'Cu2 H14 C30 N2 O10'
_cell_volume   3271.52829487
_cell_formula_units_Z   2
loop_
 _symmetry_equiv_pos_site_id
 _symmetry_equiv_pos_as_xyz
  1  'x, y, z'
loop_
 _atom_site_type_symbol
 _atom_site_label
 _atom_site_symmetry_multiplicity
 _atom_site_fract_x
 _atom_site_fract_y
 _atom_site_fract_z
 _atom_site_occupancy
  Cu  Cu1  1  0.50015800  0.40843900  0.49975700  1
  Cu  Cu2  1  0.50005300  0.59154300  0.49994400  1
  H  H1  1  0.01524800  0.39522900  0.49929200  1
  H  H2  1  0.98496300  0.60475300  0.50041400  1
  H  H3  1  0.44668300  0.36792600  0.07692800  1
  H  H4  1  0.55351900  0.63206300  0.92277200  1
  H  H5  1  0.39233800  0.92427000  0.40583500  1
  H  H6  1  0.60786800  0.07571200  0.59386900  1
  H  H7  1  0.39231300  0.09256800  0.40580600  1
  H  H8  1  0.60789300  0.90741500  0.59389800  1
  H  H9  1  0.58647100  0.31860800  0.92270600  1
  H  H10  1  0.52119400  0.24854200  0.85413000  1
  H  H11  1  0.51021700  0.23611700  0.96592000  1
  H  H12  1  0.47900100  0.75144300  0.14557300  1
  H  H13  1  0.41372900  0.68138100  0.07699000  1
  H  H14  1  0.48998200  0.76387600  0.03378400  1
  C  C1  1  0.50021500  0.50017900  0.65982900  1
  C  C2  1  0.49999600  0.49980400  0.33987200  1
  C  C3  1  0.68405100  0.48524100  0.49976500  1
  C  C4  1  0.31616000  0.51474100  0.49993600  1
  C  C5  1  0.21331300  0.52274800  0.49997800  1
  C  C6  1  0.78689900  0.47723400  0.49972500  1
  C  C7  1  0.02387900  0.53750800  0.50005500  1
  C  C8  1  0.97633200  0.46247300  0.49965100  1
  C  C9  1  0.87326600  0.47049900  0.49969100  1
  C  C10  1  0.12694500  0.52948200  0.50001300  1
  C  C11  1  0.47032200  0.42582000  0.04296000  1
  C  C12  1  0.52988000  0.57417000  0.95674100  1
  C  C13  1  0.49976100  0.50026400  0.08584000  1
  C  C14  1  0.50044100  0.49972500  0.91386100  1
  C  C15  1  0.52888300  0.57488200  0.04277900  1
  C  C16  1  0.47131800  0.42510900  0.95692100  1
  C  C17  1  0.49987000  0.50007500  0.17531300  1
  C  C18  1  0.50033600  0.49991200  0.82438800  1
  C  C19  1  0.50028000  0.50004400  0.74927400  1
  C  C20  1  0.49992900  0.49994000  0.25042600  1
  C  C21  1  0.43967700  0.05188100  0.44713100  1
  C  C22  1  0.56052900  0.94810100  0.55257300  1
  C  C23  1  0.50008800  0.09431900  0.49983700  1
  C  C24  1  0.50011800  0.90566400  0.49986700  1
  C  C25  1  0.56051400  0.04243200  0.55255700  1
  C  C26  1  0.43969200  0.95755000  0.44714700  1
  C  C27  1  0.50008400  0.19247800  0.49981400  1
  C  C28  1  0.50012500  0.80750400  0.49988700  1
  C  C29  1  0.51854500  0.28558000  0.91452400  1
  C  C30  1  0.48165400  0.71441000  0.08517700  1
  N  N1  1  0.50012100  0.72835700  0.49990500  1
  N  N2  1  0.50009100  0.27162500  0.49979600  1
  O  O1  1  0.50358700  0.42126700  0.62088100  1
  O  O2  1  0.49662400  0.57871500  0.37881900  1
  O  O3  1  0.49673600  0.57919700  0.62110400  1
  O  O4  1  0.50347500  0.42078500  0.37859600  1
  O  O5  1  0.63947400  0.41002200  0.49674300  1
  O  O6  1  0.36073700  0.58996000  0.50295800  1
  O  O7  1  0.63931900  0.56742300  0.50278100  1
  O  O8  1  0.36089200  0.43255900  0.49692000  1
  O  O9  1  0.44073300  0.35183700  0.91437800  1
  O  O10  1  0.55946600  0.64815500  0.08532300  1
