# generated using pymatgen
data_Zn2H11C31N3(ClO4)2
_symmetry_space_group_name_H-M   'P 1'
_cell_length_a   12.36929300
_cell_length_b   13.33626300
_cell_length_c   6.55977500
_cell_angle_alpha   90.00000000
_cell_angle_beta   80.12940800
_cell_angle_gamma   90.00000000
_symmetry_Int_Tables_number   1
_chemical_formula_structural   Zn2H11C31N3(ClO4)2
_chemical_formula_sum   'Zn2 H11 C31 N3 Cl2 O8'
_cell_volume   1066.08356296
_cell_formula_units_Z   1
loop_
 _symmetry_equiv_pos_site_id
 _symmetry_equiv_pos_as_xyz
  1  'x, y, z'
loop_
 _atom_site_type_symbol
 _atom_site_label
 _atom_site_symmetry_multiplicity
 _atom_site_fract_x
 _atom_site_fract_y
 _atom_site_fract_z
 _atom_site_occupancy
  Zn  Zn1  1  0.49792900  0.11115200  0.48154100  1
  Zn  Zn2  1  0.50156500  0.88664500  0.50951500  1
  H  H1  1  0.15108800  0.94170000  0.46945500  1
  H  H2  1  0.21953900  0.04999300  0.59855100  1
  H  H3  1  0.85607900  0.04299800  0.51998900  1
  H  H4  1  0.97803600  0.94871500  0.34937700  1
  H  H5  1  0.84524100  0.97333800  0.25639800  1
  H  H6  1  0.67496100  0.74541100  0.44806900  1
  H  H7  1  0.66942700  0.25015200  0.40209800  1
  H  H8  1  0.22881600  0.59305600  0.61804200  1
  H  H9  1  0.22659600  0.40867900  0.59665200  1
  H  H10  1  0.77084000  0.40478200  0.37358900  1
  H  H11  1  0.77304800  0.58915900  0.39506000  1
  C  C1  1  0.24622200  0.98397400  0.18044400  1
  C  C2  1  0.14966400  0.96212200  0.31070500  1
  C  C3  1  0.05108900  0.96688800  0.24153400  1
  C  C4  1  0.24485000  0.00597100  0.97524400  1
  C  C5  1  0.14537700  0.01239600  0.90660600  1
  C  C6  1  0.04820800  0.99404000  0.03923100  1
  C  C7  1  0.95012700  0.00023700  0.96466400  1
  C  C8  1  0.85056900  0.98574000  0.09301200  1
  C  C9  1  0.75360600  0.99222300  0.01775400  1
  C  C10  1  0.14341300  0.03532600  0.70247000  1
  C  C11  1  0.95148800  0.02295700  0.75908900  1
  C  C12  1  0.85425200  0.02793600  0.68250600  1
  C  C13  1  0.75486700  0.01220000  0.81088900  1
  C  C14  1  0.34584400  0.98956800  0.27019500  1
  C  C15  1  0.34543800  0.00507900  0.82117200  1
  C  C16  1  0.65493100  0.00786600  0.71962400  1
  C  C17  1  0.65287600  0.99285300  0.16921900  1
  C  C18  1  0.59832000  0.70473100  0.47948900  1
  C  C19  1  0.59345600  0.29186600  0.43345400  1
  C  C20  1  0.40617200  0.70596100  0.55823400  1
  C  C21  1  0.40131100  0.29309000  0.51231100  1
  C  C22  1  0.40371700  0.60273200  0.54877900  1
  C  C23  1  0.40118500  0.39640500  0.52284800  1
  C  C24  1  0.50047200  0.55035300  0.50273800  1
  C  C25  1  0.49918300  0.44746600  0.48912000  1
  C  C26  1  0.59846500  0.60141600  0.46898500  1
  C  C27  1  0.59593600  0.39509100  0.44299500  1
  C  C28  1  0.30504000  0.55196500  0.58216400  1
  C  C29  1  0.30378000  0.44861800  0.56972600  1
  C  C30  1  0.69461300  0.44586400  0.40954300  1
  C  C31  1  0.69587100  0.54921100  0.42202800  1
  N  N1  1  0.04742500  0.03988600  0.63212700  1
  N  N2  1  0.50275000  0.75516500  0.52325800  1
  N  N3  1  0.49688700  0.24265400  0.46855200  1
  Cl  Cl1  1  0.28310500  0.77353300  0.60861900  1
  Cl  Cl2  1  0.27714700  0.22721000  0.56286700  1
  O  O1  1  0.38305700  0.90627300  0.33796600  1
  O  O2  1  0.38158700  0.07875000  0.31142200  1
  O  O3  1  0.38045800  0.08979400  0.73149000  1
  O  O4  1  0.38516100  0.91712400  0.75636200  1
  O  O5  1  0.61661300  0.09136800  0.65373000  1
  O  O6  1  0.61794100  0.91904400  0.68017500  1
  O  O7  1  0.61908100  0.90801100  0.26016800  1
  O  O8  1  0.61432800  0.08082900  0.23531500  1
