# generated using pymatgen
data_Fe2H26C49(NO8)2
_symmetry_space_group_name_H-M   'P 1'
_cell_length_a   15.01190800
_cell_length_b   17.00176300
_cell_length_c   11.82128600
_cell_angle_alpha   72.37766600
_cell_angle_beta   100.91198100
_cell_angle_gamma   110.92627100
_symmetry_Int_Tables_number   1
_chemical_formula_structural   Fe2H26C49(NO8)2
_chemical_formula_sum   'Fe2 H26 C49 N2 O16'
_cell_volume   2674.69025372
_cell_formula_units_Z   1
loop_
 _symmetry_equiv_pos_site_id
 _symmetry_equiv_pos_as_xyz
  1  'x, y, z'
loop_
 _atom_site_type_symbol
 _atom_site_label
 _atom_site_symmetry_multiplicity
 _atom_site_fract_x
 _atom_site_fract_y
 _atom_site_fract_z
 _atom_site_occupancy
  Fe  Fe1  1  0.49836000  0.00209600  0.74984300  1
  Fe  Fe2  1  0.49530100  0.99721900  0.25635200  1
  H  H1  1  0.79497800  0.02416300  0.27643500  1
  H  H2  1  0.95189200  0.03095000  0.23813000  1
  H  H3  1  0.83804300  0.99362400  0.89198400  1
  H  H4  1  0.20046900  0.97573100  0.72971000  1
  H  H5  1  0.15557900  0.00643700  0.11305100  1
  H  H6  1  0.67965400  0.42674000  0.47672800  1
  H  H7  1  0.66701900  0.66628000  0.61601400  1
  H  H8  1  0.31382700  0.57251200  0.52959900  1
  H  H9  1  0.32646300  0.33298200  0.39029300  1
  H  H10  1  0.51657600  0.43581200  0.24082500  1
  H  H11  1  0.51689700  0.31721000  0.16761900  1
  H  H12  1  0.49091700  0.27069400  0.59231600  1
  H  H13  1  0.50253700  0.72855000  0.41397600  1
  H  H14  1  0.47668800  0.68209800  0.83869300  1
  H  H15  1  0.47694800  0.56347200  0.76549400  1
  H  H16  1  0.82359800  0.52561800  0.54783400  1
  H  H17  1  0.81722200  0.64528400  0.61744900  1
  H  H18  1  0.16988300  0.47363800  0.45848900  1
  H  H19  1  0.17625900  0.35397700  0.38886200  1
  H  H20  1  0.94801300  0.00978200  0.50672000  1
  H  H21  1  0.86069700  0.99439900  0.60498900  1
  H  H22  1  0.91991200  0.10223400  0.51670700  1
  H  H23  1  0.98869700  0.08283900  0.72602900  1
  H  H24  1  0.07570300  0.09625100  0.62920600  1
  H  H25  1  0.03671400  0.93534500  0.67732100  1
  H  H26  1  0.95322500  0.92050800  0.77802100  1
  C  C1  1  0.80433400  0.01862300  0.19104400  1
  C  C2  1  0.89263000  0.02165300  0.17012200  1
  C  C3  1  0.90519600  0.00985500  0.06488900  1
  C  C4  1  0.82894900  0.99915200  0.97734100  1
  C  C5  1  0.73966000  0.99697500  0.99697000  1
  C  C6  1  0.72695300  0.00376200  0.10713900  1
  C  C7  1  0.10121800  0.97875600  0.83409100  1
  C  C8  1  0.18981500  0.98107500  0.81463400  1
  C  C9  1  0.26688400  0.99579300  0.89887200  1
  C  C10  1  0.25402700  0.00276800  0.00872400  1
  C  C11  1  0.16475900  0.00096700  0.02770200  1
  C  C12  1  0.08859200  0.99066600  0.93983400  1
  C  C13  1  0.48166300  0.12709600  0.54643200  1
  C  C14  1  0.36067100  0.00935300  0.86375500  1
  C  C15  1  0.66338700  0.99248100  0.89728200  1
  C  C16  1  0.49054700  0.84551300  0.71790900  1
  C  C17  1  0.50305800  0.15379700  0.28838700  1
  C  C18  1  0.33013500  0.00703200  0.10869100  1
  C  C19  1  0.63317200  0.98993300  0.14262300  1
  C  C20  1  0.51186200  0.87217100  0.45984400  1
  C  C21  1  0.67254800  0.47815000  0.50637400  1
  C  C22  1  0.75549300  0.53425900  0.54682000  1
  C  C23  1  0.75191900  0.60121700  0.58578800  1
  C  C24  1  0.66539000  0.61242800  0.58454100  1
  C  C25  1  0.58075200  0.55619600  0.54403000  1
  C  C26  1  0.58441600  0.48851400  0.50463300  1
  C  C27  1  0.49305000  0.56733500  0.54256000  1
  C  C28  1  0.40906500  0.51074200  0.50168600  1
  C  C29  1  0.41272900  0.44306100  0.46228700  1
  C  C30  1  0.50043100  0.43192200  0.46375600  1
  C  C31  1  0.32093300  0.52110500  0.49994800  1
  C  C32  1  0.23798800  0.46499700  0.45950000  1
  C  C33  1  0.24156200  0.39804100  0.42052600  1
  C  C34  1  0.32809100  0.38683100  0.42177200  1
  C  C35  1  0.51133700  0.37296300  0.30240700  1
  C  C36  1  0.51105200  0.30513800  0.26145700  1
  C  C37  1  0.50231900  0.22341300  0.33832100  1
  C  C38  1  0.49534200  0.21138800  0.45895700  1
  C  C39  1  0.49768500  0.28045600  0.49923200  1
  C  C40  1  0.50420100  0.36070900  0.42124400  1
  C  C41  1  0.49579000  0.71880200  0.50706300  1
  C  C42  1  0.49816600  0.78788300  0.54733200  1
  C  C43  1  0.49123800  0.77587900  0.66797600  1
  C  C44  1  0.48250000  0.69415600  0.74485000  1
  C  C45  1  0.48218000  0.62631700  0.70390400  1
  C  C46  1  0.48928300  0.63855400  0.58506200  1
  C  C47  1  0.02042900  0.96544600  0.73867500  1
  C  C48  1  0.00780500  0.05225700  0.66764700  1
  C  C49  1  0.92890100  0.03858900  0.56749800  1
  N  N1  1  0.99641100  0.00969700  0.04949300  1
  N  N2  1  0.99751900  0.99073300  0.95620100  1
  O  O1  1  0.54469700  0.11858100  0.63898700  1
  O  O2  1  0.43127300  0.08121000  0.87039500  1
  O  O3  1  0.40100200  0.06332000  0.54036000  1
  O  O4  1  0.36990600  0.95667500  0.80863000  1
  O  O5  1  0.58300400  0.00491300  0.90282700  1
  O  O6  1  0.67900600  0.98310100  0.79737100  1
  O  O7  1  0.49945600  0.92485500  0.65144100  1
  O  O8  1  0.48101400  0.82804800  0.83180200  1
  O  O9  1  0.49420800  0.07446600  0.35485600  1
  O  O10  1  0.51257200  0.17126800  0.17448900  1
  O  O11  1  0.41049500  0.99442300  0.10337000  1
  O  O12  1  0.31444400  0.01654500  0.20847400  1
  O  O13  1  0.59254100  0.93593000  0.46590500  1
  O  O14  1  0.62372500  0.04269200  0.19745600  1
  O  O15  1  0.44884800  0.88069000  0.36726300  1
  O  O16  1  0.56267700  0.91799700  0.13605200  1
