# generated using pymatgen
data_Zn2H14C31(NO5)2
_symmetry_space_group_name_H-M   'P 1'
_cell_length_a   8.52422800
_cell_length_b   9.30674200
_cell_length_c   13.03120100
_cell_angle_alpha   90.59149400
_cell_angle_beta   86.47065200
_cell_angle_gamma   93.24276200
_symmetry_Int_Tables_number   1
_chemical_formula_structural   Zn2H14C31(NO5)2
_chemical_formula_sum   'Zn2 H14 C31 N2 O10'
_cell_volume   1030.16439646
_cell_formula_units_Z   1
loop_
 _symmetry_equiv_pos_site_id
 _symmetry_equiv_pos_as_xyz
  1  'x, y, z'
loop_
 _atom_site_type_symbol
 _atom_site_label
 _atom_site_symmetry_multiplicity
 _atom_site_fract_x
 _atom_site_fract_y
 _atom_site_fract_z
 _atom_site_occupancy
  Zn  Zn1  1  0.50163700  0.16160500  0.49782000  1
  Zn  Zn2  1  0.48890900  0.83966600  0.50469400  1
  H  H1  1  0.97648700  0.95175200  0.42952000  1
  H  H2  1  0.28945900  0.01222500  0.17144800  1
  H  H3  1  0.31205500  0.96385700  0.01892200  1
  H  H4  1  0.34342900  0.97510800  0.83848300  1
  H  H5  1  0.01274200  0.04578800  0.57305900  1
  H  H6  1  0.70130800  0.99327900  0.83260500  1
  H  H7  1  0.67964200  0.04429400  0.98453000  1
  H  H8  1  0.64793900  0.03107000  0.16485300  1
  H  H9  1  0.52813000  0.36346800  0.65313200  1
  H  H10  1  0.50567400  0.24436700  0.30149400  1
  H  H11  1  0.47846800  0.36958700  0.15027700  1
  H  H12  1  0.46898800  0.63088400  0.15377600  1
  H  H13  1  0.48497800  0.75766600  0.30251000  1
  H  H14  1  0.65429400  0.62491900  0.81799100  1
  C  C1  1  0.86909800  0.99507200  0.29321400  1
  C  C2  1  0.99537200  0.97183600  0.34889800  1
  C  C3  1  0.14446400  0.98323700  0.30446800  1
  C  C4  1  0.16880200  0.99928700  0.20020400  1
  C  C5  1  0.04107400  0.00009600  0.13863500  1
  C  C6  1  0.89089800  0.00599000  0.18684800  1
  C  C7  1  0.06078100  0.99802100  0.03082200  1
  C  C8  1  0.93064000  0.00851900  0.97249300  1
  C  C9  1  0.78397100  0.02565300  0.02329500  1
  C  C10  1  0.76439100  0.02150600  0.12865300  1
  C  C11  1  0.20756300  0.98152400  0.98004900  1
  C  C12  1  0.22696700  0.98475600  0.87464200  1
  C  C13  1  0.10021000  0.99870200  0.81633300  1
  C  C14  1  0.95005600  0.00529100  0.86467200  1
  C  C15  1  0.12175700  0.00694100  0.70976300  1
  C  C16  1  0.99442400  0.02782200  0.65395900  1
  C  C17  1  0.84509700  0.01859500  0.69896900  1
  C  C18  1  0.82181000  0.00521800  0.80343700  1
  C  C19  1  0.71210500  0.01330100  0.63388600  1
  C  C20  1  0.71796000  0.00039400  0.35321900  1
  C  C21  1  0.27585300  0.98861900  0.37029100  1
  C  C22  1  0.27377900  0.00160300  0.64986100  1
  C  C23  1  0.49159400  0.35600300  0.31219100  1
  C  C24  1  0.47869400  0.42750400  0.22260700  1
  C  C25  1  0.47328300  0.57255300  0.22476500  1
  C  C26  1  0.47931400  0.64613600  0.31611300  1
  C  C27  1  0.48356000  0.57641800  0.41132300  1
  C  C28  1  0.49229400  0.42660900  0.40729000  1
  C  C29  1  0.51557300  0.42281700  0.58360700  1
  C  C30  1  0.50909700  0.57107300  0.58936700  1
  C  C31  1  0.54124300  0.63526200  0.69017600  1
  N  N1  1  0.50573300  0.35101500  0.49424300  1
  N  N2  1  0.48564400  0.64953400  0.50418000  1
  O  O1  1  0.65596900  0.88556400  0.60481800  1
  O  O2  1  0.66337500  0.13568900  0.60158600  1
  O  O3  1  0.67327300  0.12506700  0.38851500  1
  O  O4  1  0.65695800  0.87921000  0.39129100  1
  O  O5  1  0.33100700  0.11444100  0.40054500  1
  O  O6  1  0.32346900  0.86825700  0.40397600  1
  O  O7  1  0.31800800  0.87479500  0.61488700  1
  O  O8  1  0.33549700  0.12511800  0.61292300  1
  O  O9  1  0.46480600  0.73129200  0.72737700  1
  O  O10  1  0.64968700  0.57351400  0.74933800  1
