# generated using pymatgen
data_Zn3H21C42O13
_symmetry_space_group_name_H-M   'P 1'
_cell_length_a   28.62485800
_cell_length_b   18.34263000
_cell_length_c   16.91848100
_cell_angle_alpha   90.00000000
_cell_angle_beta   62.18229200
_cell_angle_gamma   90.00000000
_symmetry_Int_Tables_number   1
_chemical_formula_structural   Zn3H21C42O13
_chemical_formula_sum   'Zn12 H84 C168 O52'
_cell_volume   7856.57235363
_cell_formula_units_Z   4
loop_
 _symmetry_equiv_pos_site_id
 _symmetry_equiv_pos_as_xyz
  1  'x, y, z'
loop_
 _atom_site_type_symbol
 _atom_site_label
 _atom_site_symmetry_multiplicity
 _atom_site_fract_x
 _atom_site_fract_y
 _atom_site_fract_z
 _atom_site_occupancy
  Zn  Zn1  1  0.78972700  0.19647500  0.50616400  1
  Zn  Zn2  1  0.21055200  0.79281800  0.49285700  1
  Zn  Zn3  1  0.21027300  0.19647500  0.49383600  1
  Zn  Zn4  1  0.78944800  0.79281800  0.50714300  1
  Zn  Zn5  1  0.28972700  0.69647500  0.50616400  1
  Zn  Zn6  1  0.71055200  0.29281800  0.49285700  1
  Zn  Zn7  1  0.71027300  0.69647500  0.49383600  1
  Zn  Zn8  1  0.28944800  0.29281800  0.50714300  1
  Zn  Zn9  1  0.50196100  0.49398400  0.08799400  1
  Zn  Zn10  1  0.49803900  0.49398400  0.91200600  1
  Zn  Zn11  1  0.00196100  0.99398400  0.08799400  1
  Zn  Zn12  1  0.99803900  0.99398400  0.91200600  1
  H  H1  1  0.03439000  0.24915500  0.52306800  1
  H  H2  1  0.96555100  0.74025500  0.47707200  1
  H  H3  1  0.96561000  0.24915500  0.47693100  1
  H  H4  1  0.03445000  0.74025500  0.52292800  1
  H  H5  1  0.53439000  0.74915500  0.52306800  1
  H  H6  1  0.46555100  0.24025500  0.47707200  1
  H  H7  1  0.46561000  0.74915500  0.47693100  1
  H  H8  1  0.53445000  0.24025500  0.52292800  1
  H  H9  1  0.08614300  0.31357200  0.56936400  1
  H  H10  1  0.91368300  0.67585200  0.43103100  1
  H  H11  1  0.91385800  0.31357200  0.43063600  1
  H  H12  1  0.08631700  0.67585200  0.56896900  1
  H  H13  1  0.58614300  0.81357200  0.56936400  1
  H  H14  1  0.41368300  0.17585200  0.43103100  1
  H  H15  1  0.41385800  0.81357200  0.43063600  1
  H  H16  1  0.58631700  0.17585200  0.56896900  1
  H  H17  1  0.65288000  0.23726700  0.07633300  1
  H  H18  1  0.34684800  0.74940100  0.92308000  1
  H  H19  1  0.34712000  0.23726700  0.92366700  1
  H  H20  1  0.65315200  0.74940100  0.07692000  1
  H  H21  1  0.15288000  0.73726700  0.07633300  1
  H  H22  1  0.84684800  0.24940100  0.92308000  1
  H  H23  1  0.84712000  0.73726700  0.92366700  1
  H  H24  1  0.15315200  0.24940100  0.07692000  1
  H  H25  1  0.79843800  0.28406700  0.84379400  1
  H  H26  1  0.20130800  0.70264500  0.15565100  1
  H  H27  1  0.20156200  0.28406700  0.15620600  1
  H  H28  1  0.79869200  0.70264500  0.84434900  1
  H  H29  1  0.29843800  0.78406700  0.84379400  1
  H  H30  1  0.70130800  0.20264500  0.15565100  1
  H  H31  1  0.70156200  0.78406700  0.15620600  1
  H  H32  1  0.29869200  0.20264500  0.84434900  1
  H  H33  1  0.63211000  0.34194700  0.01536500  1
  H  H34  1  0.36765200  0.64495600  0.98451900  1
  H  H35  1  0.36789000  0.34194700  0.98463500  1
  H  H36  1  0.63234800  0.64495600  0.01548100  1
  H  H37  1  0.13211000  0.84194700  0.01536500  1
  H  H38  1  0.86765200  0.14495600  0.98451900  1
  H  H39  1  0.86789000  0.84194700  0.98463500  1
  H  H40  1  0.13234800  0.14495600  0.01548100  1
  H  H41  1  0.62045100  0.34550100  0.77326500  1
  H  H42  1  0.37987800  0.64372200  0.22611200  1
  H  H43  1  0.37954900  0.34550100  0.22673500  1
  H  H44  1  0.62012200  0.64372200  0.77388700  1
  H  H45  1  0.12045100  0.84550100  0.77326500  1
  H  H46  1  0.87987800  0.14372200  0.22611200  1
  H  H47  1  0.87954900  0.84550100  0.22673500  1
  H  H48  1  0.12012200  0.14372200  0.77388700  1
  H  H49  1  0.74719700  0.23252200  0.78383000  1
  H  H50  1  0.25250200  0.75492300  0.21543400  1
  H  H51  1  0.25280300  0.23252100  0.21617000  1
  H  H52  1  0.74749800  0.75492300  0.78456600  1
  H  H53  1  0.24719700  0.73252200  0.78383000  1
  H  H54  1  0.75250200  0.25492300  0.21543400  1
  H  H55  1  0.75280300  0.73252100  0.21617000  1
  H  H56  1  0.24749800  0.25492300  0.78456600  1
  H  H57  1  0.81123400  0.43463700  0.28859900  1
  H  H58  1  0.86136200  0.49641100  0.28496100  1
  H  H59  1  0.75572400  0.54316800  0.29488600  1
  H  H60  1  0.80914800  0.60213700  0.28372300  1
  H  H61  1  0.86893700  0.54223600  0.13943300  1
  H  H62  1  0.81175600  0.58233500  0.13752300  1
  H  H63  1  0.81485800  0.48476300  0.14986900  1
  H  H64  1  0.18876600  0.43463700  0.71140100  1
  H  H65  1  0.13863800  0.49641100  0.71503800  1
  H  H66  1  0.24427600  0.54316800  0.70511400  1
  H  H67  1  0.19085200  0.60213700  0.71627700  1
  H  H68  1  0.13106300  0.54223600  0.86056700  1
  H  H69  1  0.18824400  0.58233500  0.86247700  1
  H  H70  1  0.18514200  0.48476300  0.85013100  1
  H  H71  1  0.31123400  0.93463700  0.28859900  1
  H  H72  1  0.36136200  0.99641100  0.28496100  1
  H  H73  1  0.25572400  0.04316800  0.29488600  1
  H  H74  1  0.30914800  0.10213700  0.28372300  1
  H  H75  1  0.36893700  0.04223600  0.13943300  1
  H  H76  1  0.31175600  0.08233500  0.13752300  1
  H  H77  1  0.31485800  0.98476300  0.14986900  1
  H  H78  1  0.68876600  0.93463700  0.71140100  1
  H  H79  1  0.63863800  0.99641100  0.71503800  1
  H  H80  1  0.74427600  0.04316800  0.70511400  1
  H  H81  1  0.69085200  0.10213700  0.71627700  1
  H  H82  1  0.63106300  0.04223600  0.86056700  1
  H  H83  1  0.68824400  0.08233500  0.86247700  1
  H  H84  1  0.68514200  0.98476300  0.85013100  1
  C  C1  1  0.70829300  0.27127700  0.67291400  1
  C  C2  1  0.29196300  0.71792400  0.32614100  1
  C  C3  1  0.29170700  0.27127700  0.32708600  1
  C  C4  1  0.70803700  0.71792400  0.67385900  1
  C  C5  1  0.20829300  0.77127700  0.67291400  1
  C  C6  1  0.79196300  0.21792400  0.32614100  1
  C  C7  1  0.79170700  0.77127700  0.32708600  1
  C  C8  1  0.20803700  0.21792400  0.67385900  1
  C  C9  1  0.68648900  0.12707300  0.53971900  1
  C  C10  1  0.31376100  0.86224800  0.45938600  1
  C  C11  1  0.31351100  0.12707300  0.46028100  1
  C  C12  1  0.68623900  0.86224800  0.54061400  1
  C  C13  1  0.18648900  0.62707300  0.53971900  1
  C  C14  1  0.81376100  0.36224800  0.45938600  1
  C  C15  1  0.81351100  0.62707300  0.46028100  1
  C  C16  1  0.18623900  0.36224800  0.54061400  1
  C  C17  1  0.53960700  0.12374000  0.52376900  1
  C  C18  1  0.46043800  0.86566900  0.47610500  1
  C  C19  1  0.46039300  0.12374000  0.47623100  1
  C  C20  1  0.53956200  0.86566900  0.52389500  1
  C  C21  1  0.03960700  0.62374000  0.52376900  1
  C  C22  1  0.96043800  0.36566900  0.47610500  1
  C  C23  1  0.96039300  0.62374000  0.47623100  1
  C  C24  1  0.03956200  0.36566900  0.52389500  1
  C  C25  1  0.51927400  0.18892200  0.51324200  1
  C  C26  1  0.48075700  0.80048900  0.48668000  1
  C  C27  1  0.48072600  0.18892200  0.48675800  1
  C  C28  1  0.51924300  0.80048900  0.51332000  1
  C  C29  1  0.01927400  0.68892200  0.51324200  1
  C  C30  1  0.98075700  0.30048900  0.48668000  1
  C  C31  1  0.98072600  0.68892200  0.48675800  1
  C  C32  1  0.01924300  0.30048900  0.51332000  1
  C  C33  1  0.47946000  0.05902600  0.48937700  1
  C  C34  1  0.52052700  0.93037500  0.51066100  1
  C  C35  1  0.52054000  0.05902600  0.51062300  1
  C  C36  1  0.47947300  0.93037500  0.48933900  1
  C  C37  1  0.97946000  0.55902600  0.48937700  1
  C  C38  1  0.02052700  0.43037500  0.51066100  1
  C  C39  1  0.02054000  0.55902600  0.51062300  1
  C  C40  1  0.97947300  0.43037500  0.48933900  1
  C  C41  1  0.95840400  0.49469900  0.47874400  1
  C  C42  1  0.04159600  0.49469900  0.52125600  1
  C  C43  1  0.45840400  0.99469900  0.47874400  1
  C  C44  1  0.54159600  0.99469900  0.52125600  1
  C  C45  1  0.89403700  0.42875000  0.45307400  1
  C  C46  1  0.10603800  0.56065400  0.54666700  1
  C  C47  1  0.10596300  0.42875000  0.54692600  1
  C  C48  1  0.89396200  0.56065400  0.45333300  1
  C  C49  1  0.39403700  0.92875000  0.45307400  1
  C  C50  1  0.60603800  0.06065400  0.54666700  1
  C  C51  1  0.60596300  0.92875000  0.54692600  1
  C  C52  1  0.39396200  0.06065400  0.45333300  1
  C  C53  1  0.84791400  0.42838700  0.44324300  1
  C  C54  1  0.15220900  0.56102900  0.55629600  1
  C  C55  1  0.15208600  0.42838700  0.55675700  1
  C  C56  1  0.84779100  0.56102900  0.44370300  1
  C  C57  1  0.34791400  0.92838700  0.44324300  1
  C  C58  1  0.65220900  0.06102900  0.55629600  1
  C  C59  1  0.65208600  0.92838700  0.55675700  1
  C  C60  1  0.34779100  0.06102900  0.44370300  1
  C  C61  1  0.82893300  0.49476000  0.42979300  1
  C  C62  1  0.17106800  0.49476000  0.57020700  1
  C  C63  1  0.32893300  0.99476000  0.42979300  1
  C  C64  1  0.67106800  0.99476000  0.57020700  1
  C  C65  1  0.91535600  0.49469800  0.46129700  1
  C  C66  1  0.08464400  0.49469800  0.53870200  1
  C  C67  1  0.41535600  0.99469800  0.46129700  1
  C  C68  1  0.58464400  0.99469800  0.53870200  1
  C  C69  1  0.07926600  0.36520000  0.54733800  1
  C  C70  1  0.92062800  0.62421500  0.45295300  1
  C  C71  1  0.92073400  0.36520000  0.45266200  1
  C  C72  1  0.07937200  0.62421500  0.54704700  1
  C  C73  1  0.57926600  0.86520000  0.54733800  1
  C  C74  1  0.42062800  0.12421500  0.45295300  1
  C  C75  1  0.42073400  0.86520000  0.45266200  1
  C  C76  1  0.57937200  0.12421500  0.54704700  1
  C  C77  1  0.72189600  0.26310200  0.95397600  1
  C  C78  1  0.27783600  0.72358600  0.04544300  1
  C  C79  1  0.27810400  0.26310200  0.04602400  1
  C  C80  1  0.72216400  0.72358600  0.95455700  1
  C  C81  1  0.22189600  0.76310200  0.95397600  1
  C  C82  1  0.77783600  0.22358600  0.04544300  1
  C  C83  1  0.77810400  0.76310200  0.04602400  1
  C  C84  1  0.22216400  0.22358600  0.95455700  1
  C  C85  1  0.77658300  0.26519800  0.91193900  1
  C  C86  1  0.22315100  0.72142800  0.08746500  1
  C  C87  1  0.22341700  0.26519800  0.08806100  1
  C  C88  1  0.77684900  0.72142800  0.91253500  1
  C  C89  1  0.27658300  0.76519800  0.91193900  1
  C  C90  1  0.72315100  0.22142800  0.08746500  1
  C  C91  1  0.72341700  0.76519800  0.08806100  1
  C  C92  1  0.27684900  0.22142800  0.91253500  1
  C  C93  1  0.80426400  0.24552200  0.95714200  1
  C  C94  1  0.19546800  0.74108400  0.04225100  1
  C  C95  1  0.19573700  0.24552200  0.04285800  1
  C  C96  1  0.80453200  0.74108400  0.95774900  1
  C  C97  1  0.30426400  0.74552200  0.95714200  1
  C  C98  1  0.69546800  0.24108400  0.04225100  1
  C  C99  1  0.69573700  0.74552200  0.04285800  1
  C  C100  1  0.30453200  0.24108400  0.95774900  1
  C  C101  1  0.64641000  0.32481400  0.94687700  1
  C  C102  1  0.35342600  0.66249300  0.05284500  1
  C  C103  1  0.35359000  0.32481400  0.05312300  1
  C  C104  1  0.64657400  0.66249300  0.94715400  1
  C  C105  1  0.14641000  0.82481400  0.94687700  1
  C  C106  1  0.85342600  0.16249300  0.05284500  1
  C  C107  1  0.85359000  0.82481400  0.05312300  1
  C  C108  1  0.14657400  0.16249300  0.94715400  1
  C  C109  1  0.62018600  0.34680300  0.89966800  1
  C  C110  1  0.37980100  0.64115900  0.10005700  1
  C  C111  1  0.37981400  0.34680300  0.10033200  1
  C  C112  1  0.62019900  0.64115900  0.89994300  1
  C  C113  1  0.12018600  0.84680300  0.89966800  1
  C  C114  1  0.87980100  0.14115900  0.10005700  1
  C  C115  1  0.87981400  0.84680300  0.10033200  1
  C  C116  1  0.12019900  0.14115900  0.89994300  1
  C  C117  1  0.64014400  0.32756000  0.81082200  1
  C  C118  1  0.35999100  0.66107200  0.18863900  1
  C  C119  1  0.35985600  0.32756000  0.18917800  1
  C  C120  1  0.64000900  0.66107200  0.81136100  1
  C  C121  1  0.14014400  0.82756000  0.81082200  1
  C  C122  1  0.85999100  0.16107200  0.18863900  1
  C  C123  1  0.85985600  0.82756000  0.18917800  1
  C  C124  1  0.14000900  0.16107200  0.81136100  1
  C  C125  1  0.68604100  0.28735000  0.76870600  1
  C  C126  1  0.31403800  0.70121700  0.23055000  1
  C  C127  1  0.31395900  0.28735000  0.23129400  1
  C  C128  1  0.68596200  0.70121700  0.76945000  1
  C  C129  1  0.18604100  0.78735000  0.76870600  1
  C  C130  1  0.81403800  0.20121700  0.23055000  1
  C  C131  1  0.81395900  0.78735000  0.23129400  1
  C  C132  1  0.18596200  0.20121700  0.76945000  1
  C  C133  1  0.71177000  0.26502200  0.81629700  1
  C  C134  1  0.28805100  0.72265800  0.18305200  1
  C  C135  1  0.28823000  0.26502200  0.18370300  1
  C  C136  1  0.71194900  0.72265800  0.81694800  1
  C  C137  1  0.21177000  0.76502200  0.81629700  1
  C  C138  1  0.78805100  0.22265800  0.18305200  1
  C  C139  1  0.78823000  0.76502200  0.18370300  1
  C  C140  1  0.21194900  0.22265800  0.81694800  1
  C  C141  1  0.69247000  0.28402200  0.90530500  1
  C  C142  1  0.30728700  0.70312900  0.09422400  1
  C  C143  1  0.30753000  0.28402200  0.09469500  1
  C  C144  1  0.69271400  0.70312900  0.90577500  1
  C  C145  1  0.19247000  0.78402200  0.90530500  1
  C  C146  1  0.80728700  0.20312900  0.09422400  1
  C  C147  1  0.80753000  0.78402200  0.09469500  1
  C  C148  1  0.19271400  0.20312900  0.90577500  1
  C  C149  1  0.07428300  0.09206700  0.93995200  1
  C  C150  1  0.92571900  0.89590000  0.06009700  1
  C  C151  1  0.92571700  0.09206700  0.06004800  1
  C  C152  1  0.07428200  0.89590000  0.93990300  1
  C  C153  1  0.57428300  0.59206700  0.93995200  1
  C  C154  1  0.42571900  0.39590000  0.06009700  1
  C  C155  1  0.42571700  0.59206700  0.06004800  1
  C  C156  1  0.57428200  0.39590000  0.93990300  1
  C  C157  1  0.81838100  0.48926500  0.30893900  1
  C  C158  1  0.79915300  0.54766000  0.26758300  1
  C  C159  1  0.82545400  0.53851800  0.16697800  1
  C  C160  1  0.18161900  0.48926500  0.69106100  1
  C  C161  1  0.20084800  0.54766000  0.73241700  1
  C  C162  1  0.17454600  0.53851800  0.83302200  1
  C  C163  1  0.31838100  0.98926500  0.30893900  1
  C  C164  1  0.29915300  0.04766000  0.26758300  1
  C  C165  1  0.32545400  0.03851800  0.16697800  1
  C  C166  1  0.68161900  0.98926500  0.69106100  1
  C  C167  1  0.70084800  0.04766000  0.73241700  1
  C  C168  1  0.67454600  0.03851800  0.83302200  1
  O  O1  1  0.75096300  0.23108500  0.63466400  1
  O  O2  1  0.24930900  0.75818000  0.36435400  1
  O  O3  1  0.24903700  0.23108500  0.36533600  1
  O  O4  1  0.75069100  0.75818000  0.63564600  1
  O  O5  1  0.25096300  0.73108500  0.63466400  1
  O  O6  1  0.74930900  0.25818000  0.36435400  1
  O  O7  1  0.74903700  0.73108500  0.36533600  1
  O  O8  1  0.25069100  0.25818000  0.63564600  1
  O  O9  1  0.67048900  0.19108900  0.52797200  1
  O  O10  1  0.32977600  0.79822000  0.47108500  1
  O  O11  1  0.32951100  0.19108900  0.47202800  1
  O  O12  1  0.67022400  0.79822000  0.52891400  1
  O  O13  1  0.17048900  0.69108900  0.52797200  1
  O  O14  1  0.82977600  0.29822000  0.47108500  1
  O  O15  1  0.82951100  0.69108900  0.47202800  1
  O  O16  1  0.17022400  0.29822000  0.52891400  1
  O  O17  1  0.73448100  0.11866400  0.52981100  1
  O  O18  1  0.26579700  0.87063200  0.46919000  1
  O  O19  1  0.26552000  0.11866400  0.47018900  1
  O  O20  1  0.73420300  0.87063200  0.53081000  1
  O  O21  1  0.23448100  0.61866400  0.52981100  1
  O  O22  1  0.76579700  0.37063200  0.46919000  1
  O  O23  1  0.76552000  0.61866400  0.47018900  1
  O  O24  1  0.23420300  0.37063200  0.53081000  1
  O  O25  1  0.68555900  0.29960200  0.62839300  1
  O  O26  1  0.31471700  0.68968800  0.37064500  1
  O  O27  1  0.31444100  0.29960200  0.37160700  1
  O  O28  1  0.68528400  0.68968800  0.62935500  1
  O  O29  1  0.18555900  0.79960200  0.62839300  1
  O  O30  1  0.81471700  0.18968800  0.37064500  1
  O  O31  1  0.81444100  0.79960200  0.37160700  1
  O  O32  1  0.18528400  0.18968800  0.62935500  1
  O  O33  1  0.05933100  0.06675500  0.02072600  1
  O  O34  1  0.94066200  0.92120600  0.97929300  1
  O  O35  1  0.94066900  0.06675500  0.97927400  1
  O  O36  1  0.05933800  0.92120600  0.02070700  1
  O  O37  1  0.55933100  0.56675500  0.02072600  1
  O  O38  1  0.44066200  0.42120600  0.97929300  1
  O  O39  1  0.44066900  0.56675500  0.97927400  1
  O  O40  1  0.55933800  0.42120600  0.02070700  1
  O  O41  1  0.94703900  0.07042000  0.11000700  1
  O  O42  1  0.05295000  0.91755100  0.88999400  1
  O  O43  1  0.05296100  0.07042000  0.88999300  1
  O  O44  1  0.94705000  0.91755100  0.11000600  1
  O  O45  1  0.44703900  0.57042000  0.11000700  1
  O  O46  1  0.55295000  0.41755100  0.88999400  1
  O  O47  1  0.55296100  0.57042000  0.88999300  1
  O  O48  1  0.44705000  0.41755100  0.11000600  1
  O  O49  1  0.79094700  0.49494700  0.40211800  1
  O  O50  1  0.20905300  0.49494700  0.59788200  1
  O  O51  1  0.29094700  0.99494700  0.40211800  1
  O  O52  1  0.70905300  0.99494700  0.59788200  1
