# generated using pymatgen
data_Fe2H13C38N2O16F3
_symmetry_space_group_name_H-M   'P 1'
_cell_length_a   15.12962100
_cell_length_b   16.37947200
_cell_length_c   13.45449500
_cell_angle_alpha   88.70514300
_cell_angle_beta   101.71049800
_cell_angle_gamma   113.98538700
_symmetry_Int_Tables_number   1
_chemical_formula_structural   Fe2H13C38N2O16F3
_chemical_formula_sum   'Fe2 H13 C38 N2 O16 F3'
_cell_volume   2976.21223024
_cell_formula_units_Z   1
loop_
 _symmetry_equiv_pos_site_id
 _symmetry_equiv_pos_as_xyz
  1  'x, y, z'
loop_
 _atom_site_type_symbol
 _atom_site_label
 _atom_site_symmetry_multiplicity
 _atom_site_fract_x
 _atom_site_fract_y
 _atom_site_fract_z
 _atom_site_occupancy
  Fe  Fe1  1  0.49543500  0.99970600  0.77567900  1
  Fe  Fe2  1  0.51242900  0.00656100  0.22661000  1
  H  H1  1  0.79679400  0.01201900  0.24432100  1
  H  H2  1  0.95312900  0.01920700  0.21622200  1
  H  H3  1  0.83994600  0.98812200  0.89554300  1
  H  H4  1  0.04980600  0.97629200  0.78596100  1
  H  H5  1  0.20687500  0.98568100  0.75756500  1
  H  H6  1  0.46559900  0.89665000  0.47506200  1
  H  H7  1  0.49969700  0.68495600  0.33775700  1
  H  H8  1  0.47180100  0.67660300  0.64839100  1
  H  H9  1  0.59199300  0.61508800  0.63905100  1
  H  H10  1  0.60657200  0.47269000  0.64268300  1
  H  H11  1  0.38653800  0.52867800  0.35356700  1
  H  H12  1  0.52913200  0.32731900  0.35163500  1
  H  H13  1  0.53699500  0.10807600  0.52534300  1
  C  C1  1  0.80561600  0.00742100  0.16720100  1
  C  C2  1  0.89370800  0.01086300  0.15173800  1
  C  C3  1  0.90648800  0.00208000  0.05512800  1
  C  C4  1  0.83013500  0.99226400  0.97225700  1
  C  C5  1  0.74044400  0.98963400  0.98678100  1
  C  C6  1  0.72799500  0.99508000  0.08641600  1
  C  C7  1  0.10911600  0.98437500  0.85046800  1
  C  C8  1  0.19769800  0.98910500  0.83474100  1
  C  C9  1  0.27563400  0.00171600  0.91521900  1
  C  C10  1  0.26291900  0.00518800  0.01513000  1
  C  C11  1  0.17268800  0.00158900  0.03025300  1
  C  C12  1  0.09579000  0.99232800  0.94710700  1
  C  C13  1  0.49565500  0.15233900  0.68641200  1
  C  C14  1  0.36864500  0.01205500  0.88839600  1
  C  C15  1  0.66488700  0.98777900  0.89618400  1
  C  C16  1  0.47008600  0.84186100  0.66264900  1
  C  C17  1  0.53378500  0.16318500  0.33802200  1
  C  C18  1  0.33953700  0.00655900  0.10510800  1
  C  C19  1  0.63599800  0.98787700  0.11283800  1
  C  C20  1  0.50034000  0.84842400  0.31121800  1
  C  C21  1  0.47873800  0.79335200  0.39719600  1
  C  C22  1  0.48655300  0.71249500  0.40272100  1
  C  C23  1  0.48096000  0.66871800  0.49200100  1
  C  C24  1  0.47309200  0.70910700  0.57759000  1
  C  C25  1  0.46740600  0.79139500  0.57230800  1
  C  C26  1  0.46706600  0.83133000  0.48080200  1
  C  C27  1  0.54848000  0.56464000  0.57757200  1
  C  C28  1  0.55675100  0.48381000  0.57951900  1
  C  C29  1  0.50363000  0.41847800  0.50099500  1
  C  C30  1  0.44269700  0.43564900  0.41959700  1
  C  C31  1  0.43569900  0.51710000  0.41705400  1
  C  C32  1  0.48807500  0.58189000  0.49612900  1
  C  C33  1  0.52527700  0.29381700  0.42174200  1
  C  C34  1  0.53341200  0.21257600  0.42765500  1
  C  C35  1  0.53286500  0.17232400  0.51884900  1
  C  C36  1  0.51625700  0.20799200  0.60081800  1
  C  C37  1  0.50379200  0.28674200  0.59413400  1
  C  C38  1  0.51177700  0.33190800  0.50566700  1
  N  N1  1  0.99888500  0.00478300  0.04504800  1
  N  N2  1  0.00279000  0.98971700  0.95636000  1
  O  O1  1  0.56061600  0.12085700  0.72875100  1
  O  O2  1  0.44923700  0.08513200  0.91963700  1
  O  O3  1  0.40303700  0.11006900  0.69384700  1
  O  O4  1  0.36590200  0.95847900  0.81551300  1
  O  O5  1  0.58258400  0.99245400  0.90650600  1
  O  O6  1  0.68290700  0.98781800  0.80479800  1
  O  O7  1  0.47545800  0.92348500  0.65145900  1
  O  O8  1  0.47599800  0.81014900  0.75303700  1
  O  O9  1  0.53670100  0.08452400  0.35093600  1
  O  O10  1  0.51960600  0.19117900  0.24644300  1
  O  O11  1  0.42831400  0.01800300  0.09558500  1
  O  O12  1  0.31772100  0.99091200  0.19514300  1
  O  O13  1  0.59195300  0.88326200  0.29915200  1
  O  O14  1  0.64149300  0.04121100  0.18742000  1
  O  O15  1  0.44055800  0.88659800  0.27315700  1
  O  O16  1  0.55267300  0.91821900  0.07819000  1
  F  F1  1  0.38607500  0.37180700  0.34360400  1
  F  F2  1  0.48040300  0.31754400  0.67334100  1
  F  F3  1  0.16137500  0.00724300  0.12698700  1
