# generated using pymatgen
data_Cu3H36C41O12
_symmetry_space_group_name_H-M   'P 1'
_cell_length_a   21.33275000
_cell_length_b   21.34313800
_cell_length_c   21.90588100
_cell_angle_alpha   60.88676300
_cell_angle_beta   119.11850500
_cell_angle_gamma   89.96021700
_symmetry_Int_Tables_number   1
_chemical_formula_structural   Cu3H36C41O12
_chemical_formula_sum   'Cu6 H72 C82 O24'
_cell_volume   7234.74021489
_cell_formula_units_Z   2
loop_
 _symmetry_equiv_pos_site_id
 _symmetry_equiv_pos_as_xyz
  1  'x, y, z'
loop_
 _atom_site_type_symbol
 _atom_site_label
 _atom_site_symmetry_multiplicity
 _atom_site_fract_x
 _atom_site_fract_y
 _atom_site_fract_z
 _atom_site_occupancy
  Cu  Cu1  1  0.49853100  0.43723700  0.50236000  1
  Cu  Cu2  1  0.49918700  0.56183000  0.50286200  1
  Cu  Cu3  1  0.06807900  0.00101700  0.50451100  1
  Cu  Cu4  1  0.94162800  0.00025600  0.50129000  1
  Cu  Cu5  1  0.04055400  0.45794000  0.58726000  1
  Cu  Cu6  1  0.95877900  0.54158100  0.41956800  1
  H  H1  1  0.36001900  0.78537400  0.05781900  1
  H  H2  1  0.32087200  0.73086100  0.95360800  1
  H  H3  1  0.21006200  0.88288800  0.94944500  1
  H  H4  1  0.17294900  0.76919700  0.05206400  1
  H  H5  1  0.13379900  0.71463700  0.94785300  1
  H  H6  1  0.28388300  0.61715500  0.05631600  1
  H  H7  1  0.71846600  0.38031500  0.55004400  1
  H  H8  1  0.75991400  0.40486300  0.62495200  1
  H  H9  1  0.86292900  0.39770700  0.62346700  1
  H  H10  1  0.81876200  0.38525700  0.53785000  1
  H  H11  1  0.74774300  0.49689300  0.38902900  1
  H  H12  1  0.68674800  0.61107800  0.48065300  1
  H  H13  1  0.73809300  0.53136000  0.58870500  1
  H  H14  1  0.84512700  0.52779300  0.59268500  1
  H  H15  1  0.79373800  0.60871500  0.48518600  1
  H  H16  1  0.63666900  0.59482900  0.37148600  1
  H  H17  1  0.73509700  0.59052400  0.36687400  1
  H  H18  1  0.63835900  0.32819400  0.95131000  1
  H  H19  1  0.69256400  0.16889700  0.05726700  1
  H  H20  1  0.78332100  0.33087400  0.05422400  1
  H  H21  1  0.82197900  0.33005100  0.94809100  1
  H  H22  1  0.87622700  0.17069100  0.05411800  1
  H  H23  1  0.73120900  0.16804600  0.95115200  1
  H  H24  1  0.27827600  0.43450200  0.44881800  1
  H  H25  1  0.23421300  0.53545500  0.37670900  1
  H  H26  1  0.13385400  0.51485200  0.38344200  1
  H  H27  1  0.18586700  0.41797700  0.47152200  1
  H  H28  1  0.34752700  0.37938700  0.60291600  1
  H  H29  1  0.25174000  0.38382100  0.61941000  1
  H  H30  1  0.31443800  0.57879700  0.54001600  1
  H  H31  1  0.26699500  0.62033300  0.42818700  1
  H  H32  1  0.15486000  0.61618000  0.41120300  1
  H  H33  1  0.19868200  0.59314200  0.51692000  1
  H  H34  1  0.37570700  0.43889000  0.64197200  1
  H  H35  1  0.26911900  0.45827300  0.63731800  1
  H  H36  1  0.99842600  0.85240400  0.38595700  1
  H  H37  1  0.00528000  0.74792900  0.39146200  1
  H  H38  1  0.09603500  0.69739500  0.48862700  1
  H  H39  1  0.10686300  0.74168100  0.62932100  1
  H  H40  1  0.10691100  0.63614400  0.62612200  1
  H  H41  1  0.90023700  0.80940500  0.49124100  1
  H  H42  1  0.89126600  0.86031800  0.39186600  1
  H  H43  1  0.88993600  0.75616800  0.38997300  1
  H  H44  1  0.89505400  0.70751000  0.48738500  1
  H  H45  1  0.01920900  0.74510200  0.62021900  1
  H  H46  1  0.02213200  0.63849400  0.62583100  1
  H  H47  1  0.12401800  0.16351500  0.56718100  1
  H  H48  1  0.09090400  0.13631000  0.63553700  1
  H  H49  1  0.10377600  0.24323600  0.62966300  1
  H  H50  1  0.11722200  0.27840100  0.54482600  1
  H  H51  1  0.02937100  0.24834900  0.41214700  1
  H  H52  1  0.00689400  0.36079300  0.39451900  1
  H  H53  1  0.88594600  0.22116200  0.46524400  1
  H  H54  1  0.95313700  0.15672200  0.57779300  1
  H  H55  1  0.97265600  0.25184900  0.59531200  1
  H  H56  1  0.89238800  0.31403600  0.48799500  1
  H  H57  1  0.92997900  0.26034200  0.36849400  1
  H  H58  1  0.91292300  0.36236400  0.37197500  1
  H  H59  1  0.70041100  0.39420500  0.43337100  1
  H  H60  1  0.61598700  0.34668700  0.35645600  1
  H  H61  1  0.49886900  0.36059500  0.24974800  1
  H  H62  1  0.45109500  0.45620400  0.15742600  1
  H  H63  1  0.42005100  0.41929700  0.22817400  1
  H  H64  1  0.43986100  0.55425800  0.19856000  1
  H  H65  1  0.52313700  0.60234800  0.27732900  1
  H  H66  1  0.18248500  0.71184400  0.59747200  1
  H  H67  1  0.30170800  0.73551300  0.63059900  1
  H  H68  1  0.37402600  0.81027300  0.59737700  1
  H  H69  1  0.32577300  0.91040000  0.53291900  1
  H  H70  1  0.33710200  0.86439700  0.48640300  1
  H  H71  1  0.19043700  0.94693900  0.39357800  1
  H  H72  1  0.06926400  0.92505100  0.35958900  1
  C  C1  1  0.61693500  0.50149700  0.49771800  1
  C  C2  1  0.41400000  0.58106400  0.34130800  1
  C  C3  1  0.38031900  0.49811800  0.50637400  1
  C  C4  1  0.58233200  0.41798800  0.66401900  1
  C  C5  1  0.28795900  0.73891700  0.97721100  1
  C  C6  1  0.30808300  0.77002700  0.03152700  1
  C  C7  1  0.36819800  0.62639400  0.25108000  1
  C  C8  1  0.12695400  0.87421800  0.75450900  1
  C  C9  1  0.26643200  0.67807100  0.03068500  1
  C  C10  1  0.28573500  0.71002800  0.08333900  1
  C  C11  1  0.18570200  0.73004100  0.97409300  1
  C  C12  1  0.20804000  0.79006900  0.92227800  1
  C  C13  1  0.20583400  0.76116000  0.02842800  1
  C  C14  1  0.22738500  0.82199300  0.97496900  1
  C  C15  1  0.33052700  0.66430500  0.17529600  1
  C  C16  1  0.16362300  0.83605800  0.83029300  1
  C  C17  1  0.74307000  0.42221100  0.56109900  1
  C  C18  1  0.81291600  0.42146800  0.55889400  1
  C  C19  1  0.66799900  0.53425400  0.40873700  1
  C  C20  1  0.72442000  0.55187700  0.52506600  1
  C  C21  1  0.68700400  0.50154000  0.49748000  1
  C  C22  1  0.80729100  0.50125000  0.49934900  1
  C  C23  1  0.73999300  0.53188200  0.41056000  1
  C  C24  1  0.79675600  0.55046900  0.52754700  1
  C  C25  1  0.72125200  0.20607000  0.03122300  1
  C  C26  1  0.69295000  0.29185100  0.97591000  1
  C  C27  1  0.62958200  0.37277400  0.75427400  1
  C  C28  1  0.88240500  0.12677100  0.25116100  1
  C  C29  1  0.74369300  0.20432300  0.97581200  1
  C  C30  1  0.71620900  0.28931900  0.92210800  1
  C  C31  1  0.82164100  0.20703500  0.02952100  1
  C  C32  1  0.79834800  0.20959700  0.08328600  1
  C  C33  1  0.79330000  0.29286900  0.97414000  1
  C  C34  1  0.77085500  0.29459300  0.02956900  1
  C  C35  1  0.66891100  0.33498900  0.83007500  1
  C  C36  1  0.84475500  0.16414900  0.17533600  1
  C  C37  1  0.25322500  0.48608100  0.44007600  1
  C  C38  1  0.18618700  0.47721900  0.44703900  1
  C  C39  1  0.32934800  0.43457100  0.59199700  1
  C  C40  1  0.27624800  0.57272200  0.48767700  1
  C  C41  1  0.31041700  0.49796000  0.50655400  1
  C  C42  1  0.19161600  0.49734700  0.50668400  1
  C  C43  1  0.26007800  0.44014900  0.59478800  1
  C  C44  1  0.20090400  0.57508900  0.47814300  1
  C  C45  1  0.00605100  0.88144000  0.50015200  1
  C  C46  1  0.08316800  0.91998200  0.66427100  1
  C  C47  1  0.00273300  0.12069500  0.50352700  1
  C  C48  1  0.92646900  0.08230500  0.34145100  1
  C  C49  1  0.00035000  0.37928000  0.50373100  1
  C  C50  1  0.87803200  0.50075700  0.50088000  1
  C  C51  1  0.00038900  0.62018800  0.50312000  1
  C  C52  1  0.12127500  0.49754500  0.50587700  1
  C  C53  1  0.03922400  0.80645100  0.45286700  1
  C  C54  1  0.03862500  0.73349800  0.45678600  1
  C  C55  1  0.04862000  0.74231000  0.59112900  1
  C  C56  1  0.92562500  0.80971800  0.45739000  1
  C  C57  1  0.00698100  0.81053300  0.50102800  1
  C  C58  1  0.00257400  0.69038400  0.50243800  1
  C  C59  1  0.04809700  0.67076300  0.59210200  1
  C  C60  1  0.92303000  0.73936800  0.45622700  1
  C  C61  1  0.07923900  0.18038500  0.57322000  1
  C  C62  1  0.08046200  0.25433200  0.56651100  1
  C  C63  1  0.98311300  0.25637400  0.42010600  1
  C  C64  1  0.94338900  0.20662800  0.51934800  1
  C  C65  1  0.00206900  0.19030300  0.50423000  1
  C  C66  1  0.00088000  0.30926700  0.50393500  1
  C  C67  1  0.97352600  0.32847600  0.41674700  1
  C  C68  1  0.94930800  0.27249000  0.52889300  1
  C  C69  1  0.61770700  0.50127100  0.36348600  1
  C  C70  1  0.64290100  0.42966000  0.38387000  1
  C  C71  1  0.59514700  0.40268200  0.33936800  1
  C  C72  1  0.52193800  0.44718500  0.27307800  1
  C  C73  1  0.46991800  0.41891200  0.22421300  1
  C  C74  1  0.49692700  0.51887400  0.25121700  1
  C  C75  1  0.54437400  0.54580900  0.29598800  1
  C  C76  1  0.11568000  0.81781200  0.47682100  1
  C  C77  1  0.18226200  0.76475700  0.55248200  1
  C  C78  1  0.25064400  0.77763000  0.57121900  1
  C  C79  1  0.25374300  0.84328400  0.51446600  1
  C  C80  1  0.32726800  0.85783900  0.53416200  1
  C  C81  1  0.18823800  0.89558100  0.43852500  1
  C  C82  1  0.11976900  0.88280300  0.41951800  1
  O  O1  1  0.58933100  0.44566400  0.50156600  1
  O  O2  1  0.58718300  0.55611400  0.49678900  1
  O  O3  1  0.43657500  0.50754400  0.38007200  1
  O  O4  1  0.43834000  0.61535600  0.38041000  1
  O  O5  1  0.41144000  0.44232300  0.51004400  1
  O  O6  1  0.40747700  0.55421700  0.50180600  1
  O  O7  1  0.56515500  0.38379900  0.62460900  1
  O  O8  1  0.56445700  0.49156600  0.62502000  1
  O  O9  1  0.06315200  0.90788900  0.50840900  1
  O  O10  1  0.95259100  0.90872400  0.50249000  1
  O  O11  1  0.11908300  0.93821400  0.62665000  1
  O  O12  1  0.00956700  0.93535000  0.62376200  1
  O  O13  1  0.05862900  0.09103000  0.50628400  1
  O  O14  1  0.95095600  0.08873100  0.50670600  1
  O  O15  1  0.00015000  0.05902400  0.38199600  1
  O  O16  1  0.89081400  0.06065800  0.37917100  1
  O  O17  1  0.03109300  0.37263300  0.57582000  1
  O  O18  1  0.96333300  0.44471000  0.43116400  1
  O  O19  1  0.94296300  0.46853900  0.57393700  1
  O  O20  1  0.87218700  0.53808900  0.42890800  1
  O  O21  1  0.03425900  0.55476700  0.57580900  1
  O  O22  1  0.96075400  0.62708400  0.43066600  1
  O  O23  1  0.12710300  0.46331400  0.57778300  1
  O  O24  1  0.05641500  0.53829000  0.43303600  1
