# generated using pymatgen
data_Fe2H22C55N2O21
_symmetry_space_group_name_H-M   'P 1'
_cell_length_a   15.86235700
_cell_length_b   9.30258200
_cell_length_c   24.45808700
_cell_angle_alpha   94.57404800
_cell_angle_beta   101.82741900
_cell_angle_gamma   100.35137100
_symmetry_Int_Tables_number   1
_chemical_formula_structural   Fe2H22C55N2O21
_chemical_formula_sum   'Fe2 H22 C55 N2 O21'
_cell_volume   3449.37750406
_cell_formula_units_Z   1
loop_
 _symmetry_equiv_pos_site_id
 _symmetry_equiv_pos_as_xyz
  1  'x, y, z'
loop_
 _atom_site_type_symbol
 _atom_site_label
 _atom_site_symmetry_multiplicity
 _atom_site_fract_x
 _atom_site_fract_y
 _atom_site_fract_z
 _atom_site_occupancy
  Fe  Fe1  1  0.47688000  0.98968500  0.87248500  1
  Fe  Fe2  1  0.50438500  0.00190700  0.12312600  1
  H  H1  1  0.19975800  0.94773700  0.86977700  1
  H  H2  1  0.05779000  0.94292300  0.89350700  1
  H  H3  1  0.80011300  0.95874200  0.92865900  1
  H  H4  1  0.78055000  0.03957000  0.12618000  1
  H  H5  1  0.92279300  0.04228300  0.10234200  1
  H  H6  1  0.67400900  0.34739300  0.47199500  1
  H  H7  1  0.66609300  0.33854000  0.56928400  1
  H  H8  1  0.31341600  0.64606700  0.52482600  1
  H  H9  1  0.32126800  0.65475900  0.42751700  1
  H  H10  1  0.48444300  0.70393600  0.71369100  1
  H  H11  1  0.46494600  0.23925100  0.68581900  1
  H  H12  1  0.50390400  0.29050900  0.28302500  1
  H  H13  1  0.52187500  0.75491100  0.31121100  1
  H  H14  1  0.47603100  0.44370400  0.84935400  1
  H  H15  1  0.51386900  0.55224100  0.14793700  1
  H  H16  1  0.06815900  0.91523900  0.09270400  1
  H  H17  1  0.08261500  0.11619100  0.09560100  1
  H  H18  1  0.19933000  0.83859500  0.16432100  1
  H  H19  1  0.25435200  0.85820000  0.26661300  1
  H  H20  1  0.23389300  0.06563700  0.32803600  1
  H  H21  1  0.15829300  0.25369800  0.28701100  1
  H  H22  1  0.10324600  0.23541300  0.18509400  1
  C  C1  1  0.19665200  0.96425100  0.91351000  1
  C  C2  1  0.11655700  0.96260600  0.92677600  1
  C  C3  1  0.11033700  0.98847300  0.98181800  1
  C  C4  1  0.18622000  0.01218800  0.02506500  1
  C  C5  1  0.26809400  0.01803800  0.01133400  1
  C  C6  1  0.27276300  0.99568700  0.95501600  1
  C  C7  1  0.02408700  0.99058600  0.99138500  1
  C  C8  1  0.95257700  0.99346700  0.00066700  1
  C  C9  1  0.79391100  0.97520100  0.97176800  1
  C  C10  1  0.71269400  0.97598100  0.98448300  1
  C  C11  1  0.70775000  0.99642100  0.04073600  1
  C  C12  1  0.78385300  0.02398800  0.08245600  1
  C  C13  1  0.86400200  0.02414900  0.06919400  1
  C  C14  1  0.86890900  0.99743700  0.01395100  1
  C  C15  1  0.46468400  0.18619600  0.79193200  1
  C  C16  1  0.35632300  0.01320800  0.93700100  1
  C  C17  1  0.63585300  0.96438300  0.93764500  1
  C  C18  1  0.47923500  0.71789000  0.82412700  1
  C  C19  1  0.51067700  0.27783700  0.17279000  1
  C  C20  1  0.34781000  0.03790600  0.05732300  1
  C  C21  1  0.62419600  0.97955900  0.05841800  1
  C  C22  1  0.52157800  0.80843900  0.20499900  1
  C  C23  1  0.44086100  0.56133100  0.37923000  1
  C  C24  1  0.56502300  0.45330800  0.39477300  1
  C  C25  1  0.56104200  0.44661300  0.45054600  1
  C  C26  1  0.49593700  0.49912400  0.47060000  1
  C  C27  1  0.43536000  0.55666600  0.43478100  1
  C  C28  1  0.62213200  0.38916800  0.48653600  1
  C  C29  1  0.61763400  0.38422100  0.54206000  1
  C  C30  1  0.55201800  0.43667100  0.56201700  1
  C  C31  1  0.49144100  0.49422500  0.52620300  1
  C  C32  1  0.42637700  0.54683900  0.54627200  1
  C  C33  1  0.36526900  0.60423500  0.51027500  1
  C  C34  1  0.36973000  0.60908400  0.45473800  1
  C  C35  1  0.54656900  0.43211800  0.61757800  1
  C  C36  1  0.42250800  0.54040100  0.60207700  1
  C  C37  1  0.47959500  0.59826300  0.72952600  1
  C  C38  1  0.47866400  0.58825000  0.78556600  1
  C  C39  1  0.47651900  0.45333900  0.80569800  1
  C  C40  1  0.47074400  0.32813400  0.76988500  1
  C  C41  1  0.46942700  0.33762400  0.71384100  1
  C  C42  1  0.47642900  0.47307100  0.69381000  1
  C  C43  1  0.50876900  0.39635700  0.26732700  1
  C  C44  1  0.51081000  0.40705700  0.21147300  1
  C  C45  1  0.51313000  0.54221700  0.19153800  1
  C  C46  1  0.51758000  0.66691700  0.22729200  1
  C  C47  1  0.51826400  0.65689600  0.28322500  1
  C  C48  1  0.51143000  0.52122300  0.30310800  1
  C  C49  1  0.11475700  0.02236700  0.10585300  1
  C  C50  1  0.14789900  0.03555000  0.16797200  1
  C  C51  1  0.19031000  0.93012100  0.19113900  1
  C  C52  1  0.22117500  0.94094200  0.24857700  1
  C  C53  1  0.20969900  0.05717500  0.28300500  1
  C  C54  1  0.16731100  0.16258400  0.25999200  1
  C  C55  1  0.13637400  0.15196700  0.20255100  1
  N  N1  1  0.50541300  0.51062000  0.36015200  1
  N  N2  1  0.48212900  0.48309000  0.63668800  1
  O  O1  1  0.50658400  0.18090100  0.84373800  1
  O  O2  1  0.41916400  0.12806100  0.95836800  1
  O  O3  1  0.41301800  0.06832100  0.76171500  1
  O  O4  1  0.36355900  0.92549300  0.89403500  1
  O  O5  1  0.56234000  0.99844100  0.94613700  1
  O  O6  1  0.64383400  0.93494700  0.88581700  1
  O  O7  1  0.47903200  0.84782100  0.80675700  1
  O  O8  1  0.47796100  0.70377500  0.87692700  1
  O  O9  1  0.50144100  0.14497600  0.18835800  1
  O  O10  1  0.51881100  0.29454000  0.12122400  1
  O  O11  1  0.41709100  0.98690100  0.04971100  1
  O  O12  1  0.34751000  0.09518200  0.10799000  1
  O  O13  1  0.57201800  0.92794800  0.23482400  1
  O  O14  1  0.61634900  0.06952400  0.10041500  1
  O  O15  1  0.47838100  0.81171100  0.15334800  1
  O  O16  1  0.56256200  0.86213900  0.03846000  1
  O  O17  1  0.38060000  0.61407000  0.34368500  1
  O  O18  1  0.62991900  0.40645100  0.37529900  1
  O  O19  1  0.60681000  0.37932000  0.65311400  1
  O  O20  1  0.35775700  0.58760300  0.62160800  1
  O  O21  1  0.18466300  0.02628700  0.08050400  1
