# generated using pymatgen
data_Zn2H19C37N3O8
_symmetry_space_group_name_H-M   'P 1'
_cell_length_a   11.85891300
_cell_length_b   13.08246900
_cell_length_c   13.68517100
_cell_angle_alpha   88.60618400
_cell_angle_beta   109.22488300
_cell_angle_gamma   91.18899300
_symmetry_Int_Tables_number   1
_chemical_formula_structural   Zn2H19C37N3O8
_chemical_formula_sum   'Zn2 H19 C37 N3 O8'
_cell_volume   2003.99267399
_cell_formula_units_Z   1
loop_
 _symmetry_equiv_pos_site_id
 _symmetry_equiv_pos_as_xyz
  1  'x, y, z'
loop_
 _atom_site_type_symbol
 _atom_site_label
 _atom_site_symmetry_multiplicity
 _atom_site_fract_x
 _atom_site_fract_y
 _atom_site_fract_z
 _atom_site_occupancy
  Zn  Zn1  1  0.62690400  0.48467300  0.50705500  1
  Zn  Zn2  1  0.36501600  0.50269800  0.48574300  1
  H  H1  1  0.24595200  0.59925900  0.16417400  1
  H  H2  1  0.27238700  0.65118400  0.83760200  1
  H  H3  1  0.20952300  0.64228600  0.98305700  1
  H  H4  1  0.56657500  0.45279400  0.18117700  1
  H  H5  1  0.74039500  0.38505200  0.82154700  1
  H  H6  1  0.67087700  0.39811600  0.10088000  1
  H  H7  1  0.79217600  0.34646200  0.00462600  1
  H  H8  1  0.40527200  0.60825300  0.74835800  1
  H  H9  1  0.34460300  0.82992200  0.46040000  1
  H  H10  1  0.25225700  0.99375600  0.43418100  1
  H  H11  1  0.74010200  0.99691700  0.56487700  1
  H  H12  1  0.26854300  0.17987800  0.43462800  1
  H  H13  1  0.64909300  0.15859000  0.53307400  1
  H  H14  1  0.78313500  0.58860500  0.40556700  1
  H  H15  1  0.83461400  0.35684200  0.63372700  1
  H  H16  1  0.94725800  0.64490000  0.34781400  1
  H  H17  1  0.04474700  0.34257000  0.64526300  1
  H  H18  1  0.15741500  0.63071800  0.35942300  1
  H  H19  1  0.20881900  0.39869600  0.58732500  1
  C  C1  1  0.47208900  0.29437700  0.48538400  1
  C  C2  1  0.55318100  0.48168000  0.69874300  1
  C  C3  1  0.52041700  0.69347800  0.50806000  1
  C  C4  1  0.43898900  0.50747200  0.29468500  1
  C  C5  1  0.28771300  0.59878400  0.02497900  1
  C  C6  1  0.41024300  0.52319700  0.18268900  1
  C  C7  1  0.68525900  0.41479200  0.86304600  1
  C  C8  1  0.71426400  0.39180700  0.96641200  1
  C  C9  1  0.64299400  0.42258300  0.02115000  1
  C  C10  1  0.54215700  0.48138000  0.97402600  1
  C  C11  1  0.51527000  0.50798700  0.86919500  1
  C  C12  1  0.46724500  0.51384900  0.02857000  1
  C  C13  1  0.36713100  0.57038100  0.97650800  1
  C  C14  1  0.34684800  0.60221000  0.87609700  1
  C  C15  1  0.42177500  0.57430700  0.82405500  1
  C  C16  1  0.48895300  0.49265400  0.13379500  1
  C  C17  1  0.30791800  0.57397900  0.12723100  1
  C  C18  1  0.58469600  0.47053300  0.81239200  1
  C  C19  1  0.53396300  0.80606400  0.51239000  1
  C  C20  1  0.46018100  0.18254700  0.48320400  1
  C  C21  1  0.33962600  0.02985400  0.45592000  1
  C  C22  1  0.34902900  0.13527100  0.45629800  1
  C  C23  1  0.56132300  0.12330600  0.51050800  1
  C  C24  1  0.55159000  0.01813600  0.51147500  1
  C  C25  1  0.44112000  0.97105500  0.48381300  1
  C  C26  1  0.43223800  0.86549400  0.48399400  1
  C  C27  1  0.64561000  0.85500000  0.54284600  1
  C  C28  1  0.65307000  0.96013500  0.54135200  1
  C  C29  1  0.00383900  0.59004800  0.40105200  1
  C  C30  1  0.12188900  0.58194400  0.40749400  1
  C  C31  1  0.15037200  0.45274600  0.53453600  1
  C  C32  1  0.03285000  0.45923600  0.53001600  1
  C  C33  1  0.95914400  0.52817000  0.46299500  1
  C  C34  1  0.84160500  0.53461400  0.45842100  1
  C  C35  1  0.87013100  0.40556900  0.58561500  1
  C  C36  1  0.98816500  0.39740900  0.59200800  1
  C  C37  1  0.75633100  0.80075400  0.57964800  1
  N  N1  1  0.79903400  0.47364300  0.51938600  1
  N  N2  1  0.19296300  0.51380200  0.47364400  1
  N  N3  1  0.84581800  0.75764500  0.60949500  1
  O  O1  1  0.57759500  0.33511300  0.49715100  1
  O  O2  1  0.37813800  0.34905300  0.47843800  1
  O  O3  1  0.63925000  0.47716900  0.65833800  1
  O  O4  1  0.44065000  0.48912500  0.64136100  1
  O  O5  1  0.61298800  0.63823600  0.51267800  1
  O  O6  1  0.41492500  0.65231200  0.49704300  1
  O  O7  1  0.55135000  0.49633100  0.35126100  1
  O  O8  1  0.35252100  0.51159900  0.33450700  1
