# generated using pymatgen
data_ZnH12C26N3ClO4
_symmetry_space_group_name_H-M   'P 1'
_cell_length_a   13.30657300
_cell_length_b   13.38148500
_cell_length_c   16.46140100
_cell_angle_alpha   94.68680700
_cell_angle_beta   90.04553800
_cell_angle_gamma   90.61106000
_symmetry_Int_Tables_number   1
_chemical_formula_structural   ZnH12C26N3ClO4
_chemical_formula_sum   'Zn2 H24 C52 N6 Cl2 O8'
_cell_volume   2921.17385815
_cell_formula_units_Z   2
loop_
 _symmetry_equiv_pos_site_id
 _symmetry_equiv_pos_as_xyz
  1  'x, y, z'
loop_
 _atom_site_type_symbol
 _atom_site_label
 _atom_site_symmetry_multiplicity
 _atom_site_fract_x
 _atom_site_fract_y
 _atom_site_fract_z
 _atom_site_occupancy
  Zn  Zn1  1  0.51394600  0.88853800  0.49505500  1
  Zn  Zn2  1  0.48846000  0.11018700  0.50413400  1
  H  H1  1  0.66964400  0.03581500  0.00771100  1
  H  H2  1  0.99441900  0.96217200  0.72179500  1
  H  H3  1  0.32915900  0.95268200  0.99241100  1
  H  H4  1  0.99916100  0.02544600  0.27887300  1
  H  H5  1  0.93855900  0.96875800  0.95567700  1
  H  H6  1  0.05859800  0.02723900  0.04426700  1
  H  H7  1  0.39040600  0.89264800  0.11027400  1
  H  H8  1  0.17178800  0.03017200  0.33586200  1
  H  H9  1  0.84031800  0.00600100  0.34034200  1
  H  H10  1  0.53741000  0.04484500  0.26427400  1
  H  H11  1  0.58927100  0.05421800  0.12391700  1
  H  H12  1  0.82717200  0.96260200  0.66563800  1
  H  H13  1  0.46496900  0.95781800  0.73807100  1
  H  H14  1  0.40978900  0.94707800  0.87718300  1
  H  H15  1  0.44691500  0.89397100  0.25139600  1
  H  H16  1  0.55857800  0.11515500  0.74361900  1
  H  H17  1  0.32509400  0.25216300  0.49501300  1
  H  H18  1  0.67516900  0.73680900  0.50529600  1
  H  H19  1  0.75037700  0.57769100  0.51593100  1
  H  H20  1  0.73621600  0.39698400  0.52262500  1
  H  H21  1  0.32724400  0.42989300  0.48983200  1
  H  H22  1  0.34018700  0.58380700  0.48279400  1
  H  H23  1  0.63925800  0.24955800  0.51878900  1
  H  H24  1  0.36185500  0.75736700  0.48013100  1
  C  C1  1  0.81538700  0.02922700  0.21344300  1
  C  C2  1  0.74565200  0.03665100  0.15372900  1
  C  C3  1  0.79579600  0.03864400  0.08114700  1
  C  C4  1  0.90852600  0.03109600  0.17586000  1
  C  C5  1  0.75038900  0.03896400  0.00855100  1
  C  C6  1  0.79940600  0.03306600  0.92810800  1
  C  C7  1  0.75118300  0.04569600  0.85510900  1
  C  C8  1  0.81354200  0.00984200  0.79388500  1
  C  C9  1  0.90256100  0.98387000  0.83053500  1
  C  C10  1  0.99918900  0.96704700  0.78711900  1
  C  C11  1  0.09021900  0.96783800  0.82318700  1
  C  C12  1  0.18392000  0.96888900  0.78481900  1
  C  C13  1  0.25349000  0.96141300  0.84528900  1
  C  C14  1  0.20333200  0.96116200  0.91820300  1
  C  C15  1  0.24848200  0.95890200  0.99114700  1
  C  C16  1  0.20013500  0.96998600  0.07205800  1
  C  C17  1  0.24886300  0.95896700  0.14465400  1
  C  C18  1  0.18560700  0.98972800  0.20654200  1
  C  C19  1  0.09550200  0.01361000  0.17017900  1
  C  C20  1  0.99812400  0.02755900  0.21329600  1
  C  C21  1  0.34228000  0.92222000  0.15907900  1
  C  C22  1  0.37353200  0.92292200  0.23893300  1
  C  C23  1  0.31648400  0.96763300  0.30237700  1
  C  C24  1  0.21866900  0.99827200  0.28703400  1
  C  C25  1  0.78644200  0.01617600  0.29266300  1
  C  C26  1  0.68390200  0.01646500  0.30864100  1
  C  C27  1  0.61557100  0.03588300  0.24875800  1
  C  C28  1  0.64495400  0.04258900  0.16980400  1
  C  C29  1  0.66044500  0.08842800  0.83790400  1
  C  C30  1  0.63008400  0.08313400  0.75773800  1
  C  C31  1  0.68519600  0.03194700  0.69642700  1
  C  C32  1  0.78124800  0.99867200  0.71331500  1
  C  C33  1  0.21600900  0.98256900  0.70553000  1
  C  C34  1  0.31878900  0.98232900  0.69126800  1
  C  C35  1  0.38609600  0.96423700  0.75209900  1
  C  C36  1  0.35471900  0.95680400  0.83043500  1
  C  C37  1  0.36657100  0.98196800  0.38251100  1
  C  C38  1  0.64047700  0.00752000  0.38855900  1
  C  C39  1  0.63577100  0.01685600  0.61638800  1
  C  C40  1  0.36266900  0.99135600  0.61129700  1
  C  C41  1  0.57049800  0.29070300  0.51389300  1
  C  C42  1  0.39618000  0.29200200  0.50034300  1
  C  C43  1  0.39866100  0.39484100  0.49693800  1
  C  C44  1  0.48991100  0.44751300  0.50143000  1
  C  C45  1  0.57609100  0.39316700  0.51057700  1
  C  C46  1  0.41619100  0.61163100  0.48729100  1
  C  C47  1  0.49847900  0.55151400  0.49674500  1
  C  C48  1  0.59235400  0.59799900  0.50217200  1
  C  C49  1  0.67710200  0.54198900  0.51161900  1
  C  C50  1  0.66897700  0.44006300  0.51551500  1
  C  C51  1  0.42856700  0.71314400  0.48470700  1
  C  C52  1  0.60200600  0.70110900  0.49916900  1
  N  N1  1  0.89564200  0.03621200  0.09465800  1
  N  N2  1  0.89104900  0.99443800  0.91239100  1
  N  N3  1  0.10358300  0.96505400  0.90465300  1
  N  N4  1  0.10728000  0.00499000  0.08806700  1
  N  N5  1  0.48161000  0.24137000  0.50884000  1
  N  N6  1  0.52008900  0.75726400  0.49026300  1
  Cl  Cl1  1  0.58634300  0.15732200  0.91021700  1
  Cl  Cl2  1  0.13681300  0.00470800  0.62378200  1
  O  O1  1  0.38920300  0.07336800  0.41345400  1
  O  O2  1  0.40883200  0.90278500  0.40870900  1
  O  O3  1  0.61642800  0.91744400  0.40961200  1
  O  O4  1  0.59797500  0.08904600  0.42049700  1
  O  O5  1  0.61331800  0.92513600  0.58569300  1
  O  O6  1  0.59391600  0.09630800  0.59017400  1
  O  O7  1  0.38637700  0.08122700  0.58986600  1
  O  O8  1  0.40460000  0.90992200  0.57882900  1
