# generated using pymatgen
data_Fe2H14C36N4O21
_symmetry_space_group_name_H-M   'P 1'
_cell_length_a   15.37432100
_cell_length_b   16.98467800
_cell_length_c   11.78691200
_cell_angle_alpha   71.74829700
_cell_angle_beta   101.20394000
_cell_angle_gamma   109.31266900
_symmetry_Int_Tables_number   1
_chemical_formula_structural   Fe2H14C36N4O21
_chemical_formula_sum   'Fe2 H14 C36 N4 O21'
_cell_volume   2744.38740621
_cell_formula_units_Z   1
loop_
 _symmetry_equiv_pos_site_id
 _symmetry_equiv_pos_as_xyz
  1  'x, y, z'
loop_
 _atom_site_type_symbol
 _atom_site_label
 _atom_site_symmetry_multiplicity
 _atom_site_fract_x
 _atom_site_fract_y
 _atom_site_fract_z
 _atom_site_occupancy
  Fe  Fe1  1  0.50004700  0.99974200  0.74777900  1
  Fe  Fe2  1  0.50312900  0.00048200  0.25488800  1
  H  H1  1  0.79715900  0.03410000  0.26869000  1
  H  H2  1  0.83810600  0.00619100  0.88203300  1
  H  H3  1  0.95096700  0.93334300  0.94197800  1
  H  H4  1  0.20721700  0.97681500  0.72885600  1
  H  H5  1  0.16689400  0.99642300  0.12063900  1
  H  H6  1  0.50864900  0.73031700  0.41272600  1
  H  H7  1  0.48257400  0.56204800  0.76829300  1
  H  H8  1  0.48603400  0.68037800  0.84065300  1
  H  H9  1  0.51124200  0.43690200  0.23951000  1
  H  H10  1  0.44907400  0.32464100  0.09970000  1
  H  H11  1  0.55295400  0.27511900  0.65551200  1
  H  H12  1  0.96519500  0.99486700  0.29631200  1
  H  H13  1  0.07046800  0.15046900  0.98766700  1
  H  H14  1  0.01695000  0.90057400  0.76609100  1
  C  C1  1  0.80535300  0.02853300  0.18275700  1
  C  C2  1  0.89226100  0.03720000  0.15775600  1
  C  C3  1  0.90368600  0.02568700  0.05138900  1
  C  C4  1  0.82767800  0.00965400  0.96808600  1
  C  C5  1  0.73979700  0.00228300  0.99136300  1
  C  C6  1  0.72860200  0.00897900  0.10238300  1
  C  C7  1  0.99696000  0.03428500  0.02591900  1
  C  C8  1  0.01002300  0.98152000  0.97094200  1
  C  C9  1  0.11313400  0.97602900  0.83974700  1
  C  C10  1  0.19922800  0.98129100  0.81553500  1
  C  C11  1  0.27576900  0.99634600  0.89798100  1
  C  C12  1  0.26468000  0.00087900  0.01028900  1
  C  C13  1  0.17755800  0.99578200  0.03315800  1
  C  C14  1  0.10249900  0.98655600  0.94697100  1
  C  C15  1  0.48132400  0.12609800  0.54190500  1
  C  C16  1  0.36607900  0.01010400  0.86002900  1
  C  C17  1  0.66375800  0.99445800  0.89340400  1
  C  C18  1  0.50039800  0.84448000  0.71948300  1
  C  C19  1  0.50204800  0.15501300  0.28387300  1
  C  C20  1  0.34003200  0.00546400  0.10935400  1
  C  C21  1  0.63815900  0.99311500  0.14151900  1
  C  C22  1  0.52122800  0.87274800  0.46048100  1
  C  C23  1  0.50726900  0.78782600  0.54808900  1
  C  C24  1  0.50295800  0.71872300  0.50685800  1
  C  C25  1  0.49498800  0.63722100  0.58476500  1
  C  C26  1  0.48905000  0.62485700  0.70476800  1
  C  C27  1  0.49156500  0.69294000  0.74627000  1
  C  C28  1  0.50086800  0.77512400  0.66935500  1
  C  C29  1  0.49875500  0.43291900  0.46535300  1
  C  C30  1  0.49509900  0.56487500  0.54166800  1
  C  C31  1  0.50660100  0.37401200  0.30208300  1
  C  C32  1  0.50646900  0.30785800  0.25780700  1
  C  C33  1  0.49965400  0.22486900  0.33333333  1
  C  C34  1  0.49330100  0.21113900  0.45508800  1
  C  C35  1  0.49506500  0.27844700  0.49880200  1
  C  C36  1  0.50057300  0.36050100  0.42235900  1
  N  N1  1  0.48670500  0.48590300  0.61857800  1
  N  N2  1  0.48835900  0.42093900  0.58087300  1
  N  N3  1  0.50684900  0.51202200  0.38833500  1
  N  N4  1  0.50513400  0.57713000  0.42593000  1
  O  O1  1  0.54333000  0.11523900  0.63466400  1
  O  O2  1  0.43285600  0.08154600  0.86438400  1
  O  O3  1  0.40333600  0.06440000  0.53579900  1
  O  O4  1  0.37615600  0.95695100  0.80652500  1
  O  O5  1  0.58273800  0.00122300  0.90187800  1
  O  O6  1  0.67979500  0.98867200  0.79140000  1
  O  O7  1  0.50162500  0.92223700  0.65063900  1
  O  O8  1  0.49628000  0.82779300  0.83511900  1
  O  O9  1  0.49975700  0.07691300  0.35293700  1
  O  O10  1  0.50791300  0.17066300  0.16892100  1
  O  O11  1  0.42115500  0.99940400  0.10009500  1
  O  O12  1  0.32387400  0.00967500  0.21225800  1
  O  O13  1  0.59879400  0.93445700  0.46902600  1
  O  O14  1  0.62739100  0.04482900  0.19694600  1
  O  O15  1  0.46018700  0.88425100  0.36675700  1
  O  O16  1  0.57229300  0.92120500  0.13664300  1
  O  O17  1  0.51283300  0.32642500  0.13769800  1
  O  O18  1  0.48802900  0.26127200  0.61852700  1
  O  O19  1  0.96605400  0.05281400  0.24178300  1
  O  O20  1  0.07037600  0.09887500  0.05649900  1
  O  O21  1  0.03917100  0.96402100  0.75491300  1
