# generated using pymatgen
data_V2H11C19NO11
_symmetry_space_group_name_H-M   'P 1'
_cell_length_a   13.28804800
_cell_length_b   15.76486900
_cell_length_c   6.31350100
_cell_angle_alpha   90.00000000
_cell_angle_beta   80.15584300
_cell_angle_gamma   90.00000000
_symmetry_Int_Tables_number   1
_chemical_formula_structural   V2H11C19NO11
_chemical_formula_sum   'V4 H22 C38 N2 O22'
_cell_volume   1303.10646920
_cell_formula_units_Z   2
loop_
 _symmetry_equiv_pos_site_id
 _symmetry_equiv_pos_as_xyz
  1  'x, y, z'
loop_
 _atom_site_type_symbol
 _atom_site_label
 _atom_site_symmetry_multiplicity
 _atom_site_fract_x
 _atom_site_fract_y
 _atom_site_fract_z
 _atom_site_occupancy
  V  V1  1  0.26363700  0.49481400  0.12085500  1
  V  V2  1  0.73636400  0.99481400  0.87914400  1
  V  V3  1  0.23885500  0.49466100  0.62984900  1
  V  V4  1  0.76114500  0.99466100  0.37015100  1
  H  H1  1  0.02039600  0.65739400  0.66318200  1
  H  H2  1  0.97960400  0.15739400  0.33681700  1
  H  H3  1  0.16139400  0.65387000  0.29285900  1
  H  H4  1  0.83860600  0.15387000  0.70714000  1
  H  H5  1  0.14043700  0.73964100  0.62186700  1
  H  H6  1  0.85956300  0.23964100  0.37813300  1
  H  H7  1  0.01406000  0.85489000  0.67464400  1
  H  H8  1  0.98594000  0.35489000  0.32535500  1
  H  H9  1  0.91055100  0.88500600  0.39923900  1
  H  H10  1  0.08944900  0.38500600  0.60076100  1
  H  H11  1  0.89229300  0.77112600  0.71613600  1
  H  H12  1  0.10770700  0.27112600  0.28386300  1
  H  H13  1  0.60484100  0.77216900  0.32776800  1
  H  H14  1  0.39516000  0.27216900  0.67223100  1
  H  H15  1  0.45456100  0.66227300  0.65363000  1
  H  H16  1  0.54543900  0.16227300  0.34636900  1
  H  H17  1  0.45473000  0.71495600  0.18877400  1
  H  H18  1  0.54527100  0.21495600  0.81122500  1
  H  H19  1  0.36051200  0.76661700  0.01357600  1
  H  H20  1  0.36658400  0.77173700  0.74507400  1
  H  H21  1  0.63948800  0.26661700  0.98642400  1
  H  H22  1  0.63341700  0.27173700  0.25492500  1
  C  C1  1  0.35608200  0.61247900  0.34614400  1
  C  C2  1  0.64391800  0.11247900  0.65385500  1
  C  C3  1  0.35521000  0.37786700  0.38355200  1
  C  C4  1  0.64479100  0.87786700  0.61644700  1
  C  C5  1  0.14932000  0.37627000  0.95526700  1
  C  C6  1  0.85068000  0.87627000  0.04473200  1
  C  C7  1  0.14714000  0.61250900  0.92387000  1
  C  C8  1  0.85286000  0.11250900  0.07612900  1
  C  C9  1  0.10799300  0.70575300  0.31316200  1
  C  C10  1  0.89200700  0.20575300  0.68683700  1
  C  C11  1  0.09572500  0.75364200  0.49831700  1
  C  C12  1  0.90427500  0.25364200  0.50168200  1
  C  C13  1  0.02490200  0.81816800  0.52791100  1
  C  C14  1  0.97509800  0.31816800  0.47208900  1
  C  C15  1  0.96709000  0.83538200  0.37146100  1
  C  C16  1  0.03291100  0.33538200  0.62853800  1
  C  C17  1  0.98107100  0.78889100  0.18310900  1
  C  C18  1  0.01893000  0.28889100  0.81689000  1
  C  C19  1  0.05157700  0.72349700  0.15469600  1
  C  C20  1  0.94842300  0.22349700  0.84530400  1
  C  C21  1  0.06741200  0.67740700  0.96559300  1
  C  C22  1  0.93258900  0.17740700  0.03440700  1
  C  C23  1  0.00971700  0.69462100  0.80908800  1
  C  C24  1  0.99028300  0.19462100  0.19091200  1
  C  C25  1  0.93721400  0.75791100  0.83980700  1
  C  C26  1  0.06278600  0.25791100  0.16019300  1
  C  C27  1  0.92411900  0.80642200  0.02420100  1
  C  C28  1  0.07588200  0.30642200  0.97579800  1
  C  C29  1  0.43428300  0.67817000  0.33467500  1
  C  C30  1  0.56571800  0.17817000  0.66532500  1
  C  C31  1  0.47850700  0.69531800  0.50301100  1
  C  C32  1  0.52149400  0.19531800  0.49698900  1
  C  C33  1  0.56769900  0.81097300  0.64740500  1
  C  C34  1  0.43230100  0.31097300  0.35259400  1
  C  C35  1  0.55752800  0.76094900  0.48291100  1
  C  C36  1  0.44247200  0.26094900  0.51708900  1
  C  C37  1  0.49454000  0.80690500  0.84916300  1
  C  C38  1  0.50546000  0.30690500  0.15083600  1
  N  N1  1  0.40676400  0.75369500  0.86617000  1
  N  N2  1  0.59323600  0.25369500  0.13382900  1
  O  O1  1  0.29391000  0.37981900  0.57181300  1
  O  O2  1  0.70609000  0.87981900  0.42818600  1
  O  O3  1  0.30186000  0.61107500  0.19343000  1
  O  O4  1  0.69814000  0.11107500  0.80657000  1
  O  O5  1  0.13885100  0.54422100  0.04306600  1
  O  O6  1  0.86114900  0.04422100  0.95693400  1
  O  O7  1  0.37283900  0.44636900  0.26055100  1
  O  O8  1  0.62716100  0.94636900  0.73944900  1
  O  O9  1  0.20895300  0.37929400  0.10256200  1
  O  O10  1  0.79104700  0.87929400  0.89743700  1
  O  O11  1  0.36386200  0.54484200  0.46195700  1
  O  O12  1  0.63613800  0.04484200  0.53804200  1
  O  O13  1  0.17218200  0.49295000  0.42807100  1
  O  O14  1  0.82781900  0.99295000  0.57192800  1
  O  O15  1  0.12961900  0.44540800  0.84875400  1
  O  O16  1  0.87038100  0.94540800  0.15124500  1
  O  O17  1  0.20027500  0.61039500  0.73072000  1
  O  O18  1  0.79972600  0.11039500  0.26928000  1
  O  O19  1  0.33034100  0.49339800  0.87128200  1
  O  O20  1  0.66965900  0.99339800  0.12871700  1
  O  O21  1  0.50598400  0.85253900  0.99909800  1
  O  O22  1  0.49401600  0.35253900  0.00090200  1
