# generated using pymatgen
data_ZnH9C17N(ClO2)2
_symmetry_space_group_name_H-M   'P 1'
_cell_length_a   10.01262900
_cell_length_b   11.25194800
_cell_length_c   16.02087000
_cell_angle_alpha   89.98966300
_cell_angle_beta   80.79666000
_cell_angle_gamma   92.44756900
_symmetry_Int_Tables_number   1
_chemical_formula_structural   ZnH9C17N(ClO2)2
_chemical_formula_sum   'Zn2 H18 C34 N2 Cl4 O8'
_cell_volume   1780.03110283
_cell_formula_units_Z   2
loop_
 _symmetry_equiv_pos_site_id
 _symmetry_equiv_pos_as_xyz
  1  'x, y, z'
loop_
 _atom_site_type_symbol
 _atom_site_label
 _atom_site_symmetry_multiplicity
 _atom_site_fract_x
 _atom_site_fract_y
 _atom_site_fract_z
 _atom_site_occupancy
  Zn  Zn1  1  0.34520900  0.52325500  0.51636700  1
  Zn  Zn2  1  0.64780800  0.48194800  0.48434600  1
  H  H1  1  0.39986400  0.68305300  0.06281700  1
  H  H2  1  0.59314600  0.32214700  0.93789500  1
  H  H3  1  0.72268800  0.48474200  0.03481800  1
  H  H4  1  0.27032100  0.52045900  0.96589500  1
  H  H5  1  0.61863700  0.09759300  0.48804900  1
  H  H6  1  0.37437500  0.90761900  0.51266500  1
  H  H7  1  0.30969700  0.11136400  0.51834800  1
  H  H8  1  0.68332300  0.89384200  0.48236400  1
  H  H9  1  0.11316300  0.43088500  0.44657900  1
  H  H10  1  0.87985400  0.57431400  0.55413000  1
  H  H11  1  0.09939700  0.60905000  0.58122800  1
  H  H12  1  0.89361900  0.39615600  0.41948700  1
  H  H13  1  0.83728700  0.92745300  0.02362100  1
  H  H14  1  0.80397700  0.85867200  0.76690600  1
  H  H15  1  0.66087100  0.68449400  0.80855300  1
  H  H16  1  0.15573000  0.07774500  0.97708800  1
  H  H17  1  0.18904600  0.14651800  0.23380400  1
  H  H18  1  0.33214200  0.32070200  0.19216000  1
  C  C1  1  0.54863900  0.73251300  0.49591600  1
  C  C2  1  0.44438000  0.27268600  0.50479600  1
  C  C3  1  0.49887900  0.50081100  0.66320200  1
  C  C4  1  0.49413900  0.50439100  0.33751000  1
  C  C5  1  0.44437800  0.60121600  0.03392700  1
  C  C6  1  0.54863300  0.40398400  0.96678600  1
  C  C7  1  0.57325000  0.59516000  0.96998100  1
  C  C8  1  0.41976100  0.41004100  0.03073000  1
  C  C9  1  0.50005900  0.50135900  0.75263800  1
  C  C10  1  0.49295700  0.50384100  0.24807400  1
  C  C11  1  0.37312400  0.51197200  0.98209800  1
  C  C12  1  0.61988600  0.49322900  0.01861400  1
  C  C13  1  0.50249500  0.50661700  0.91900300  1
  C  C14  1  0.49051600  0.49858200  0.08170800  1
  C  C15  1  0.50130700  0.50333000  0.82774100  1
  C  C16  1  0.49170600  0.50187000  0.17297100  1
  C  C17  1  0.57849000  0.86129100  0.49286300  1
  C  C18  1  0.41452900  0.14390700  0.50785000  1
  C  C19  1  0.47975500  0.93844200  0.50227800  1
  C  C20  1  0.51326400  0.06675500  0.49843400  1
  C  C21  1  0.92334000  0.51183600  0.50700700  1
  C  C22  1  0.06967800  0.49336700  0.49370500  1
  C  C23  1  0.66349900  0.70352900  0.94216800  1
  C  C24  1  0.71574000  0.77372200  0.00179700  1
  C  C25  1  0.79756700  0.87329700  0.97678500  1
  C  C26  1  0.82907400  0.90414300  0.89268600  1
  C  C27  1  0.77892400  0.83503100  0.83313900  1
  C  C28  1  0.69685400  0.73556600  0.85751500  1
  C  C29  1  0.32951500  0.30166900  0.05854300  1
  C  C30  1  0.27727100  0.23147800  0.99891300  1
  C  C31  1  0.19545000  0.13190100  0.02392500  1
  C  C32  1  0.16394700  0.10105300  0.10802500  1
  C  C33  1  0.21409500  0.17016400  0.16757100  1
  C  C34  1  0.29616400  0.26963000  0.14319500  1
  N  N1  1  0.84635500  0.45423000  0.46301700  1
  N  N2  1  0.14666000  0.55097400  0.53769500  1
  Cl  Cl1  1  0.68118100  0.73985500  0.11009200  1
  Cl  Cl2  1  0.93262200  0.03087600  0.86154700  1
  Cl  Cl3  1  0.31182700  0.26535000  0.89062000  1
  Cl  Cl4  1  0.06040600  0.97431600  0.13916300  1
  O  O1  1  0.42166200  0.69324100  0.50914400  1
  O  O2  1  0.57135600  0.31196200  0.49156800  1
  O  O3  1  0.65116800  0.66213300  0.48484900  1
  O  O4  1  0.34184700  0.34306800  0.51586200  1
  O  O5  1  0.38366900  0.51691900  0.63661200  1
  O  O6  1  0.60934800  0.48828300  0.36410000  1
  O  O7  1  0.61328300  0.48576400  0.61240900  1
  O  O8  1  0.37973300  0.51943800  0.38830400  1
