# generated using pymatgen
data_Zn4H36C30O13
_symmetry_space_group_name_H-M   'P 1'
_cell_length_a   21.65949300
_cell_length_b   20.39512900
_cell_length_c   18.38276300
_cell_angle_alpha   89.87413000
_cell_angle_beta   115.07278200
_cell_angle_gamma   108.83350200
_symmetry_Int_Tables_number   1
_chemical_formula_structural   Zn4H36C30O13
_chemical_formula_sum   'Zn16 H144 C120 O52'
_cell_volume   6875.20494446
_cell_formula_units_Z   4
loop_
 _symmetry_equiv_pos_site_id
 _symmetry_equiv_pos_as_xyz
  1  'x, y, z'
loop_
 _atom_site_type_symbol
 _atom_site_label
 _atom_site_symmetry_multiplicity
 _atom_site_fract_x
 _atom_site_fract_y
 _atom_site_fract_z
 _atom_site_occupancy
  Zn  Zn1  1  0.90410600  0.36834000  0.41471600  1
  Zn  Zn2  1  0.05592100  0.44357600  0.54861200  1
  Zn  Zn3  1  0.94433300  0.51751000  0.47070200  1
  Zn  Zn4  1  0.93412600  0.41813100  0.59486000  1
  Zn  Zn5  1  0.40600000  0.42195700  0.19691300  1
  Zn  Zn6  1  0.44653400  0.57202800  0.18330500  1
  Zn  Zn7  1  0.29516900  0.49719800  0.16278600  1
  Zn  Zn8  1  0.41477700  0.52049000  0.33146200  1
  Zn  Zn9  1  0.01612200  0.89687600  0.85514400  1
  Zn  Zn10  1  0.00098800  0.01981300  0.76771500  1
  Zn  Zn11  1  0.86347500  0.90551800  0.73398500  1
  Zn  Zn12  1  0.95035400  0.99255500  0.90159100  1
  Zn  Zn13  1  0.34974400  0.92375900  0.44635800  1
  Zn  Zn14  1  0.49065200  0.03660300  0.54571800  1
  Zn  Zn15  1  0.34129800  0.05057200  0.51810300  1
  Zn  Zn16  1  0.40428200  0.95432700  0.63097200  1
  H  H1  1  0.67408800  0.34846200  0.26587100  1
  H  H2  1  0.68137400  0.37728100  0.17577700  1
  H  H3  1  0.56870700  0.38259800  0.13491500  1
  H  H4  1  0.57343700  0.37308700  0.23475500  1
  H  H5  1  0.70730700  0.43909000  0.37901300  1
  H  H6  1  0.61551200  0.48136200  0.33449600  1
  H  H7  1  0.77821000  0.56608200  0.26151800  1
  H  H8  1  0.75469100  0.50058600  0.17922300  1
  H  H9  1  0.63836100  0.50019500  0.11444300  1
  H  H10  1  0.66927300  0.57791100  0.18588000  1
  H  H11  1  0.76521300  0.52795600  0.38851700  1
  H  H12  1  0.67111300  0.56297000  0.32035700  1
  H  H13  1  0.21772800  0.43237800  0.79474400  1
  H  H14  1  0.16231600  0.39089800  0.84395700  1
  H  H15  1  0.26427800  0.44100100  0.96373900  1
  H  H16  1  0.31234300  0.49332000  0.91262100  1
  H  H17  1  0.23026700  0.55603700  0.76965300  1
  H  H18  1  0.31468500  0.61315400  0.89627500  1
  H  H19  1  0.08919300  0.53247700  0.84170700  1
  H  H20  1  0.07998000  0.44357500  0.86069800  1
  H  H21  1  0.17027400  0.48181800  0.98513800  1
  H  H22  1  0.17247600  0.56978600  0.97018400  1
  H  H23  1  0.16956000  0.59438100  0.77953800  1
  H  H24  1  0.24950000  0.64144700  0.91137900  1
  H  H25  1  0.11157700  0.38942400  0.20584400  1
  H  H26  1  0.11616500  0.47833700  0.22323400  1
  H  H27  1  0.03368000  0.44402400  0.27262300  1
  H  H28  1  0.02043800  0.35414700  0.24342600  1
  H  H29  1  0.19907600  0.34384100  0.31390500  1
  H  H30  1  0.10063600  0.29784600  0.33837600  1
  H  H31  1  0.26067500  0.51731600  0.43790000  1
  H  H32  1  0.19671500  0.54816300  0.35955900  1
  H  H33  1  0.11852500  0.50338400  0.41226900  1
  H  H34  1  0.18008100  0.46463900  0.48245900  1
  H  H35  1  0.25299400  0.39414600  0.41466800  1
  H  H36  1  0.15938200  0.33817300  0.44307200  1
  H  H37  1  0.87622900  0.15352600  0.44610500  1
  H  H38  1  0.78130700  0.13548200  0.41958700  1
  H  H39  1  0.77031300  0.03220000  0.47035100  1
  H  H40  1  0.85756200  0.04231600  0.47371400  1
  H  H41  1  0.97245800  0.22943200  0.57975900  1
  H  H42  1  0.97024000  0.12127800  0.59247000  1
  H  H43  1  0.81702000  0.20678800  0.62823500  1
  H  H44  1  0.74843900  0.15270100  0.53248100  1
  H  H45  1  0.76183700  0.05914000  0.59719200  1
  H  H46  1  0.84386100  0.11415400  0.68360600  1
  H  H47  1  0.94636600  0.23460700  0.66013000  1
  H  H48  1  0.96706000  0.13904900  0.68774100  1
  H  H49  1  0.86557200  0.64987100  0.51979500  1
  H  H50  1  0.95998200  0.67898800  0.59832300  1
  H  H51  1  0.93933500  0.77025500  0.63206200  1
  H  H52  1  0.84141800  0.72881900  0.57422600  1
  H  H53  1  0.76763100  0.57975600  0.55984600  1
  H  H54  1  0.76731800  0.66559500  0.63976400  1
  H  H55  1  0.91997300  0.57184000  0.74828300  1
  H  H56  1  0.99145800  0.61405200  0.71901100  1
  H  H57  1  0.00111400  0.72138400  0.75962500  1
  H  H58  1  0.94823700  0.67820400  0.81221000  1
  H  H59  1  0.79099700  0.53638500  0.64835000  1
  H  H60  1  0.81052200  0.63194000  0.73157800  1
  H  H61  1  0.15716500  0.69389800  0.62315900  1
  H  H62  1  0.10503400  0.71945800  0.52857100  1
  H  H63  1  0.20320500  0.81415100  0.55456000  1
  H  H64  1  0.25712600  0.78342600  0.64370500  1
  H  H65  1  0.23578000  0.62596700  0.62634400  1
  H  H66  1  0.33045900  0.71616400  0.63244000  1
  H  H67  1  0.14436300  0.61808200  0.39803600  1
  H  H68  1  0.09253900  0.67096900  0.40027600  1
  H  H69  1  0.18267600  0.76695900  0.41519500  1
  H  H70  1  0.23377200  0.71359400  0.40811500  1
  H  H71  1  0.22764200  0.58822700  0.53218200  1
  H  H72  1  0.31520400  0.68184900  0.53290000  1
  H  H73  1  0.13126000  0.13278900  0.02637300  1
  H  H74  1  0.07724100  0.17553400  0.04693500  1
  H  H75  1  0.17958800  0.26072900  0.12780400  1
  H  H76  1  0.23259400  0.22367600  0.09809400  1
  H  H77  1  0.16644700  0.16624300  0.91067300  1
  H  H78  1  0.26047300  0.26050000  0.98682400  1
  H  H79  1  0.04392800  0.26828700  0.86684700  1
  H  H80  1  0.01718200  0.24349700  0.94698400  1
  H  H81  1  0.11271100  0.33205200  0.03599400  1
  H  H82  1  0.13400000  0.36145800  0.95333500  1
  H  H83  1  0.12667900  0.22246800  0.84328700  1
  H  H84  1  0.21887700  0.31628400  0.92255600  1
  H  H85  1  0.39608200  0.26053700  0.31249200  1
  H  H86  1  0.35302200  0.30004300  0.35626500  1
  H  H87  1  0.35888300  0.22748100  0.44685000  1
  H  H88  1  0.37221800  0.17424400  0.37981300  1
  H  H89  1  0.52998800  0.31616500  0.35784600  1
  H  H90  1  0.50372600  0.20892800  0.39655300  1
  H  H91  1  0.53186700  0.40828500  0.53518400  1
  H  H92  1  0.43448100  0.36914900  0.50152700  1
  H  H93  1  0.46049600  0.28637600  0.58096400  1
  H  H94  1  0.55220000  0.31266500  0.59118000  1
  H  H95  1  0.58569100  0.36077900  0.46141500  1
  H  H96  1  0.57863300  0.25214200  0.49502600  1
  H  H97  1  0.40931100  0.75425100  0.24400600  1
  H  H98  1  0.50073900  0.78896000  0.25285700  1
  H  H99  1  0.52218900  0.89635200  0.31003500  1
  H  H100  1  0.42499800  0.86723000  0.27623500  1
  H  H101  1  0.38880900  0.69271000  0.35833400  1
  H  H102  1  0.37536700  0.79304900  0.36232300  1
  H  H103  1  0.59081500  0.76386900  0.47113800  1
  H  H104  1  0.60532700  0.80824500  0.39155800  1
  H  H105  1  0.60687300  0.90587800  0.45544400  1
  H  H106  1  0.57088100  0.85516200  0.51856500  1
  H  H107  1  0.46694300  0.71652300  0.45778900  1
  H  H108  1  0.43287100  0.80643800  0.47086000  1
  H  H109  1  0.75193600  0.98388800  0.92914400  1
  H  H110  1  0.68012500  0.89953600  0.88083200  1
  H  H111  1  0.60186100  0.95955000  0.85354700  1
  H  H112  1  0.67372700  0.04372100  0.87589800  1
  H  H113  1  0.78896700  0.06269700  0.84052600  1
  H  H114  1  0.69748400  0.09635300  0.75991500  1
  H  H115  1  0.68156700  0.90606300  0.67818000  1
  H  H116  1  0.65704300  0.84527600  0.74249700  1
  H  H117  1  0.56519100  0.87951600  0.72943900  1
  H  H118  1  0.57347000  0.91566100  0.64260900  1
  H  H119  1  0.78132900  0.02516100  0.74660400  1
  H  H120  1  0.67343400  0.03451400  0.67253000  1
  H  H121  1  0.13204000  0.85728500  0.26667400  1
  H  H122  1  0.19614800  0.87603900  0.22362200  1
  H  H123  1  0.09958100  0.84256700  0.10345000  1
  H  H124  1  0.03852600  0.84932800  0.14403300  1
  H  H125  1  0.08541700  0.95340700  0.28043000  1
  H  H126  1  0.01359900  0.95839300  0.14946700  1
  H  H127  1  0.23070500  0.06803600  0.23450300  1
  H  H128  1  0.27195800  0.00398300  0.23401000  1
  H  H129  1  0.19211600  0.95579500  0.10347500  1
  H  H130  1  0.17097200  0.03495700  0.09753100  1
  H  H131  1  0.13810900  0.04411900  0.28553900  1
  H  H132  1  0.07989600  0.03963900  0.14915600  1
  H  H133  1  0.08671800  0.94546100  0.64283000  1
  H  H134  1  0.12990400  0.88325000  0.68719500  1
  H  H135  1  0.18931300  0.91605800  0.60950300  1
  H  H136  1  0.16627800  0.99409800  0.59171100  1
  H  H137  1  0.15995900  0.07451700  0.70506800  1
  H  H138  1  0.25674300  0.10866800  0.68100900  1
  H  H139  1  0.27311000  0.00162300  0.87590000  1
  H  H140  1  0.22216500  0.91023300  0.83095400  1
  H  H141  1  0.28080200  0.91432200  0.75335100  1
  H  H142  1  0.34580200  0.99673300  0.81784700  1
  H  H143  1  0.22401400  0.09531900  0.81204100  1
  H  H144  1  0.31831100  0.10435500  0.78345000  1
  C  C1  1  0.88922900  0.54013000  0.58514200  1
  C  C2  1  0.09142200  0.45621800  0.72007800  1
  C  C3  1  0.86312500  0.26567800  0.51853600  1
  C  C4  1  0.04171700  0.37423900  0.40594600  1
  C  C5  1  0.80945400  0.45001600  0.32393400  1
  C  C6  1  0.09562300  0.58498800  0.50977700  1
  C  C7  1  0.25636700  0.47872300  0.29692000  1
  C  C8  1  0.48613900  0.67329200  0.32816300  1
  C  C9  1  0.46261800  0.39996200  0.36707400  1
  C  C10  1  0.54059000  0.49067600  0.18496700  1
  C  C11  1  0.25549800  0.35877300  0.07818500  1
  C  C12  1  0.31053500  0.56953300  0.03956800  1
  C  C13  1  0.79379300  0.93051400  0.83027000  1
  C  C14  1  0.02945300  0.13212300  0.88600900  1
  C  C15  1  0.04558100  0.93532800  0.02631400  1
  C  C16  1  0.12089700  0.97451600  0.79276100  1
  C  C17  1  0.89553400  0.77472700  0.73752100  1
  C  C18  1  0.87643000  0.01145600  0.62318300  1
  C  C19  1  0.31320800  0.01652600  0.66151900  1
  C  C20  1  0.56095500  0.01182200  0.71182000  1
  C  C21  1  0.31611600  0.81525200  0.53835500  1
  C  C22  1  0.47343400  0.92482500  0.42578800  1
  C  C23  1  0.23666900  0.97655000  0.34976000  1
  C  C24  1  0.46266300  0.16899700  0.51829600  1
  C  C25  1  0.67447600  0.39173100  0.22925300  1
  C  C26  1  0.60206800  0.40321200  0.20081200  1
  C  C27  1  0.71857400  0.48273500  0.34497300  1
  C  C28  1  0.73798800  0.51477200  0.22445400  1
  C  C29  1  0.73595700  0.45879300  0.27977600  1
  C  C30  1  0.61385400  0.48113300  0.21638900  1
  C  C31  1  0.65297900  0.50502800  0.30733000  1
  C  C32  1  0.66290800  0.52173900  0.17980900  1
  C  C33  1  0.19681600  0.44191800  0.83774300  1
  C  C34  1  0.26141000  0.47795900  0.91966200  1
  C  C35  1  0.20211100  0.56070500  0.80656900  1
  C  C36  1  0.11861100  0.49522500  0.86154600  1
  C  C37  1  0.15134800  0.48778800  0.80548900  1
  C  C38  1  0.25431800  0.54279400  0.95093200  1
  C  C39  1  0.25956400  0.59543300  0.89356200  1
  C  C40  1  0.17855300  0.52300800  0.94746700  1
  C  C41  1  0.12062500  0.43107300  0.25186100  1
  C  C42  1  0.06115700  0.40526800  0.28053100  1
  C  C43  1  0.20090100  0.38171900  0.35863100  1
  C  C44  1  0.20515000  0.50132400  0.38658900  1
  C  C45  1  0.19652600  0.44860900  0.32307700  1
  C  C46  1  0.09539200  0.39727200  0.36953100  1
  C  C47  1  0.13747800  0.34835000  0.37942700  1
  C  C48  1  0.14966200  0.46880200  0.41773500  1
  C  C49  1  0.83465900  0.13867300  0.46921100  1
  C  C50  1  0.82852400  0.06655900  0.49605800  1
  C  C51  1  0.93270800  0.20263900  0.60302300  1
  C  C52  1  0.80559900  0.16628600  0.57952100  1
  C  C53  1  0.85693600  0.19350600  0.54085600  1
  C  C54  1  0.86236500  0.07558800  0.58818300  1
  C  C55  1  0.93784100  0.13275100  0.62079000  1
  C  C56  1  0.81596200  0.10086200  0.61634600  1
  C  C57  1  0.90187000  0.66159000  0.58626300  1
  C  C58  1  0.89175300  0.72192300  0.61946800  1
  C  C59  1  0.80819800  0.58507200  0.62382500  1
  C  C60  1  0.93856800  0.61298400  0.71497100  1
  C  C61  1  0.88269100  0.59798600  0.62727300  1
  C  C62  1  0.88578100  0.70677100  0.69660500  1
  C  C63  1  0.81332800  0.64780800  0.67499300  1
  C  C64  1  0.94797500  0.68336500  0.75197500  1
  C  C65  1  0.15492000  0.70721100  0.56377600  1
  C  C66  1  0.22055000  0.76959400  0.57743400  1
  C  C67  1  0.22721900  0.63404800  0.56354000  1
  C  C68  1  0.14468200  0.66200800  0.43323700  1
  C  C69  1  0.15580300  0.64703900  0.51728300  1
  C  C70  1  0.25851100  0.75131600  0.53173300  1
  C  C71  1  0.28953900  0.69650200  0.56809900  1
  C  C72  1  0.20614300  0.72661800  0.44190300  1
  C  C73  1  0.11763000  0.18102800  0.02307500  1
  C  C74  1  0.18517000  0.24118100  0.07548500  1
  C  C75  1  0.14726700  0.21107200  0.90658200  1
  C  C76  1  0.06248600  0.25609800  0.92975600  1
  C  C77  1  0.08871600  0.19574700  0.93601100  1
  C  C78  1  0.19432000  0.29800500  0.02455200  1
  C  C79  1  0.21082300  0.27445500  0.95949300  1
  C  C80  1  0.12605500  0.31759600  0.98770600  1
  C  C81  1  0.39971200  0.28251400  0.36995300  1
  C  C82  1  0.39537800  0.22538400  0.41971900  1
  C  C83  1  0.53244100  0.32106200  0.41915900  1
  C  C84  1  0.48291700  0.36043200  0.50291300  1
  C  C85  1  0.47104000  0.34306300  0.41652500  1
  C  C86  1  0.47107600  0.23595100  0.48508700  1
  C  C87  1  0.52452300  0.25053400  0.44863500  1
  C  C88  1  0.49393600  0.29874400  0.54739000  1
  C  C89  1  0.46736900  0.78383900  0.28604000  1
  C  C90  1  0.47544300  0.85716500  0.31510300  1
  C  C91  1  0.44260100  0.73322400  0.39781000  1
  C  C92  1  0.56846100  0.79249000  0.42088200  1
  C  C93  1  0.49271800  0.74532600  0.35805300  1
  C  C94  1  0.48861600  0.86268400  0.40293400  1
  C  C95  1  0.43085700  0.79978400  0.40991800  1
  C  C96  1  0.56342600  0.85852300  0.45534200  1
  C  C97  1  0.70504800  0.95349500  0.87122200  1
  C  C98  1  0.64894700  0.98949000  0.84240700  1
  C  C99  1  0.75258100  0.02346400  0.78448200  1
  C  C100  1  0.66839800  0.90022300  0.73056000  1
  C  C101  1  0.72957300  0.95053600  0.80554800  1
  C  C102  1  0.62484800  0.99147400  0.75207300  1
  C  C103  1  0.68623700  0.04117300  0.73788600  1
  C  C104  1  0.60191600  0.91814400  0.70942300  1
  C  C105  1  0.15269700  0.89069700  0.22828000  1
  C  C106  1  0.09171000  0.87629000  0.14352100  1
  C  C107  1  0.11824100  0.98972700  0.25439700  1
  C  C108  1  0.21964200  0.01167400  0.21832100  1
  C  C109  1  0.18157700  0.96833400  0.26413400  1
  C  C110  1  0.09418400  0.94569600  0.11477500  1
  C  C111  1  0.07172400  0.98559700  0.16379300  1
  C  C112  1  0.17102700  0.98822100  0.12842500  1
  C  C113  1  0.13964700  0.93922700  0.68030500  1
  C  C114  1  0.18818300  0.96274900  0.63887200  1
  C  C115  1  0.20410000  0.06122000  0.75389100  1
  C  C116  1  0.24096300  0.96429800  0.81801400  1
  C  C117  1  0.17672500  0.98386300  0.76300800  1
  C  C118  1  0.26457500  0.00671400  0.70141300  1
  C  C119  1  0.26538100  0.07606700  0.73020400  1
  C  C120  1  0.28787600  0.96839200  0.77438500  1
  O  O1  1  0.95800300  0.43625300  0.50809600  1
  O  O2  1  0.97251800  0.37031600  0.36602700  1
  O  O3  1  0.11149300  0.53196800  0.54160500  1
  O  O4  1  0.86416300  0.50701800  0.36782400  1
  O  O5  1  0.07234800  0.38316400  0.48577700  1
  O  O6  1  0.81601300  0.38803300  0.33761800  1
  O  O7  1  0.02904800  0.58529500  0.47482800  1
  O  O8  1  0.91897000  0.56080300  0.53643200  1
  O  O9  1  0.88197400  0.31666400  0.57752200  1
  O  O10  1  0.88322600  0.47790200  0.60887100  1
  O  O11  1  0.87218700  0.27952100  0.45217000  1
  O  O12  1  0.11003200  0.44670200  0.66290300  1
  O  O13  1  0.02250000  0.44624200  0.70089000  1
  O  O14  1  0.39228300  0.50298600  0.22145700  1
  O  O15  1  0.48474200  0.43360500  0.17086200  1
  O  O16  1  0.37857100  0.57051500  0.06657100  1
  O  O17  1  0.24098100  0.41340400  0.09157400  1
  O  O18  1  0.53502100  0.55263100  0.19530800  1
  O  O19  1  0.32040000  0.35465900  0.11650800  1
  O  O20  1  0.28302300  0.56432700  0.09155500  1
  O  O21  1  0.23814400  0.48708600  0.22082800  1
  O  O22  1  0.46536600  0.46083700  0.39583800  1
  O  O23  1  0.32561600  0.49162900  0.34805200  1
  O  O24  1  0.43460500  0.37918500  0.28889000  1
  O  O25  1  0.47694000  0.66026800  0.25260500  1
  O  O26  1  0.46761900  0.62158100  0.36788900  1
  O  O27  1  0.95797500  0.95200800  0.81595600  1
  O  O28  1  0.09744600  0.91991700  0.82524400  1
  O  O29  1  0.94508500  0.01932600  0.65695300  1
  O  O30  1  0.85650500  0.81283400  0.69640900  1
  O  O31  1  0.08570200  0.01734600  0.76981700  1
  O  O32  1  0.95646100  0.80217100  0.80550200  1
  O  O33  1  0.83372400  0.96677200  0.64948100  1
  O  O34  1  0.79303400  0.89014300  0.77414300  1
  O  O35  1  0.99889200  0.96771200  0.00325800  1
  O  O36  1  0.85471500  0.97691100  0.88388300  1
  O  O37  1  0.05867300  0.90546700  0.97329900  1
  O  O38  1  0.03240200  0.10966600  0.82173500  1
  O  O39  1  0.99667100  0.08991000  0.92256800  1
  O  O40  1  0.39666400  0.99282200  0.53625500  1
  O  O41  1  0.40412500  0.91350500  0.39444400  1
  O  O42  1  0.49852400  0.12870400  0.51271800  1
  O  O43  1  0.26099500  0.03068700  0.40639400  1
  O  O44  1  0.51819600  0.97361500  0.49060300  1
  O  O45  1  0.26920000  0.93144600  0.36224200  1
  O  O46  1  0.40405500  0.14434800  0.53046500  1
  O  O47  1  0.29846700  0.04357500  0.59334200  1
  O  O48  1  0.35308900  0.85741600  0.60780000  1
  O  O49  1  0.36040900  0.98470700  0.68655400  1
  O  O50  1  0.31232400  0.83637600  0.47027000  1
  O  O51  1  0.56197300  0.05168700  0.65579700  1
  O  O52  1  0.49982600  0.96676400  0.70605200  1
