# generated using pymatgen
data_Cu3H28(C17O7)2
_symmetry_space_group_name_H-M   'P 1'
_cell_length_a   18.95704600
_cell_length_b   18.78418400
_cell_length_c   18.90699600
_cell_angle_alpha   108.98203000
_cell_angle_beta   110.31118900
_cell_angle_gamma   109.02752200
_symmetry_Int_Tables_number   1
_chemical_formula_structural   Cu3H28(C17O7)2
_chemical_formula_sum   'Cu6 H56 C68 O28'
_cell_volume   5188.04758716
_cell_formula_units_Z   2
loop_
 _symmetry_equiv_pos_site_id
 _symmetry_equiv_pos_as_xyz
  1  'x, y, z'
loop_
 _atom_site_type_symbol
 _atom_site_label
 _atom_site_symmetry_multiplicity
 _atom_site_fract_x
 _atom_site_fract_y
 _atom_site_fract_z
 _atom_site_occupancy
  Cu  Cu1  1  0.47148400  0.42283000  0.40121500  1
  Cu  Cu2  1  0.46314200  0.53606900  0.52241000  1
  Cu  Cu3  1  0.90859700  0.43356300  0.96701200  1
  Cu  Cu4  1  0.02431200  0.55207200  0.95840200  1
  Cu  Cu5  1  0.03032200  0.98417300  0.52695700  1
  Cu  Cu6  1  0.90165200  0.98901300  0.41556900  1
  H  H1  1  0.62525000  0.35169300  0.57212300  1
  H  H2  1  0.57126000  0.36062200  0.63370200  1
  H  H3  1  0.67783700  0.35744700  0.73490800  1
  H  H4  1  0.73541700  0.36200300  0.67786100  1
  H  H5  1  0.73724100  0.48477000  0.59440300  1
  H  H6  1  0.84277900  0.49437700  0.70488800  1
  H  H7  1  0.68284300  0.60260900  0.75066300  1
  H  H8  1  0.60149200  0.50653000  0.73457100  1
  H  H9  1  0.78773300  0.60898300  0.84999800  1
  H  H10  1  0.75875300  0.59011100  0.66594600  1
  H  H11  1  0.86181500  0.59831400  0.77645000  1
  H  H12  1  0.23542700  0.21754300  0.58078800  1
  H  H13  1  0.11398100  0.17315600  0.39746400  1
  H  H14  1  0.31264100  0.35569100  0.57623600  1
  H  H15  1  0.08874800  0.35584200  0.09182300  1
  H  H16  1  0.22337200  0.54606500  0.17564500  1
  H  H17  1  0.22393700  0.35291500  0.18061200  1
  H  H18  1  0.26891300  0.53524100  0.30084800  1
  H  H19  1  0.81215900  0.77586500  0.51697700  1
  H  H20  1  0.62523700  0.77228100  0.53241400  1
  H  H21  1  0.67705900  0.65567600  0.43217300  1
  H  H22  1  0.94055600  0.22920400  0.58664200  1
  H  H23  1  0.00205500  0.37650700  0.72292300  1
  H  H24  1  0.92383000  0.23695300  0.76501600  1
  H  H25  1  0.99986200  0.74744800  0.34851800  1
  H  H26  1  0.90048000  0.77870600  0.20634100  1
  H  H27  1  0.95260800  0.61120000  0.21362400  1
  H  H28  1  0.99830700  0.74634900  0.15672800  1
  H  H29  1  0.19801700  0.21679000  0.28369400  1
  H  H30  1  0.14451100  0.07273300  0.16664100  1
  H  H31  1  0.14947300  0.82947000  0.13028200  1
  H  H32  1  0.15534100  0.86882300  0.23381200  1
  H  H33  1  0.25287900  0.90917200  0.22706600  1
  H  H34  1  0.26566700  0.00928100  0.35576100  1
  H  H35  1  0.31839100  0.15167300  0.47013500  1
  H  H36  1  0.57981700  0.81100900  0.39242900  1
  H  H37  1  0.55079200  0.92933500  0.39487300  1
  H  H38  1  0.68154900  0.21597500  0.54292400  1
  H  H39  1  0.77195900  0.19904500  0.55288500  1
  H  H40  1  0.73125800  0.19275600  0.62625900  1
  H  H41  1  0.80557900  0.11170600  0.61386600  1
  H  H42  1  0.83309900  0.99455600  0.61097200  1
  H  H43  1  0.98773500  0.09387700  0.74631000  1
  H  H44  1  0.08808300  0.13203000  0.89328900  1
  H  H45  1  0.33966300  0.34817300  0.12374100  1
  H  H46  1  0.29780700  0.40686200  0.07981900  1
  H  H47  1  0.35225600  0.35730100  0.03637500  1
  H  H48  1  0.25307600  0.37834100  0.93433200  1
  H  H49  1  0.15391800  0.33948800  0.78928300  1
  H  H50  1  0.81723800  0.63806200  0.98459400  1
  H  H51  1  0.77624300  0.61083100  0.08551700  1
  H  H52  1  0.57043400  0.41407300  0.08682800  1
  H  H53  1  0.57274700  0.34729200  0.99533000  1
  H  H54  1  0.51122400  0.40387800  0.98285800  1
  H  H55  1  0.55220800  0.37187200  0.87411400  1
  H  H56  1  0.59116600  0.39921900  0.77461800  1
  C  C1  1  0.35451200  0.35356700  0.45683800  1
  C  C2  1  0.58741300  0.48071800  0.58047200  1
  C  C3  1  0.58086600  0.60474400  0.46674700  1
  C  C4  1  0.34548900  0.47697400  0.34392500  1
  C  C5  1  0.63305300  0.39117800  0.63533300  1
  C  C6  1  0.70494000  0.39417500  0.70672000  1
  C  C7  1  0.74195800  0.52391800  0.65590400  1
  C  C8  1  0.66426000  0.53525200  0.73752800  1
  C  C9  1  0.65625100  0.48248600  0.65156000  1
  C  C10  1  0.77342600  0.48792600  0.77505300  1
  C  C11  1  0.81223900  0.52906400  0.73056100  1
  C  C12  1  0.73549700  0.54046400  0.81131700  1
  C  C13  1  0.21667700  0.21986400  0.52087200  1
  C  C14  1  0.13656500  0.16422500  0.45330800  1
  C  C15  1  0.27711000  0.29180000  0.51977100  1
  C  C16  1  0.29299700  0.28001900  0.45440600  1
  C  C17  1  0.14963300  0.41558200  0.13857700  1
  C  C18  1  0.15997400  0.48861100  0.13652000  1
  C  C19  1  0.22165400  0.41276900  0.19892700  1
  C  C20  1  0.27781200  0.47961300  0.27901400  1
  C  C21  1  0.72483500  0.82330400  0.49967500  1
  C  C22  1  0.79630900  0.82189400  0.50283900  1
  C  C23  1  0.66251700  0.75584300  0.50427100  1
  C  C24  1  0.64588200  0.67409800  0.46752800  1
  C  C25  1  0.95784000  0.37142300  0.84146100  1
  C  C26  1  0.84379800  0.49174600  0.84674700  1
  C  C27  1  0.97462100  0.61427400  0.08394900  1
  C  C28  1  0.08892700  0.49079200  0.07507200  1
  C  C29  1  0.98799700  0.11458200  0.59778400  1
  C  C30  1  0.07522300  0.09636700  0.45708600  1
  C  C31  1  0.94592400  0.86023700  0.34438100  1
  C  C32  1  0.85722400  0.88156000  0.49042900  1
  C  C33  1  0.97328400  0.24165100  0.65260700  1
  C  C34  1  0.00425900  0.19075500  0.66947800  1
  C  C35  1  0.98106100  0.31455600  0.72099200  1
  C  C36  1  0.95322100  0.30151400  0.77371100  1
  C  C37  1  0.97107400  0.74097300  0.28465300  1
  C  C38  1  0.93716900  0.79080300  0.27155800  1
  C  C39  1  0.96312700  0.67106000  0.21264400  1
  C  C40  1  0.97838700  0.68342000  0.15257900  1
  C  C41  1  0.26001800  0.19298300  0.38461600  1
  C  C42  1  0.21256400  0.17089100  0.29920100  1
  C  C43  1  0.18239600  0.08984000  0.23339200  1
  C  C44  1  0.20012100  0.03032800  0.25191800  1
  C  C45  1  0.18259400  0.88716500  0.19513600  1
  C  C46  1  0.24929100  0.05313200  0.33780100  1
  C  C47  1  0.27921300  0.13420400  0.40352100  1
  C  C48  1  0.70940300  0.89503100  0.49962200  1
  C  C49  1  0.62956100  0.87722800  0.44068500  1
  C  C50  1  0.61319700  0.94382300  0.44201100  1
  C  C51  1  0.67563800  0.02878700  0.50313800  1
  C  C52  1  0.71338200  0.17876500  0.55888100  1
  C  C53  1  0.75515400  0.04655400  0.56386500  1
  C  C54  1  0.77152700  0.97986400  0.56211800  1
  C  C55  1  0.06329400  0.21475800  0.75861900  1
  C  C56  1  0.04597800  0.15641200  0.78790600  1
  C  C57  1  0.10237700  0.17795000  0.87067300  1
  C  C58  1  0.17725500  0.25731300  0.92469800  1
  C  C59  1  0.30864100  0.35052000  0.06349800  1
  C  C60  1  0.19516700  0.31564100  0.89491400  1
  C  C61  1  0.13843300  0.29409100  0.81225800  1
  C  C62  1  0.70851400  0.52001000  0.87169700  1
  C  C63  1  0.75892000  0.57921100  0.95957100  1
  C  C64  1  0.73607800  0.56399700  0.01705800  1
  C  C65  1  0.66239300  0.48989200  0.98822600  1
  C  C66  1  0.57081000  0.40734800  0.02649600  1
  C  C67  1  0.61103700  0.43060400  0.90023700  1
  C  C68  1  0.63386800  0.44585500  0.84269500  1
  O  O1  1  0.38805000  0.33555700  0.40825800  1
  O  O2  1  0.37498400  0.43305700  0.50736400  1
  O  O3  1  0.56520600  0.43484000  0.49923800  1
  O  O4  1  0.55716700  0.53202100  0.60362800  1
  O  O5  1  0.55917200  0.52539800  0.41556000  1
  O  O6  1  0.54739900  0.62351900  0.51590400  1
  O  O7  1  0.38087500  0.43102600  0.32007300  1
  O  O8  1  0.37453600  0.52974200  0.42504500  1
  O  O9  1  0.91172200  0.34943200  0.87635800  1
  O  O10  1  0.00865100  0.45213200  0.86577500  1
  O  O11  1  0.82355700  0.44004300  0.87808100  1
  O  O12  1  0.92389900  0.54574600  0.87387900  1
  O  O13  1  0.92640100  0.53359100  0.06138200  1
  O  O14  1  0.01892900  0.63602100  0.04719000  1
  O  O15  1  0.00879600  0.43727300  0.04905800  1
  O  O16  1  0.10915000  0.54701300  0.04879600  1
  O  O17  1  0.03921700  0.08215400  0.61536000  1
  O  O18  1  0.92478000  0.08337300  0.51928400  1
  O  O19  1  0.10509500  0.06995100  0.51113000  1
  O  O20  1  0.99254700  0.06658400  0.40735700  1
  O  O21  1  0.00898600  0.89172600  0.42293800  1
  O  O22  1  0.89168900  0.88967600  0.32760100  1
  O  O23  1  0.93931400  0.90509600  0.53393000  1
  O  O24  1  0.82742600  0.90580900  0.43420600  1
  O  O25  1  0.16892800  0.95161100  0.18526000  1
  O  O26  1  0.65673300  0.09192100  0.50190300  1
  O  O27  1  0.23102000  0.27517400  0.00492000  1
  O  O28  1  0.64265200  0.47802100  0.04709100  1
