# generated using pymatgen
data_Cu3H34C55O12
_symmetry_space_group_name_H-M   'P 1'
_cell_length_a   40.96563200
_cell_length_b   35.25725800
_cell_length_c   21.48653800
_cell_angle_alpha   90.00000000
_cell_angle_beta   59.44696500
_cell_angle_gamma   90.00000000
_symmetry_Int_Tables_number   1
_chemical_formula_structural   Cu3H34C55O12
_chemical_formula_sum   'Cu12 H136 C220 O48'
_cell_volume   26725.01647078
_cell_formula_units_Z   4
loop_
 _symmetry_equiv_pos_site_id
 _symmetry_equiv_pos_as_xyz
  1  'x, y, z'
loop_
 _atom_site_type_symbol
 _atom_site_label
 _atom_site_symmetry_multiplicity
 _atom_site_fract_x
 _atom_site_fract_y
 _atom_site_fract_z
 _atom_site_occupancy
  Cu  Cu1  1  0.00000000  0.04397700  0.00000000  1
  Cu  Cu2  1  0.50000000  0.54397700  0.00000000  1
  Cu  Cu3  1  0.00000000  0.96974800  0.00000000  1
  Cu  Cu4  1  0.50000000  0.46974800  0.00000000  1
  Cu  Cu5  1  0.03691400  0.99921000  0.46666900  1
  Cu  Cu6  1  0.96308700  0.99921000  0.53333100  1
  Cu  Cu7  1  0.53691400  0.49921000  0.46666900  1
  Cu  Cu8  1  0.46308700  0.49921000  0.53333100  1
  Cu  Cu9  1  0.49978400  0.99922700  0.56219900  1
  Cu  Cu10  1  0.50021600  0.99922600  0.43780100  1
  Cu  Cu11  1  0.99978400  0.49922700  0.56219900  1
  Cu  Cu12  1  0.00021600  0.49922600  0.43780100  1
  H  H1  1  0.08723900  0.15744600  0.04505600  1
  H  H2  1  0.91275700  0.15744300  0.95494700  1
  H  H3  1  0.58723900  0.65744600  0.04505600  1
  H  H4  1  0.41275700  0.65744300  0.95494700  1
  H  H5  1  0.03171300  0.16372800  0.16728000  1
  H  H6  1  0.96828400  0.16372700  0.83272400  1
  H  H7  1  0.53171300  0.66372800  0.16728000  1
  H  H8  1  0.46828400  0.66372700  0.83272400  1
  H  H9  1  0.00083400  0.10693400  0.23943200  1
  H  H10  1  0.99916400  0.10693400  0.76057000  1
  H  H11  1  0.50083400  0.60693400  0.23943200  1
  H  H12  1  0.49916400  0.60693400  0.76057000  1
  H  H13  1  0.08116700  0.03726200  0.06684800  1
  H  H14  1  0.91883200  0.03726000  0.93315200  1
  H  H15  1  0.58116700  0.53726200  0.06684800  1
  H  H16  1  0.41883200  0.53726000  0.93315200  1
  H  H17  1  0.11211300  0.09426500  0.99548000  1
  H  H18  1  0.88788500  0.09426200  0.00452200  1
  H  H19  1  0.61211300  0.59426500  0.99548000  1
  H  H20  1  0.38788500  0.59426200  0.00452200  1
  H  H21  1  0.03110900  0.05440600  0.28406500  1
  H  H22  1  0.96889000  0.05440500  0.71593600  1
  H  H23  1  0.53110900  0.55440600  0.28406500  1
  H  H24  1  0.46889000  0.55440500  0.71593600  1
  H  H25  1  0.98053900  0.95077200  0.20529600  1
  H  H26  1  0.01946300  0.95077200  0.79470300  1
  H  H27  1  0.48053900  0.45077200  0.20529600  1
  H  H28  1  0.51946300  0.45077200  0.79470300  1
  H  H29  1  0.91769800  0.94963600  0.36434900  1
  H  H30  1  0.08230300  0.94963600  0.63565400  1
  H  H31  1  0.41769800  0.44963600  0.36434900  1
  H  H32  1  0.58230300  0.44963600  0.63565400  1
  H  H33  1  0.89316800  0.88886200  0.42726300  1
  H  H34  1  0.10683500  0.88886300  0.57273900  1
  H  H35  1  0.39316800  0.38886200  0.42726300  1
  H  H36  1  0.60683500  0.38886300  0.57273900  1
  H  H37  1  0.93728600  0.84049400  0.42403300  1
  H  H38  1  0.06271800  0.84049500  0.57596400  1
  H  H39  1  0.43728600  0.34049400  0.42403300  1
  H  H40  1  0.56271800  0.34049500  0.57596400  1
  H  H41  1  0.00579400  0.85305600  0.35834000  1
  H  H42  1  0.99421000  0.85305600  0.64165300  1
  H  H43  1  0.50579400  0.35305600  0.35834000  1
  H  H44  1  0.49421000  0.35305600  0.64165300  1
  H  H45  1  0.03020900  0.91450100  0.29847100  1
  H  H46  1  0.96979400  0.91450200  0.70152300  1
  H  H47  1  0.53020900  0.41450100  0.29847100  1
  H  H48  1  0.46979400  0.41450200  0.70152300  1
  H  H49  1  0.68898200  0.00193400  0.21927400  1
  H  H50  1  0.31101800  0.00193500  0.78072600  1
  H  H51  1  0.18898200  0.50193400  0.21927400  1
  H  H52  1  0.81101800  0.50193500  0.78072600  1
  H  H53  1  0.61987000  0.00065700  0.28489000  1
  H  H54  1  0.38013100  0.00065800  0.71511000  1
  H  H55  1  0.11987000  0.50065700  0.28489000  1
  H  H56  1  0.88013100  0.50065800  0.71511000  1
  H  H57  1  0.61918200  0.99789000  0.48490700  1
  H  H58  1  0.38081800  0.99789000  0.51509400  1
  H  H59  1  0.11918200  0.49789000  0.48490700  1
  H  H60  1  0.88081800  0.49789000  0.51509400  1
  H  H61  1  0.68831800  0.99921600  0.41792000  1
  H  H62  1  0.31168200  0.99921600  0.58208000  1
  H  H63  1  0.18831800  0.49921600  0.41792000  1
  H  H64  1  0.81168200  0.49921600  0.58208000  1
  H  H65  1  0.81417400  0.94504600  0.21285400  1
  H  H66  1  0.18582600  0.94504700  0.78714500  1
  H  H67  1  0.31417400  0.44504600  0.21285400  1
  H  H68  1  0.68582600  0.44504700  0.78714500  1
  H  H69  1  0.88322600  0.94617900  0.14274300  1
  H  H70  1  0.11677500  0.94617900  0.85725500  1
  H  H71  1  0.38322600  0.44617900  0.14274300  1
  H  H72  1  0.61677500  0.44617900  0.85725500  1
  H  H73  1  0.88013800  0.06603500  0.11400800  1
  H  H74  1  0.11986200  0.06603600  0.88599400  1
  H  H75  1  0.38013800  0.56603500  0.11400800  1
  H  H76  1  0.61986200  0.56603600  0.88599400  1
  H  H77  1  0.81095200  0.06408700  0.18358700  1
  H  H78  1  0.18904800  0.06408700  0.81641500  1
  H  H79  1  0.31095200  0.56408700  0.18358700  1
  H  H80  1  0.68904800  0.56408700  0.81641500  1
  H  H81  1  0.49648000  0.18794300  0.60227100  1
  H  H82  1  0.50352100  0.18794200  0.39772800  1
  H  H83  1  0.99648000  0.68794300  0.60227100  1
  H  H84  1  0.00352100  0.68794200  0.39772800  1
  H  H85  1  0.49645400  0.11877100  0.60298800  1
  H  H86  1  0.50354600  0.11877000  0.39701100  1
  H  H87  1  0.99645400  0.61877100  0.60298800  1
  H  H88  1  0.00354600  0.61877000  0.39701100  1
  H  H89  1  0.94027000  0.81172400  0.57167400  1
  H  H90  1  0.05973100  0.81172500  0.42832400  1
  H  H91  1  0.44027000  0.31172400  0.57167400  1
  H  H92  1  0.55973100  0.31172500  0.42832400  1
  H  H93  1  0.93987700  0.88090900  0.57225400  1
  H  H94  1  0.06012300  0.88090900  0.42774400  1
  H  H95  1  0.43987700  0.38090900  0.57225400  1
  H  H96  1  0.56012300  0.38090900  0.42774400  1
  H  H97  1  0.44215600  0.80992600  0.53144600  1
  H  H98  1  0.55784400  0.80992600  0.46855500  1
  H  H99  1  0.94215600  0.30992600  0.53144600  1
  H  H100  1  0.05784400  0.30992600  0.46855500  1
  H  H101  1  0.94422100  0.18694000  0.51638900  1
  H  H102  1  0.05577900  0.18694000  0.48361300  1
  H  H103  1  0.44422100  0.68694000  0.51638900  1
  H  H104  1  0.55577900  0.68694000  0.48361300  1
  H  H105  1  0.94383500  0.11777000  0.51648400  1
  H  H106  1  0.05616500  0.11777000  0.48351700  1
  H  H107  1  0.44383500  0.61777000  0.51648400  1
  H  H108  1  0.55616500  0.61777000  0.48351700  1
  H  H109  1  0.43280300  0.91656500  0.53859900  1
  H  H110  1  0.40772100  0.84583800  0.49219400  1
  H  H111  1  0.44026800  0.88108800  0.43072900  1
  H  H112  1  0.39249800  0.89433200  0.49802000  1
  H  H113  1  0.39056200  0.84507100  0.61871900  1
  H  H114  1  0.37493200  0.89373700  0.63342600  1
  H  H115  1  0.41121000  0.87889800  0.65229900  1
  H  H116  1  0.56719700  0.91656500  0.46140200  1
  H  H117  1  0.59227900  0.84583800  0.50780700  1
  H  H118  1  0.55973200  0.88108800  0.56927200  1
  H  H119  1  0.60750200  0.89433200  0.50198100  1
  H  H120  1  0.60943900  0.84507000  0.38128200  1
  H  H121  1  0.62506800  0.89373700  0.36657400  1
  H  H122  1  0.58879000  0.87889800  0.34770200  1
  H  H123  1  0.93280300  0.41656500  0.53859900  1
  H  H124  1  0.90772100  0.34583800  0.49219400  1
  H  H125  1  0.94026800  0.38108800  0.43072900  1
  H  H126  1  0.89249800  0.39433200  0.49802000  1
  H  H127  1  0.89056200  0.34507100  0.61871900  1
  H  H128  1  0.87493200  0.39373700  0.63342600  1
  H  H129  1  0.91121000  0.37889800  0.65229900  1
  H  H130  1  0.06719700  0.41656500  0.46140200  1
  H  H131  1  0.09227900  0.34583800  0.50780700  1
  H  H132  1  0.05973200  0.38108800  0.56927200  1
  H  H133  1  0.10750200  0.39433200  0.50198100  1
  H  H134  1  0.10943900  0.34507000  0.38128200  1
  H  H135  1  0.12506800  0.39373700  0.36657400  1
  H  H136  1  0.08879000  0.37889800  0.34770200  1
  C  C1  1  0.92822500  0.00678800  0.07866000  1
  C  C2  1  0.07177600  0.00678800  0.92134000  1
  C  C3  1  0.42822500  0.50678800  0.07866000  1
  C  C4  1  0.57177600  0.50678800  0.92134000  1
  C  C5  1  0.00577600  0.00688000  0.11209700  1
  C  C6  1  0.99422500  0.00688000  0.88790300  1
  C  C7  1  0.50577600  0.50688000  0.11209700  1
  C  C8  1  0.49422500  0.50688000  0.88790300  1
  C  C9  1  0.04240400  0.13591500  0.14510500  1
  C  C10  1  0.95759400  0.13591400  0.85489800  1
  C  C11  1  0.54240400  0.63591500  0.14510500  1
  C  C12  1  0.45759400  0.63591400  0.85489800  1
  C  C13  1  0.02510600  0.10398500  0.18558700  1
  C  C14  1  0.97489200  0.10398400  0.81441500  1
  C  C15  1  0.52510600  0.60398500  0.18558700  1
  C  C16  1  0.47489200  0.60398400  0.81441500  1
  C  C17  1  0.03842900  0.06839400  0.15720900  1
  C  C18  1  0.96156900  0.06839200  0.84279200  1
  C  C19  1  0.53842900  0.56839400  0.15720900  1
  C  C20  1  0.46156900  0.56839200  0.84279200  1
  C  C21  1  0.06981100  0.06495600  0.08874400  1
  C  C22  1  0.93018800  0.06495400  0.91125700  1
  C  C23  1  0.56981100  0.56495600  0.08874400  1
  C  C24  1  0.43018800  0.56495400  0.91125700  1
  C  C25  1  0.08731600  0.09694200  0.04863800  1
  C  C26  1  0.91268200  0.09694000  0.95136400  1
  C  C27  1  0.58731600  0.59694200  0.04863800  1
  C  C28  1  0.41268200  0.59694000  0.95136400  1
  C  C29  1  0.07349600  0.13239900  0.07660200  1
  C  C30  1  0.92650100  0.13239700  0.92340100  1
  C  C31  1  0.57349600  0.63239900  0.07660200  1
  C  C32  1  0.42650100  0.63239700  0.92340100  1
  C  C33  1  0.01978100  0.03171900  0.26678000  1
  C  C34  1  0.98021800  0.03171800  0.73322100  1
  C  C35  1  0.51978100  0.53171900  0.26678000  1
  C  C36  1  0.48021800  0.53171800  0.73322100  1
  C  C37  1  0.00436100  0.00019800  0.31010900  1
  C  C38  1  0.99563900  0.00019800  0.68989100  1
  C  C39  1  0.50436100  0.50019800  0.31010900  1
  C  C40  1  0.49563900  0.50019800  0.68989100  1
  C  C41  1  0.99008000  0.97110000  0.28768600  1
  C  C42  1  0.00992100  0.97110000  0.71231300  1
  C  C43  1  0.49008000  0.47110000  0.28768600  1
  C  C44  1  0.50992100  0.47110000  0.71231300  1
  C  C45  1  0.99166400  0.97375600  0.22233800  1
  C  C46  1  0.00833800  0.97375600  0.77766100  1
  C  C47  1  0.49166400  0.47375600  0.22233800  1
  C  C48  1  0.50833800  0.47375600  0.77766100  1
  C  C49  1  0.00659600  0.00541100  0.17931900  1
  C  C50  1  0.99340400  0.00541100  0.82068100  1
  C  C51  1  0.50659600  0.50541100  0.17931900  1
  C  C52  1  0.49340400  0.50541100  0.82068100  1
  C  C53  1  0.02077500  0.03475200  0.20176100  1
  C  C54  1  0.97922400  0.03475100  0.79824000  1
  C  C55  1  0.52077500  0.53475200  0.20176100  1
  C  C56  1  0.47922400  0.53475100  0.79824000  1
  C  C57  1  0.93700100  0.92869400  0.36422500  1
  C  C58  1  0.06300100  0.92869500  0.63577600  1
  C  C59  1  0.43700100  0.42869400  0.36422500  1
  C  C60  1  0.56300100  0.42869500  0.63577600  1
  C  C61  1  0.92326200  0.89456700  0.39923400  1
  C  C62  1  0.07674100  0.89456700  0.60076700  1
  C  C63  1  0.42326200  0.39456700  0.39923400  1
  C  C64  1  0.57674100  0.39456700  0.60076700  1
  C  C65  1  0.94797800  0.86744800  0.39735300  1
  C  C66  1  0.05202600  0.86744900  0.60264500  1
  C  C67  1  0.44797800  0.36744800  0.39735300  1
  C  C68  1  0.55202600  0.36744900  0.60264500  1
  C  C69  1  0.98638600  0.87457100  0.36085700  1
  C  C70  1  0.01361800  0.87457200  0.63913800  1
  C  C71  1  0.48638600  0.37457100  0.36085700  1
  C  C72  1  0.51361800  0.37457200  0.63913800  1
  C  C73  1  0.00005600  0.90906900  0.32748100  1
  C  C74  1  0.99994700  0.90906900  0.67251500  1
  C  C75  1  0.50005600  0.40906900  0.32748100  1
  C  C76  1  0.49994700  0.40906900  0.67251500  1
  C  C77  1  0.97535600  0.93615200  0.32909000  1
  C  C78  1  0.02464600  0.93615200  0.67090900  1
  C  C79  1  0.47535600  0.43615200  0.32909000  1
  C  C80  1  0.52464600  0.43615200  0.67090900  1
  C  C81  1  0.67350200  0.00094600  0.27765700  1
  C  C82  1  0.32649900  0.00094700  0.72234300  1
  C  C83  1  0.17350200  0.50094600  0.27765700  1
  C  C84  1  0.82649900  0.50094700  0.72234300  1
  C  C85  1  0.63442600  0.00018600  0.31501300  1
  C  C86  1  0.36557400  0.00018600  0.68498700  1
  C  C87  1  0.13442600  0.50018600  0.31501300  1
  C  C88  1  0.86557400  0.50018600  0.68498700  1
  C  C89  1  0.61444800  0.99924200  0.38976700  1
  C  C90  1  0.38555200  0.99924300  0.61023300  1
  C  C91  1  0.11444800  0.49924200  0.38976700  1
  C  C92  1  0.88555200  0.49924300  0.61023300  1
  C  C93  1  0.63404500  0.99868700  0.42656000  1
  C  C94  1  0.36595500  0.99868700  0.57344000  1
  C  C95  1  0.13404500  0.49868700  0.42656000  1
  C  C96  1  0.86595500  0.49868700  0.57344000  1
  C  C97  1  0.67313300  0.99943400  0.38894800  1
  C  C98  1  0.32686700  0.99943500  0.61105200  1
  C  C99  1  0.17313300  0.49943400  0.38894800  1
  C  C100  1  0.82686700  0.49943500  0.61105200  1
  C  C101  1  0.69286400  0.00073200  0.31455000  1
  C  C102  1  0.30713700  0.00073200  0.68545000  1
  C  C103  1  0.19286400  0.50073200  0.31455000  1
  C  C104  1  0.80713700  0.50073200  0.68545000  1
  C  C105  1  0.73352700  0.00209800  0.27544600  1
  C  C106  1  0.26647300  0.00209900  0.72455400  1
  C  C107  1  0.23352700  0.50209800  0.27544600  1
  C  C108  1  0.76647300  0.50209900  0.72455400  1
  C  C109  1  0.76767000  0.00325500  0.24228400  1
  C  C110  1  0.23233000  0.00325500  0.75771600  1
  C  C111  1  0.26767000  0.50325500  0.24228400  1
  C  C112  1  0.73233000  0.50325500  0.75771600  1
  C  C113  1  0.82879000  0.97158800  0.19107800  1
  C  C114  1  0.17121100  0.97158800  0.80892100  1
  C  C115  1  0.32879000  0.47158800  0.19107800  1
  C  C116  1  0.67121100  0.47158800  0.80892100  1
  C  C117  1  0.86784100  0.97240700  0.15150300  1
  C  C118  1  0.13216000  0.97240700  0.84849600  1
  C  C119  1  0.36784100  0.47240700  0.15150300  1
  C  C120  1  0.63216000  0.47240700  0.84849600  1
  C  C121  1  0.88671700  0.00621000  0.12267800  1
  C  C122  1  0.11328300  0.00621000  0.87732200  1
  C  C123  1  0.38671700  0.50621000  0.12267800  1
  C  C124  1  0.61328300  0.50621000  0.87732200  1
  C  C125  1  0.86606300  0.03921000  0.13491400  1
  C  C126  1  0.13393700  0.03921000  0.86508700  1
  C  C127  1  0.36606300  0.53921000  0.13491400  1
  C  C128  1  0.63393700  0.53921000  0.86508700  1
  C  C129  1  0.82698400  0.03826400  0.17455100  1
  C  C130  1  0.17301700  0.03826400  0.82545100  1
  C  C131  1  0.32698400  0.53826400  0.17455100  1
  C  C132  1  0.67301700  0.53826400  0.82545100  1
  C  C133  1  0.80833800  0.00443600  0.20233700  1
  C  C134  1  0.19166200  0.00443600  0.79766300  1
  C  C135  1  0.30833800  0.50443600  0.20233700  1
  C  C136  1  0.69166200  0.50443600  0.79766300  1
  C  C137  1  0.00000000  0.92740900  0.50000000  1
  C  C138  1  0.50000000  0.42740900  0.50000000  1
  C  C139  1  0.00297500  0.99878000  0.37943600  1
  C  C140  1  0.99702600  0.99878000  0.62056400  1
  C  C141  1  0.50297500  0.49878000  0.37943600  1
  C  C142  1  0.49702600  0.49878000  0.62056400  1
  C  C143  1  0.00000000  0.07106600  0.50000000  1
  C  C144  1  0.50000000  0.57106600  0.50000000  1
  C  C145  1  0.50000000  0.92648000  0.50000000  1
  C  C146  1  0.00000000  0.42648000  0.50000000  1
  C  C147  1  0.57287100  0.99933900  0.42963400  1
  C  C148  1  0.42712900  0.99933900  0.57036600  1
  C  C149  1  0.07287100  0.49933900  0.42963400  1
  C  C150  1  0.92712900  0.49933900  0.57036600  1
  C  C151  1  0.50000000  0.07214400  0.50000000  1
  C  C152  1  0.00000000  0.57214400  0.50000000  1
  C  C153  1  0.49802800  0.17258100  0.55731100  1
  C  C154  1  0.50197300  0.17258100  0.44268700  1
  C  C155  1  0.99802800  0.67258100  0.55731100  1
  C  C156  1  0.00197300  0.67258100  0.44268700  1
  C  C157  1  0.49802400  0.13348800  0.55744100  1
  C  C158  1  0.50197700  0.13348800  0.44255800  1
  C  C159  1  0.99802400  0.63348800  0.55744100  1
  C  C160  1  0.00197700  0.63348800  0.44255800  1
  C  C161  1  0.50000000  0.11371300  0.50000000  1
  C  C162  1  0.00000000  0.61371300  0.50000000  1
  C  C163  1  0.50000000  0.19210800  0.49999900  1
  C  C164  1  0.00000000  0.69210800  0.49999900  1
  C  C165  1  0.50000000  0.23276700  0.49999900  1
  C  C166  1  0.00000000  0.73276700  0.49999900  1
  C  C167  1  0.00000000  0.76691700  0.49999900  1
  C  C168  1  0.50000000  0.26691700  0.49999900  1
  C  C169  1  0.96652800  0.82708200  0.54021200  1
  C  C170  1  0.03347300  0.82708200  0.45978600  1
  C  C171  1  0.46652800  0.32708200  0.54021200  1
  C  C172  1  0.53347300  0.32708200  0.45978600  1
  C  C173  1  0.96646700  0.86616400  0.54047600  1
  C  C174  1  0.03353400  0.86616400  0.45952300  1
  C  C175  1  0.46646700  0.36616400  0.54047600  1
  C  C176  1  0.53353400  0.36616400  0.45952300  1
  C  C177  1  0.00000000  0.88590500  0.49999900  1
  C  C178  1  0.50000000  0.38590500  0.49999900  1
  C  C179  1  0.00000000  0.80756800  0.49999900  1
  C  C180  1  0.50000000  0.30756800  0.49999900  1
  C  C181  1  0.46732900  0.82607900  0.51769200  1
  C  C182  1  0.53267100  0.82607900  0.48231000  1
  C  C183  1  0.96732900  0.32607900  0.51769200  1
  C  C184  1  0.03267100  0.32607900  0.48231000  1
  C  C185  1  0.46678200  0.86530700  0.51811500  1
  C  C186  1  0.53321800  0.86530700  0.48188600  1
  C  C187  1  0.96678200  0.36530700  0.51811500  1
  C  C188  1  0.03321800  0.36530700  0.48188600  1
  C  C189  1  0.50000000  0.88505200  0.50000000  1
  C  C190  1  0.00000000  0.38505200  0.50000000  1
  C  C191  1  0.50000000  0.80670500  0.50000100  1
  C  C192  1  0.00000000  0.30670500  0.50000100  1
  C  C193  1  0.50000000  0.76601400  0.50000100  1
  C  C194  1  0.00000000  0.26601400  0.50000100  1
  C  C195  1  0.00000000  0.23184100  0.50000100  1
  C  C196  1  0.50000000  0.73184100  0.50000100  1
  C  C197  1  0.96874700  0.17158700  0.50918800  1
  C  C198  1  0.03125400  0.17158700  0.49081400  1
  C  C199  1  0.46874700  0.67158700  0.50918800  1
  C  C200  1  0.53125400  0.67158700  0.49081400  1
  C  C201  1  0.96867500  0.13247700  0.50921500  1
  C  C202  1  0.03132500  0.13247700  0.49078600  1
  C  C203  1  0.46867500  0.63247700  0.50921500  1
  C  C204  1  0.53132500  0.63247700  0.49078600  1
  C  C205  1  0.00000000  0.11267300  0.50000000  1
  C  C206  1  0.50000000  0.61267300  0.50000000  1
  C  C207  1  0.00000000  0.19114400  0.50000100  1
  C  C208  1  0.50000000  0.69114400  0.50000100  1
  C  C209  1  0.43006700  0.88542900  0.53923100  1
  C  C210  1  0.41681100  0.87584900  0.48672500  1
  C  C211  1  0.39979800  0.87488600  0.61572200  1
  C  C212  1  0.56993300  0.88542900  0.46077000  1
  C  C213  1  0.58318900  0.87584900  0.51327600  1
  C  C214  1  0.60020200  0.87488600  0.38427900  1
  C  C215  1  0.93006700  0.38542900  0.53923100  1
  C  C216  1  0.91681100  0.37584900  0.48672500  1
  C  C217  1  0.89979800  0.37488600  0.61572200  1
  C  C218  1  0.06993300  0.38542900  0.46077000  1
  C  C219  1  0.08318900  0.37584900  0.51327600  1
  C  C220  1  0.10020200  0.37488600  0.38427900  1
  O  O1  1  0.94521400  0.03822800  0.04366200  1
  O  O2  1  0.05478600  0.03822800  0.95633800  1
  O  O3  1  0.44521400  0.53822800  0.04366200  1
  O  O4  1  0.55478600  0.53822800  0.95633800  1
  O  O5  1  0.94680000  0.97547600  0.07489100  1
  O  O6  1  0.05320000  0.97547600  0.92510900  1
  O  O7  1  0.44680000  0.47547600  0.07489100  1
  O  O8  1  0.55320000  0.47547600  0.92510900  1
  O  O9  1  0.99425800  0.03826600  0.09551700  1
  O  O10  1  0.00574200  0.03826600  0.90448300  1
  O  O11  1  0.49425800  0.53826600  0.09551700  1
  O  O12  1  0.50574200  0.53826600  0.90448300  1
  O  O13  1  0.01418100  0.97545900  0.07359900  1
  O  O14  1  0.98582000  0.97545900  0.92640000  1
  O  O15  1  0.51418100  0.47545900  0.07359900  1
  O  O16  1  0.48582000  0.47545900  0.92640000  1
  O  O17  1  0.03155200  0.94520200  0.45365100  1
  O  O18  1  0.96844900  0.94520100  0.54634800  1
  O  O19  1  0.53155200  0.44520200  0.45365100  1
  O  O20  1  0.46844900  0.44520100  0.54634800  1
  O  O21  1  0.03322300  0.01009600  0.38130900  1
  O  O22  1  0.96677800  0.01009600  0.61869100  1
  O  O23  1  0.53322300  0.51009600  0.38130900  1
  O  O24  1  0.46677800  0.51009600  0.61869100  1
  O  O25  1  0.97101700  0.98824200  0.43748200  1
  O  O26  1  0.02898400  0.98824200  0.56251700  1
  O  O27  1  0.47101700  0.48824200  0.43748200  1
  O  O28  1  0.52898400  0.48824200  0.56251700  1
  O  O29  1  0.03067200  0.05322500  0.49018300  1
  O  O30  1  0.96932900  0.05322500  0.50981700  1
  O  O31  1  0.53067200  0.55322500  0.49018300  1
  O  O32  1  0.46932900  0.55322500  0.50981700  1
  O  O33  1  0.49834700  0.94408800  0.55534000  1
  O  O34  1  0.50165300  0.94408700  0.44466100  1
  O  O35  1  0.99834700  0.44408800  0.55534000  1
  O  O36  1  0.00165300  0.44408700  0.44466100  1
  O  O37  1  0.55489900  0.99787600  0.50045700  1
  O  O38  1  0.44510200  0.99787600  0.49954300  1
  O  O39  1  0.05489900  0.49787600  0.50045700  1
  O  O40  1  0.94510200  0.49787600  0.49954300  1
  O  O41  1  0.55531000  0.99772100  0.39290800  1
  O  O42  1  0.44469100  0.99772100  0.60709300  1
  O  O43  1  0.05531000  0.49772100  0.39290800  1
  O  O44  1  0.94469100  0.49772100  0.60709300  1
  O  O45  1  0.49815700  0.05434700  0.55525400  1
  O  O46  1  0.50184300  0.05434700  0.44474600  1
  O  O47  1  0.99815700  0.55434700  0.55525400  1
  O  O48  1  0.00184300  0.55434700  0.44474600  1
