# generated using pymatgen
data_ZnH18C24NO6
_symmetry_space_group_name_H-M   'P 1'
_cell_length_a   10.96156700
_cell_length_b   15.24007300
_cell_length_c   14.03087900
_cell_angle_alpha   90.00495200
_cell_angle_beta   90.00028800
_cell_angle_gamma   89.99366600
_symmetry_Int_Tables_number   1
_chemical_formula_structural   ZnH18C24NO6
_chemical_formula_sum   'Zn2 H36 C48 N2 O12'
_cell_volume   2343.92960859
_cell_formula_units_Z   2
loop_
 _symmetry_equiv_pos_site_id
 _symmetry_equiv_pos_as_xyz
  1  'x, y, z'
loop_
 _atom_site_type_symbol
 _atom_site_label
 _atom_site_symmetry_multiplicity
 _atom_site_fract_x
 _atom_site_fract_y
 _atom_site_fract_z
 _atom_site_occupancy
  Zn  Zn1  1  0.48689800  0.50583100  0.61254000  1
  Zn  Zn2  1  0.48857800  0.50994500  0.39593000  1
  H  H1  1  0.22350000  0.75593800  0.15752100  1
  H  H2  1  0.74961100  0.23674000  0.83001300  1
  H  H3  1  0.25695800  0.79462200  0.32547300  1
  H  H4  1  0.70403400  0.21716100  0.65982400  1
  H  H5  1  0.17837900  0.69955500  0.45264000  1
  H  H6  1  0.78600800  0.32019600  0.54215300  1
  H  H7  1  0.02770000  0.52801400  0.24305200  1
  H  H8  1  0.95745300  0.46504800  0.76569300  1
  H  H9  1  0.10827100  0.62274700  0.11648400  1
  H  H10  1  0.87720400  0.36019600  0.88243200  1
  H  H11  1  0.86830700  0.57843200  0.37820200  1
  H  H12  1  0.10742700  0.43467000  0.62874400  1
  H  H13  1  0.38312800  0.07023000  0.63162400  1
  H  H14  1  0.48256000  0.94458900  0.35264500  1
  H  H15  1  0.38368700  0.22872500  0.63049700  1
  H  H16  1  0.49147300  0.78734400  0.35573700  1
  H  H17  1  0.59369000  0.06896800  0.37466600  1
  H  H18  1  0.50291900  0.95061200  0.65703800  1
  H  H19  1  0.30497800  0.46575600  0.07066600  1
  H  H20  1  0.56769600  0.63317000  0.93651700  1
  H  H21  1  0.30798500  0.46602400  0.24398100  1
  H  H22  1  0.56969300  0.62860900  0.76342900  1
  H  H23  1  0.67016400  0.55662700  0.24457200  1
  H  H24  1  0.40514900  0.37953300  0.76500100  1
  H  H25  1  0.71911100  0.42007300  0.06995600  1
  H  H26  1  0.83183300  0.48516000  0.13288700  1
  H  H27  1  0.83530700  0.47819700  0.00446500  1
  H  H28  1  0.58723100  0.33457300  0.93858000  1
  H  H29  1  0.48549700  0.25351800  0.88745300  1
  H  H30  1  0.50045900  0.26334400  0.01544300  1
  H  H31  1  0.42454800  0.22038300  0.29709200  1
  H  H32  1  0.54933000  0.17095600  0.23111000  1
  H  H33  1  0.52793000  0.28854800  0.23005800  1
  H  H34  1  0.31226600  0.79405400  0.65384700  1
  H  H35  1  0.36782700  0.84687300  0.76131900  1
  H  H36  1  0.35612600  0.72871100  0.75515300  1
  C  C1  1  0.48193000  0.33605600  0.50123000  1
  C  C2  1  0.49404700  0.68004400  0.50712400  1
  C  C3  1  0.24867600  0.51351300  0.50359400  1
  C  C4  1  0.72668900  0.50197800  0.50486000  1
  C  C5  1  0.20844200  0.73519400  0.30755900  1
  C  C6  1  0.75867400  0.27219600  0.68302000  1
  C  C7  1  0.16462900  0.68151600  0.37890300  1
  C  C8  1  0.80398900  0.33075400  0.61702600  1
  C  C9  1  0.10055300  0.60631800  0.35608600  1
  C  C10  1  0.87428800  0.40117300  0.64626700  1
  C  C11  1  0.07920100  0.58604500  0.26158000  1
  C  C12  1  0.90114500  0.41108600  0.74190000  1
  C  C13  1  0.12438400  0.63921600  0.19035900  1
  C  C14  1  0.85590200  0.35231500  0.80774200  1
  C  C15  1  0.18902300  0.71380600  0.21333600  1
  C  C16  1  0.78446300  0.28302100  0.77838100  1
  C  C17  1  0.92055800  0.54499600  0.43248300  1
  C  C18  1  0.05470000  0.46874700  0.57522800  1
  C  C19  1  0.86087500  0.50069800  0.50450200  1
  C  C20  1  0.11437400  0.51373400  0.50354600  1
  C  C21  1  0.92912400  0.46028500  0.57560900  1
  C  C22  1  0.04602600  0.55230000  0.43126900  1
  C  C23  1  0.43000300  0.10356000  0.57442500  1
  C  C24  1  0.48939900  0.91238600  0.42099200  1
  C  C25  1  0.42898200  0.19401500  0.57339200  1
  C  C26  1  0.49268000  0.82200000  0.42288400  1
  C  C27  1  0.48200900  0.23969800  0.49924700  1
  C  C28  1  0.49452700  0.77693200  0.50846600  1
  C  C29  1  0.53762500  0.19352400  0.42592400  1
  C  C30  1  0.49483100  0.82475900  0.59296100  1
  C  C31  1  0.54304600  0.10300500  0.42938300  1
  C  C32  1  0.49657300  0.91539900  0.59041600  1
  C  C33  1  0.48817500  0.05703200  0.50286400  1
  C  C34  1  0.49170500  0.96017100  0.50476100  1
  C  C35  1  0.38784400  0.48409500  0.10732200  1
  C  C36  1  0.53402400  0.57535300  0.90052600  1
  C  C37  1  0.38876000  0.48575000  0.20553100  1
  C  C38  1  0.53312600  0.57352000  0.80237100  1
  C  C39  1  0.59029400  0.53563000  0.20568800  1
  C  C40  1  0.44229500  0.43485900  0.80342400  1
  C  C41  1  0.59407400  0.53223100  0.10732200  1
  C  C42  1  0.44539000  0.43306100  0.90193600  1
  C  C43  1  0.49129900  0.50663500  0.05680700  1
  C  C44  1  0.49058800  0.50465000  0.95176600  1
  C  C45  1  0.77488000  0.48073200  0.06773900  1
  C  C46  1  0.49885700  0.30013400  0.94726200  1
  C  C47  1  0.52075800  0.22841500  0.27420300  1
  C  C48  1  0.37743200  0.78892900  0.71406500  1
  N  N1  1  0.48905100  0.51157600  0.25331600  1
  N  N2  1  0.48656800  0.50428800  0.75516500  1
  O  O1  1  0.48154000  0.37544300  0.58449200  1
  O  O2  1  0.49361700  0.64029900  0.42408100  1
  O  O3  1  0.48394700  0.37896600  0.42020700  1
  O  O4  1  0.49191900  0.63681000  0.58800200  1
  O  O5  1  0.30524600  0.50970500  0.58601700  1
  O  O6  1  0.67016600  0.50606600  0.42253400  1
  O  O7  1  0.30680100  0.51335800  0.42184300  1
  O  O8  1  0.66869900  0.50205400  0.58671200  1
  O  O9  1  0.69963300  0.55445000  0.06110500  1
  O  O10  1  0.40301200  0.36053000  0.94902300  1
  O  O11  1  0.59659300  0.23666100  0.35378700  1
  O  O12  1  0.49698600  0.78391500  0.67979100  1
