# generated using pymatgen
data_ZnH11C16(NO)4
_symmetry_space_group_name_H-M   'P 1'
_cell_length_a   14.27550000
_cell_length_b   8.54886200
_cell_length_c   14.96190500
_cell_angle_alpha   90.00000000
_cell_angle_beta   90.99617200
_cell_angle_gamma   90.00000000
_symmetry_Int_Tables_number   1
_chemical_formula_structural   ZnH11C16(NO)4
_chemical_formula_sum   'Zn2 H22 C32 N8 O8'
_cell_volume   1825.66413134
_cell_formula_units_Z   2
loop_
 _symmetry_equiv_pos_site_id
 _symmetry_equiv_pos_as_xyz
  1  'x, y, z'
loop_
 _atom_site_type_symbol
 _atom_site_label
 _atom_site_symmetry_multiplicity
 _atom_site_fract_x
 _atom_site_fract_y
 _atom_site_fract_z
 _atom_site_occupancy
  Zn  Zn1  1  0.89635000  0.48531900  0.51042800  1
  Zn  Zn2  1  0.10365000  0.48531900  0.48957100  1
  H  H1  1  0.04421000  0.98531800  0.56079700  1
  H  H2  1  0.95579100  0.98531800  0.43920300  1
  H  H3  1  0.99949900  0.23615800  0.80061000  1
  H  H4  1  0.00050100  0.73448400  0.19938800  1
  H  H5  1  0.00050200  0.23615800  0.19939000  1
  H  H6  1  0.99949900  0.73448500  0.80061200  1
  H  H7  1  0.56266800  0.25332700  0.42715700  1
  H  H8  1  0.43724800  0.71785100  0.57373200  1
  H  H9  1  0.43733200  0.25332700  0.57284300  1
  H  H10  1  0.56275200  0.71785100  0.42626800  1
  H  H11  1  0.56673300  0.37156700  0.28137800  1
  H  H12  1  0.56958900  0.58248800  0.27443000  1
  H  H13  1  0.49896400  0.46955700  0.19564000  1
  H  H14  1  0.31547500  0.57194500  0.28471300  1
  H  H15  1  0.41459800  0.68503700  0.24795500  1
  H  H16  1  0.37990500  0.69385000  0.36307200  1
  H  H17  1  0.43326700  0.37156600  0.71862200  1
  H  H18  1  0.43041100  0.58248800  0.72556900  1
  H  H19  1  0.50103600  0.46955700  0.80436000  1
  H  H20  1  0.68452500  0.57194500  0.71528700  1
  H  H21  1  0.58540200  0.68503600  0.75204400  1
  H  H22  1  0.62009500  0.69385000  0.63692700  1
  C  C1  1  0.02056300  0.12483100  0.67539800  1
  C  C2  1  0.97943700  0.84580700  0.32460100  1
  C  C3  1  0.97943800  0.12483100  0.32460200  1
  C  C4  1  0.02056300  0.84580700  0.67539900  1
  C  C5  1  0.00697100  0.12565100  0.76640700  1
  C  C6  1  0.99302900  0.84499100  0.23359200  1
  C  C7  1  0.99302900  0.12565100  0.23359300  1
  C  C8  1  0.00697100  0.84499100  0.76640800  1
  C  C9  1  0.00473600  0.98532100  0.81287700  1
  C  C10  1  0.99526500  0.98532100  0.18712300  1
  C  C11  1  0.46617000  0.35793600  0.53921700  1
  C  C12  1  0.53394800  0.61413300  0.46081300  1
  C  C13  1  0.53383100  0.35793600  0.46078200  1
  C  C14  1  0.46605200  0.61413300  0.53918700  1
  C  C15  1  0.03251300  0.98531900  0.63165000  1
  C  C16  1  0.96748700  0.98531900  0.36835000  1
  C  C17  1  0.99964500  0.98532100  0.08936000  1
  C  C18  1  0.00035600  0.98532100  0.91064000  1
  C  C19  1  0.52389000  0.48619300  0.58247800  1
  C  C20  1  0.47611100  0.48619300  0.41752200  1
  C  C21  1  0.59070300  0.48587400  0.50667900  1
  C  C22  1  0.40929700  0.48587400  0.49332100  1
  C  C23  1  0.69292600  0.48553100  0.51595400  1
  C  C24  1  0.30707400  0.48553100  0.48404600  1
  C  C25  1  0.01406300  0.70377900  0.62150300  1
  C  C26  1  0.98593700  0.26685700  0.37849900  1
  C  C27  1  0.98593700  0.70377900  0.37849600  1
  C  C28  1  0.01406300  0.26685700  0.62150100  1
  C  C29  1  0.52472000  0.47743500  0.26589200  1
  C  C30  1  0.38594800  0.61631900  0.30408400  1
  C  C31  1  0.47528000  0.47743500  0.73410800  1
  C  C32  1  0.61405200  0.61631900  0.69591600  1
  N  N1  1  0.00035500  0.84927400  0.95582900  1
  N  N2  1  0.99964500  0.12136700  0.04417100  1
  N  N3  1  0.99964500  0.84927400  0.04417100  1
  N  N4  1  0.00035500  0.12136700  0.95582900  1
  N  N5  1  0.77391900  0.48532700  0.52056100  1
  N  N6  1  0.22608100  0.48532700  0.47943800  1
  N  N7  1  0.44651800  0.48623700  0.32507400  1
  N  N8  1  0.55348200  0.48623700  0.67492600  1
  O  O1  1  0.08998600  0.65460700  0.58216100  1
  O  O2  1  0.91001200  0.31603000  0.41783900  1
  O  O3  1  0.91001500  0.65460700  0.41783900  1
  O  O4  1  0.08998800  0.31603000  0.58216100  1
  O  O5  1  0.93017700  0.64859200  0.60273100  1
  O  O6  1  0.06982600  0.32204400  0.39726900  1
  O  O7  1  0.06982400  0.64859200  0.39726800  1
  O  O8  1  0.93017400  0.32204400  0.60273100  1
