# generated using pymatgen
data_ZnH12C22BrN3O4
_symmetry_space_group_name_H-M   'P 1'
_cell_length_a   13.42701700
_cell_length_b   8.54187300
_cell_length_c   15.01746100
_cell_angle_alpha   90.00000000
_cell_angle_beta   90.99448900
_cell_angle_gamma   90.00000000
_symmetry_Int_Tables_number   1
_chemical_formula_structural   ZnH12C22BrN3O4
_chemical_formula_sum   'Zn2 H24 C44 Br2 N6 O8'
_cell_volume   1722.12130095
_cell_formula_units_Z   2
loop_
 _symmetry_equiv_pos_site_id
 _symmetry_equiv_pos_as_xyz
  1  'x, y, z'
loop_
 _atom_site_type_symbol
 _atom_site_label
 _atom_site_symmetry_multiplicity
 _atom_site_fract_x
 _atom_site_fract_y
 _atom_site_fract_z
 _atom_site_occupancy
  Zn  Zn1  1  0.88886800  0.51715400  0.49840500  1
  Zn  Zn2  1  0.11113100  0.51715400  0.50159600  1
  H  H1  1  0.02918700  0.01688700  0.56414800  1
  H  H2  1  0.97081300  0.01688700  0.43585200  1
  H  H3  1  0.98296800  0.26879700  0.80162600  1
  H  H4  1  0.01753600  0.76579100  0.19819400  1
  H  H5  1  0.01703200  0.26879700  0.19837400  1
  H  H6  1  0.98246500  0.76579100  0.80180600  1
  H  H7  1  0.48068400  0.34214600  0.66573200  1
  H  H8  1  0.57836000  0.49989700  0.27525400  1
  H  H9  1  0.51931600  0.34214600  0.33426900  1
  H  H10  1  0.42164000  0.49989700  0.72474700  1
  H  H11  1  0.60497500  0.53154700  0.71812700  1
  H  H12  1  0.46271200  0.68945100  0.33556900  1
  H  H13  1  0.39502600  0.53154700  0.28187400  1
  H  H14  1  0.53728800  0.68945100  0.66443100  1
  H  H15  1  0.24566000  0.54405600  0.36611400  1
  H  H16  1  0.75434000  0.54405600  0.63388600  1
  H  H17  1  0.23931600  0.73446100  0.68824800  1
  H  H18  1  0.16968600  0.71263400  0.83790100  1
  H  H19  1  0.18976400  0.21583100  0.82233400  1
  H  H20  1  0.25884300  0.23777700  0.67225200  1
  H  H21  1  0.76068500  0.73446100  0.31175200  1
  H  H22  1  0.83031500  0.71263400  0.16210000  1
  H  H23  1  0.81023600  0.21583100  0.17766600  1
  H  H24  1  0.74115600  0.23777700  0.32774800  1
  C  C1  1  0.99914500  0.15682300  0.67615900  1
  C  C2  1  0.00077900  0.87744500  0.32375100  1
  C  C3  1  0.00085500  0.15682300  0.32384100  1
  C  C4  1  0.99922100  0.87744400  0.67624900  1
  C  C5  1  0.98782700  0.15804500  0.76721600  1
  C  C6  1  0.01232800  0.87641600  0.23270000  1
  C  C7  1  0.01217300  0.15804500  0.23278400  1
  C  C8  1  0.98767300  0.87641600  0.76730100  1
  C  C9  1  0.98748200  0.01727700  0.81359400  1
  C  C10  1  0.01251800  0.01727700  0.18640600  1
  C  C11  1  0.01197700  0.01708000  0.63327400  1
  C  C12  1  0.98802300  0.01708000  0.36672600  1
  C  C13  1  0.00883700  0.01732000  0.08883400  1
  C  C14  1  0.99116300  0.01732000  0.91116600  1
  C  C15  1  0.99866000  0.73533900  0.62199000  1
  C  C16  1  0.00142000  0.29896500  0.37806100  1
  C  C17  1  0.00134000  0.73533900  0.37801100  1
  C  C18  1  0.99858000  0.29896500  0.62194000  1
  C  C19  1  0.28868900  0.53145700  0.42712100  1
  C  C20  1  0.71131100  0.53145700  0.57287900  1
  C  C21  1  0.29567200  0.50090300  0.58250500  1
  C  C22  1  0.70432800  0.50090300  0.41749500  1
  C  C23  1  0.39893600  0.49817800  0.58106100  1
  C  C24  1  0.60106400  0.49817800  0.41894000  1
  C  C25  1  0.44605100  0.51544800  0.50137400  1
  C  C26  1  0.55394900  0.51544800  0.49862600  1
  C  C27  1  0.39128800  0.53321400  0.42425300  1
  C  C28  1  0.60871200  0.53321400  0.57574700  1
  C  C29  1  0.46105700  0.46818200  0.66316700  1
  C  C30  1  0.53894300  0.46818200  0.33683300  1
  C  C31  1  0.55631400  0.56333400  0.66050100  1
  C  C32  1  0.44368600  0.56333400  0.33949900  1
  C  C33  1  0.24663000  0.48705200  0.66828900  1
  C  C34  1  0.22512100  0.62022000  0.71631200  1
  C  C35  1  0.18716200  0.60808500  0.80074600  1
  C  C36  1  0.17305500  0.46275200  0.83834400  1
  C  C37  1  0.19874200  0.32970800  0.79211800  1
  C  C38  1  0.23705100  0.34201300  0.70778100  1
  C  C39  1  0.75337000  0.48705200  0.33171200  1
  C  C40  1  0.77488000  0.62022000  0.28368800  1
  C  C41  1  0.81283800  0.60808500  0.19925400  1
  C  C42  1  0.82694500  0.46275200  0.16165600  1
  C  C43  1  0.80125800  0.32970800  0.20788300  1
  C  C44  1  0.76294900  0.34201300  0.29222000  1
  Br  Br1  1  0.12132400  0.44618000  0.95535400  1
  Br  Br2  1  0.87867600  0.44618000  0.04464600  1
  N  N1  1  0.99589100  0.88117400  0.95607500  1
  N  N2  1  0.00410600  0.15347300  0.04392800  1
  N  N3  1  0.00410900  0.88117400  0.04392600  1
  N  N4  1  0.99589400  0.15347300  0.95607200  1
  N  N5  1  0.24193300  0.51715500  0.50553500  1
  N  N6  1  0.75806700  0.51715500  0.49446500  1
  O  O1  1  0.08407400  0.68625700  0.59151300  1
  O  O2  1  0.91602400  0.34768500  0.40873600  1
  O  O3  1  0.91592600  0.68625700  0.40848700  1
  O  O4  1  0.08397600  0.34768500  0.59126400  1
  O  O5  1  0.91235700  0.68097400  0.59322500  1
  O  O6  1  0.08774900  0.35388200  0.40645900  1
  O  O7  1  0.08764400  0.68097400  0.40677500  1
  O  O8  1  0.91225200  0.35388200  0.59354100  1
