# generated using pymatgen
data_CuH10C25(NO4)2
_symmetry_space_group_name_H-M   'P 1'
_cell_length_a   16.03114300
_cell_length_b   14.61607100
_cell_length_c   23.33851600
_cell_angle_alpha   90.00000000
_cell_angle_beta   90.00230400
_cell_angle_gamma   90.00000000
_symmetry_Int_Tables_number   1
_chemical_formula_structural   CuH10C25(NO4)2
_chemical_formula_sum   'Cu2 H20 C50 N4 O16'
_cell_volume   5468.50192523
_cell_formula_units_Z   2
loop_
 _symmetry_equiv_pos_site_id
 _symmetry_equiv_pos_as_xyz
  1  'x, y, z'
loop_
 _atom_site_type_symbol
 _atom_site_label
 _atom_site_symmetry_multiplicity
 _atom_site_fract_x
 _atom_site_fract_y
 _atom_site_fract_z
 _atom_site_occupancy
  Cu  Cu1  1  0.50002700  0.59150100  0.50014000  1
  Cu  Cu2  1  0.50006200  0.40843600  0.49924800  1
  H  H1  1  0.29639900  0.46313600  0.94503000  1
  H  H2  1  0.70340000  0.53700200  0.05434500  1
  H  H3  1  0.29328800  0.46314200  0.04846400  1
  H  H4  1  0.70651300  0.53699000  0.95091300  1
  H  H5  1  0.57186100  0.38379300  0.21659200  1
  H  H6  1  0.42802900  0.61625900  0.78271600  1
  H  H7  1  0.56855600  0.38513100  0.32090300  1
  H  H8  1  0.43144900  0.61485500  0.67840800  1
  H  H9  1  0.41226700  0.61594800  0.21209400  1
  H  H10  1  0.58751300  0.38402500  0.78735300  1
  H  H11  1  0.07666400  0.64575600  0.50317800  1
  H  H12  1  0.92349000  0.35415400  0.49951200  1
  H  H13  1  0.92329600  0.64563200  0.49947000  1
  H  H14  1  0.07685800  0.35427900  0.50322000  1
  H  H15  1  0.58266400  0.08504100  0.57077700  1
  H  H16  1  0.41744800  0.91489600  0.42864900  1
  H  H17  1  0.41741300  0.08321400  0.42781300  1
  H  H18  1  0.58269900  0.91672200  0.57161200  1
  H  H19  1  0.32479000  0.74989000  0.31893400  1
  H  H20  1  0.67498000  0.24992400  0.68058400  1
  C  C1  1  0.34013900  0.50021400  0.50433400  1
  C  C2  1  0.66004900  0.49972200  0.49554500  1
  C  C3  1  0.49163500  0.50120800  0.38964900  1
  C  C4  1  0.50843200  0.49873000  0.60972200  1
  C  C5  1  0.57563400  0.51295800  0.88223400  1
  C  C6  1  0.42417300  0.48714400  0.11714400  1
  C  C7  1  0.43134100  0.48692200  0.88013100  1
  C  C8  1  0.56846400  0.51319200  0.11924300  1
  C  C9  1  0.42850600  0.48701100  0.93937100  1
  C  C10  1  0.57129400  0.51312100  0.06000300  1
  C  C11  1  0.50078500  0.50005800  0.97013100  1
  C  C12  1  0.49901400  0.50007700  0.02924400  1
  C  C13  1  0.57485000  0.51310900  0.94148700  1
  C  C14  1  0.42495100  0.48701800  0.05788900  1
  C  C15  1  0.35406700  0.47364700  0.96806300  1
  C  C16  1  0.64573300  0.52649300  0.03131200  1
  C  C17  1  0.35230000  0.47363000  0.02709700  1
  C  C18  1  0.64750000  0.52650500  0.97227800  1
  C  C19  1  0.53603000  0.43562100  0.23864000  1
  C  C20  1  0.46386000  0.56439800  0.76069900  1
  C  C21  1  0.53304700  0.43578700  0.29760100  1
  C  C22  1  0.46691200  0.56419400  0.70173800  1
  C  C23  1  0.48744900  0.50121800  0.32676100  1
  C  C24  1  0.51252900  0.49873200  0.67261600  1
  C  C25  1  0.44214900  0.56597600  0.29572100  1
  C  C26  1  0.55774600  0.43395900  0.70370100  1
  C  C27  1  0.44700900  0.56609200  0.23657200  1
  C  C28  1  0.55281500  0.43388100  0.76284600  1
  C  C29  1  0.49340000  0.50111500  0.20792900  1
  C  C30  1  0.50643300  0.49890700  0.79144800  1
  C  C31  1  0.95704300  0.58162200  0.50031600  1
  C  C32  1  0.04310400  0.41828900  0.50251900  1
  C  C33  1  0.04299500  0.58169200  0.50249600  1
  C  C34  1  0.95715100  0.41821900  0.50034000  1
  C  C35  1  0.91413200  0.49988500  0.49915800  1
  C  C36  1  0.08601900  0.50002500  0.50360400  1
  C  C37  1  0.82468100  0.49981600  0.49719700  1
  C  C38  1  0.17549600  0.50009700  0.50487300  1
  C  C39  1  0.25065300  0.50015200  0.50518500  1
  C  C40  1  0.74954200  0.49976900  0.49603200  1
  C  C41  1  0.54637700  0.95330700  0.54002600  1
  C  C42  1  0.45373400  0.04662900  0.45939900  1
  C  C43  1  0.45373300  0.95229500  0.45988200  1
  C  C44  1  0.54637800  0.04764200  0.53954400  1
  C  C45  1  0.50004200  0.90564300  0.50019900  1
  C  C46  1  0.50006900  0.09429400  0.49922600  1
  C  C47  1  0.50012600  0.80748300  0.50059200  1
  C  C48  1  0.49998500  0.19245300  0.49883000  1
  C  C49  1  0.38427800  0.63128600  0.32273100  1
  C  C50  1  0.61562500  0.36860500  0.67674900  1
  N  N1  1  0.50438900  0.49970000  0.85257100  1
  N  N2  1  0.49542200  0.50038900  0.14680500  1
  N  N3  1  0.49994800  0.27160600  0.49865700  1
  N  N4  1  0.50016000  0.72833000  0.50075800  1
  O  O1  1  0.37899900  0.57890100  0.50539900  1
  O  O2  1  0.62131200  0.42101700  0.49767300  1
  O  O3  1  0.62123000  0.57833100  0.49843000  1
  O  O4  1  0.37907900  0.42154300  0.50459400  1
  O  O5  1  0.49196100  0.57947100  0.41699200  1
  O  O6  1  0.50808800  0.42030600  0.58241100  1
  O  O7  1  0.50229800  0.57768900  0.58336400  1
  O  O8  1  0.49782200  0.42241000  0.41603700  1
  O  O9  1  0.64736700  0.52790400  0.85394700  1
  O  O10  1  0.35244400  0.47217500  0.14543000  1
  O  O11  1  0.36141200  0.47208500  0.84976900  1
  O  O12  1  0.63839600  0.52802700  0.14960200  1
  O  O13  1  0.34539200  0.61031900  0.36567200  1
  O  O14  1  0.36774700  0.71454400  0.29614800  1
  O  O15  1  0.65467900  0.38958400  0.63388400  1
  O  O16  1  0.63198500  0.28529600  0.70332000  1
