# generated using pymatgen
data_CoH6C13NO4
_symmetry_space_group_name_H-M   'P 1'
_cell_length_a   6.65493600
_cell_length_b   9.20583400
_cell_length_c   14.65049400
_cell_angle_alpha   103.06737100
_cell_angle_beta   102.17947900
_cell_angle_gamma   90.86708600
_symmetry_Int_Tables_number   1
_chemical_formula_structural   CoH6C13NO4
_chemical_formula_sum   'Co2 H12 C26 N2 O8'
_cell_volume   852.76694990
_cell_formula_units_Z   2
loop_
 _symmetry_equiv_pos_site_id
 _symmetry_equiv_pos_as_xyz
  1  'x, y, z'
loop_
 _atom_site_type_symbol
 _atom_site_label
 _atom_site_symmetry_multiplicity
 _atom_site_fract_x
 _atom_site_fract_y
 _atom_site_fract_z
 _atom_site_occupancy
  Co  Co1  1  0.99879000  0.85104800  0.98964900  1
  Co  Co2  1  0.99703900  0.14374400  0.99877700  1
  H  H1  1  0.67902700  0.34314500  0.94519400  1
  H  H2  1  0.37194800  0.24788500  0.02480100  1
  H  H3  1  0.69269400  0.40356400  0.08264800  1
  H  H4  1  0.69425700  0.66678300  0.07370400  1
  H  H5  1  0.37359600  0.76785200  0.00717600  1
  H  H6  1  0.68129000  0.60627000  0.93590000  1
  H  H7  1  0.28748800  0.09643300  0.31585400  1
  H  H8  1  0.54786900  0.07584900  0.45751000  1
  H  H9  1  0.99956800  0.01000800  0.28822300  1
  H  H10  1  0.99629400  0.98625900  0.69971000  1
  H  H11  1  0.71011600  0.90025900  0.67554400  1
  H  H12  1  0.45282700  0.92180200  0.53302500  1
  C  C1  1  0.22702100  0.96504500  0.86350200  1
  C  C2  1  0.76740400  0.02945800  0.12486200  1
  C  C3  1  0.33095800  0.04609100  0.13705200  1
  C  C4  1  0.66100600  0.94969200  0.85388800  1
  C  C5  1  0.36606800  0.36649000  0.03347000  1
  C  C6  1  0.54927900  0.45259600  0.06033700  1
  C  C7  1  0.55020700  0.59985700  0.05547400  1
  C  C8  1  0.36791600  0.65962100  0.02319800  1
  C  C9  1  0.18203700  0.57910900  0.00830600  1
  C  C10  1  0.18045300  0.43174300  0.01490800  1
  C  C11  1  0.82238800  0.41152500  0.96800000  1
  C  C12  1  0.82411800  0.55864200  0.96111400  1
  C  C13  1  0.44591200  0.08355800  0.31041200  1
  C  C14  1  0.59174000  0.07047900  0.38991800  1
  C  C15  1  0.79027300  0.04158800  0.38157600  1
  C  C16  1  0.84415600  0.03370400  0.29494000  1
  C  C17  1  0.69996200  0.04954100  0.21543700  1
  C  C18  1  0.49761000  0.06967000  0.22246400  1
  C  C19  1  0.93798900  0.01175700  0.46116200  1
  C  C20  1  0.06139600  0.98515500  0.52757200  1
  C  C21  1  0.15194700  0.96243500  0.69359400  1
  C  C22  1  0.29466100  0.94597300  0.77334300  1
  C  C23  1  0.49698600  0.92571900  0.76746100  1
  C  C24  1  0.55126300  0.91301900  0.68014300  1
  C  C25  1  0.40713300  0.92660800  0.60015400  1
  C  C26  1  0.20792900  0.95518500  0.60749700  1
  N  N1  1  0.99945200  0.35149400  0.99944700  1
  N  N2  1  0.00319100  0.64228200  0.98447100  1
  O  O1  1  0.17060300  0.84713400  0.89064600  1
  O  O2  1  0.82842600  0.89784400  0.08966600  1
  O  O3  1  0.25128400  0.90987800  0.09716300  1
  O  O4  1  0.74267400  0.83577400  0.88444400  1
  O  O5  1  0.81835200  0.14733500  0.09552200  1
  O  O6  1  0.17269300  0.09713100  0.90116900  1
  O  O7  1  0.24375500  0.15980800  0.10907600  1
  O  O8  1  0.74478700  0.08569500  0.89157500  1
