# generated using pymatgen
data_Cu3H14C30(ClO6)2
_symmetry_space_group_name_H-M   'P 1'
_cell_length_a   23.55915400
_cell_length_b   31.15135500
_cell_length_c   19.38865100
_cell_angle_alpha   90.00000000
_cell_angle_beta   127.40055700
_cell_angle_gamma   90.00000000
_symmetry_Int_Tables_number   1
_chemical_formula_structural   Cu3H14C30(ClO6)2
_chemical_formula_sum   'Cu12 H56 C120 Cl8 O48'
_cell_volume   11303.89791629
_cell_formula_units_Z   4
loop_
 _symmetry_equiv_pos_site_id
 _symmetry_equiv_pos_as_xyz
  1  'x, y, z'
loop_
 _atom_site_type_symbol
 _atom_site_label
 _atom_site_symmetry_multiplicity
 _atom_site_fract_x
 _atom_site_fract_y
 _atom_site_fract_z
 _atom_site_occupancy
  Cu  Cu1  1  0.77348200  0.28907000  0.03847800  1
  Cu  Cu2  1  0.20730700  0.72679300  0.92026700  1
  Cu  Cu3  1  0.19861900  0.29596600  0.90213800  1
  Cu  Cu4  1  0.76564500  0.73503700  0.02329300  1
  Cu  Cu5  1  0.27348200  0.78907000  0.03847800  1
  Cu  Cu6  1  0.70730700  0.22679300  0.92026700  1
  Cu  Cu7  1  0.69861900  0.79596600  0.90213800  1
  Cu  Cu8  1  0.26564500  0.23503700  0.02329300  1
  Cu  Cu9  1  0.93252500  0.00678100  0.47656500  1
  Cu  Cu10  1  0.04755900  0.00743100  0.48064800  1
  Cu  Cu11  1  0.43252500  0.50678100  0.47656500  1
  Cu  Cu12  1  0.54755900  0.50743100  0.48064800  1
  H  H1  1  0.79296500  0.08342600  0.24722000  1
  H  H2  1  0.18755700  0.93607400  0.71950800  1
  H  H3  1  0.18140700  0.08929200  0.69991800  1
  H  H4  1  0.83412800  0.89188800  0.32607100  1
  H  H5  1  0.29296500  0.58342600  0.24722000  1
  H  H6  1  0.68755700  0.43607400  0.71950800  1
  H  H7  1  0.68140700  0.58929200  0.69991800  1
  H  H8  1  0.33412800  0.39188800  0.32607100  1
  H  H9  1  0.92949200  0.11189500  0.27386700  1
  H  H10  1  0.04939100  0.90068800  0.67977000  1
  H  H11  1  0.04436100  0.11597800  0.67402100  1
  H  H12  1  0.92916200  0.90485600  0.26944300  1
  H  H13  1  0.42949200  0.61189500  0.27386700  1
  H  H14  1  0.54939100  0.40068800  0.67977000  1
  H  H15  1  0.54436100  0.61597800  0.67402100  1
  H  H16  1  0.42916200  0.40485600  0.26944300  1
  H  H17  1  0.87426100  0.17858400  0.23288700  1
  H  H18  1  0.11416700  0.83521700  0.72265500  1
  H  H19  1  0.09552600  0.18248200  0.71542800  1
  H  H20  1  0.82257600  0.88713700  0.13282600  1
  H  H21  1  0.37426100  0.67858400  0.23288700  1
  H  H22  1  0.61416700  0.33521700  0.72265500  1
  H  H23  1  0.59552600  0.68248200  0.71542800  1
  H  H24  1  0.32257600  0.38713700  0.13282600  1
  H  H25  1  0.73536800  0.06292500  0.07042900  1
  H  H26  1  0.51699300  0.10113800  0.91148400  1
  H  H27  1  0.55095300  0.17025600  0.98822200  1
  H  H28  1  0.67641600  0.18579200  0.10618600  1
  H  H29  1  0.31826600  0.84891600  0.87058600  1
  H  H30  1  0.43528700  0.93242600  0.08922900  1
  H  H31  1  0.32434400  0.97059500  0.03669300  1
  H  H32  1  0.21071000  0.94868700  0.90034500  1
  H  H33  1  0.25207000  0.07346000  0.88408600  1
  H  H34  1  0.46401400  0.11981000  0.01193600  1
  H  H35  1  0.41666500  0.18550700  0.92405400  1
  H  H36  1  0.28746500  0.19590500  0.81749200  1
  H  H37  1  0.89485700  0.80338400  0.36648300  1
  H  H38  1  0.72475500  0.72054300  0.30026500  1
  H  H39  1  0.64327500  0.75932200  0.16268400  1
  H  H40  1  0.68704100  0.81997700  0.12645200  1
  H  H41  1  0.23536800  0.56292500  0.07042900  1
  H  H42  1  0.01699300  0.60113800  0.91148400  1
  H  H43  1  0.05095300  0.67025600  0.98822200  1
  H  H44  1  0.17641600  0.68579200  0.10618600  1
  H  H45  1  0.81826600  0.34891600  0.87058600  1
  H  H46  1  0.93528700  0.43242600  0.08922900  1
  H  H47  1  0.82434400  0.47059500  0.03669300  1
  H  H48  1  0.71071000  0.44868700  0.90034500  1
  H  H49  1  0.75207000  0.57346000  0.88408600  1
  H  H50  1  0.96401400  0.61981000  0.01193600  1
  H  H51  1  0.91666500  0.68550700  0.92405400  1
  H  H52  1  0.78746500  0.69590500  0.81749200  1
  H  H53  1  0.39485700  0.30338400  0.36648300  1
  H  H54  1  0.22475500  0.22054300  0.30026500  1
  H  H55  1  0.14327500  0.25932200  0.16268400  1
  H  H56  1  0.18704100  0.31997700  0.12645200  1
  C  C1  1  0.79218200  0.20225000  0.10172700  1
  C  C2  1  0.18933800  0.81358800  0.85716700  1
  C  C3  1  0.18082300  0.20840100  0.84299800  1
  C  C4  1  0.78276900  0.82269800  0.08208900  1
  C  C5  1  0.29218200  0.70225000  0.10172700  1
  C  C6  1  0.68933800  0.31358800  0.85716700  1
  C  C7  1  0.68082300  0.70840100  0.84299800  1
  C  C8  1  0.28276900  0.32269800  0.08208900  1
  C  C9  1  0.63067700  0.26672500  0.97650200  1
  C  C10  1  0.34935800  0.74990700  0.98050700  1
  C  C11  1  0.34155200  0.27345300  0.96479700  1
  C  C12  1  0.62290700  0.75754600  0.96111500  1
  C  C13  1  0.13067700  0.76672500  0.97650200  1
  C  C14  1  0.84935800  0.24990700  0.98050700  1
  C  C15  1  0.84155200  0.77345300  0.96479700  1
  C  C16  1  0.12290700  0.25754600  0.96111500  1
  C  C17  1  0.56884000  0.27147900  0.97394900  1
  C  C18  1  0.40788900  0.74860100  0.97599800  1
  C  C19  1  0.40266600  0.27624700  0.96545100  1
  C  C20  1  0.56291700  0.75409500  0.96254900  1
  C  C21  1  0.06884000  0.77147900  0.97394900  1
  C  C22  1  0.90788900  0.24860100  0.97599800  1
  C  C23  1  0.90266600  0.77624700  0.96545100  1
  C  C24  1  0.06291700  0.25409500  0.96254900  1
  C  C25  1  0.51643700  0.27449700  0.97106000  1
  C  C26  1  0.45657800  0.74920700  0.97129400  1
  C  C27  1  0.45488000  0.27645300  0.96762000  1
  C  C28  1  0.51362700  0.75145100  0.96591100  1
  C  C29  1  0.01643700  0.77449700  0.97106000  1
  C  C30  1  0.95657800  0.24920700  0.97129400  1
  C  C31  1  0.95488000  0.77645300  0.96762000  1
  C  C32  1  0.01362700  0.25145100  0.96591100  1
  C  C33  1  0.82613800  0.10279800  0.23810800  1
  C  C34  1  0.15394400  0.91444900  0.72408700  1
  C  C35  1  0.14789700  0.10829700  0.70899800  1
  C  C36  1  0.85242000  0.88742300  0.28703000  1
  C  C37  1  0.32613800  0.60279800  0.23810800  1
  C  C38  1  0.65394400  0.41444900  0.72408700  1
  C  C39  1  0.64789700  0.60829700  0.70899800  1
  C  C40  1  0.35242000  0.38742300  0.28703000  1
  C  C41  1  0.89646700  0.09552000  0.28709600  1
  C  C42  1  0.08310400  0.91884800  0.66981600  1
  C  C43  1  0.07787800  0.09994300  0.66120500  1
  C  C44  1  0.90527300  0.91182300  0.30148000  1
  C  C45  1  0.39646700  0.59552000  0.28709600  1
  C  C46  1  0.58310400  0.41884800  0.66981600  1
  C  C47  1  0.57787800  0.59994300  0.66120500  1
  C  C48  1  0.40527300  0.41182300  0.30148000  1
  C  C49  1  0.79007700  0.13412700  0.16634700  1
  C  C50  1  0.18859900  0.88404700  0.79696400  1
  C  C51  1  0.18366400  0.14071200  0.77873500  1
  C  C52  1  0.82150300  0.85189800  0.22400200  1
  C  C53  1  0.29007700  0.63412700  0.16634700  1
  C  C54  1  0.68859900  0.38404700  0.79696400  1
  C  C55  1  0.68366400  0.64071200  0.77873500  1
  C  C56  1  0.32150300  0.35189800  0.22400200  1
  C  C57  1  0.82297600  0.17073000  0.17243000  1
  C  C58  1  0.16019600  0.84503200  0.78663200  1
  C  C59  1  0.14891200  0.17608700  0.77374200  1
  C  C60  1  0.81156800  0.85637900  0.14850600  1
  C  C61  1  0.32297600  0.67073000  0.17243000  1
  C  C62  1  0.66019600  0.34503200  0.78663200  1
  C  C63  1  0.64891100  0.67608700  0.77374200  1
  C  C64  1  0.31156800  0.35637900  0.14850600  1
  C  C65  1  0.43546400  0.44661500  0.36540000  1
  C  C66  1  0.54567400  0.56674000  0.59370900  1
  C  C67  1  0.54978700  0.45080700  0.60026000  1
  C  C68  1  0.43009000  0.56340000  0.35674500  1
  C  C69  1  0.93546400  0.94661500  0.36540000  1
  C  C70  1  0.04567400  0.06674000  0.59370900  1
  C  C71  1  0.04978700  0.95080700  0.60026000  1
  C  C72  1  0.93009000  0.06340000  0.35674500  1
  C  C73  1  0.71464800  0.12593900  0.09408900  1
  C  C74  1  0.69510800  0.08672900  0.05234000  1
  C  C75  1  0.62428200  0.07795000  0.98648500  1
  C  C76  1  0.57253900  0.10807200  0.96295300  1
  C  C77  1  0.59158200  0.14684700  0.00582400  1
  C  C78  1  0.66235500  0.15567200  0.07169800  1
  C  C79  1  0.25709800  0.89702500  0.87765700  1
  C  C80  1  0.31944900  0.87564400  0.90700200  1
  C  C81  1  0.38345600  0.88852800  0.98278900  1
  C  C82  1  0.38518200  0.92251700  0.02954700  1
  C  C83  1  0.32307400  0.94401700  0.99996200  1
  C  C84  1  0.25930900  0.93171000  0.92343000  1
  C  C85  1  0.26105400  0.13598400  0.84599900  1
  C  C86  1  0.28798600  0.09844900  0.89343000  1
  C  C87  1  0.36081600  0.09290100  0.95359600  1
  C  C88  1  0.40696700  0.12435500  0.96519100  1
  C  C89  1  0.38038700  0.16130400  0.91629700  1
  C  C90  1  0.30764900  0.16716200  0.85679400  1
  C  C91  1  0.79462100  0.81470100  0.24282800  1
  C  C92  1  0.83963000  0.79363000  0.32116400  1
  C  C93  1  0.81471500  0.75964900  0.34145800  1
  C  C94  1  0.74433900  0.74709100  0.28420400  1
  C  C95  1  0.69873100  0.76874800  0.20693600  1
  C  C96  1  0.72362100  0.80264400  0.18639600  1
  C  C97  1  0.21464800  0.62593900  0.09408900  1
  C  C98  1  0.19510800  0.58672900  0.05234000  1
  C  C99  1  0.12428200  0.57795000  0.98648500  1
  C  C100  1  0.07253900  0.60807200  0.96295300  1
  C  C101  1  0.09158200  0.64684700  0.00582400  1
  C  C102  1  0.16235500  0.65567200  0.07169800  1
  C  C103  1  0.75709800  0.39702500  0.87765700  1
  C  C104  1  0.81944900  0.37564400  0.90700200  1
  C  C105  1  0.88345600  0.38852800  0.98278900  1
  C  C106  1  0.88518200  0.42251700  0.02954700  1
  C  C107  1  0.82307400  0.44401700  0.99996200  1
  C  C108  1  0.75930900  0.43171000  0.92343000  1
  C  C109  1  0.76105400  0.63598400  0.84599900  1
  C  C110  1  0.78798600  0.59844900  0.89343000  1
  C  C111  1  0.86081600  0.59290100  0.95359600  1
  C  C112  1  0.90696700  0.62435500  0.96519100  1
  C  C113  1  0.88038700  0.66130400  0.91629700  1
  C  C114  1  0.80764900  0.66716200  0.85679400  1
  C  C115  1  0.29462100  0.31470100  0.24282800  1
  C  C116  1  0.33963000  0.29363000  0.32116400  1
  C  C117  1  0.31471500  0.25964900  0.34145800  1
  C  C118  1  0.24433900  0.24709100  0.28420400  1
  C  C119  1  0.19873100  0.26874800  0.20693600  1
  C  C120  1  0.22362100  0.30264400  0.18639600  1
  Cl  Cl1  1  0.60003900  0.02841600  0.93291800  1
  Cl  Cl2  1  0.46268300  0.86182200  0.01979500  1
  Cl  Cl3  1  0.39508500  0.04570100  0.01482200  1
  Cl  Cl4  1  0.87244600  0.73257600  0.44025100  1
  Cl  Cl5  1  0.10003900  0.52841600  0.93291800  1
  Cl  Cl6  1  0.96268300  0.36182200  0.01979400  1
  Cl  Cl7  1  0.89508500  0.54570100  0.01482200  1
  Cl  Cl8  1  0.37244600  0.23257600  0.44025100  1
  O  O1  1  0.80686900  0.24287500  0.12309800  1
  O  O2  1  0.17477500  0.77293000  0.83570900  1
  O  O3  1  0.16517900  0.24873200  0.81967500  1
  O  O4  1  0.79682600  0.78218400  0.10555200  1
  O  O5  1  0.30686900  0.74287500  0.12309800  1
  O  O6  1  0.67477500  0.27293000  0.83570900  1
  O  O7  1  0.66517900  0.74873200  0.81967500  1
  O  O8  1  0.29682600  0.28218400  0.10555200  1
  O  O9  1  0.75356500  0.18879100  0.02096500  1
  O  O10  1  0.22656600  0.82704600  0.93776300  1
  O  O11  1  0.22059500  0.19586200  0.92445100  1
  O  O12  1  0.74567000  0.83516300  0.00099400  1
  O  O13  1  0.25356500  0.68879100  0.02096500  1
  O  O14  1  0.72656600  0.32704600  0.93776300  1
  O  O15  1  0.72059500  0.69586200  0.92445100  1
  O  O16  1  0.24567000  0.33516300  0.00099400  1
  O  O17  1  0.68738700  0.28997100  0.03185900  1
  O  O18  1  0.29357300  0.72557600  0.92728900  1
  O  O19  1  0.28438900  0.29610700  0.90798700  1
  O  O20  1  0.67905500  0.73378800  0.01549300  1
  O  O21  1  0.18738700  0.78997100  0.03185900  1
  O  O22  1  0.79357300  0.22557600  0.92728900  1
  O  O23  1  0.78438900  0.79610700  0.90798700  1
  O  O24  1  0.17905500  0.23378800  0.01549300  1
  O  O25  1  0.62770500  0.23890500  0.92366500  1
  O  O26  1  0.35265100  0.77741200  0.03402400  1
  O  O27  1  0.34525700  0.24697200  0.01987900  1
  O  O28  1  0.61979800  0.78510300  0.90768700  1
  O  O29  1  0.12770500  0.73890500  0.92366500  1
  O  O30  1  0.85265100  0.27741200  0.03402400  1
  O  O31  1  0.84525700  0.74697200  0.01987900  1
  O  O32  1  0.11979800  0.28510300  0.90768700  1
  O  O33  1  0.49915700  0.46095900  0.39613900  1
  O  O34  1  0.48063600  0.55370600  0.56008400  1
  O  O35  1  0.48456300  0.46310900  0.56680600  1
  O  O36  1  0.49585400  0.55163300  0.39142900  1
  O  O37  1  0.99915700  0.96095900  0.39613900  1
  O  O38  1  0.98063600  0.05370600  0.56008400  1
  O  O39  1  0.98456300  0.96310900  0.56680600  1
  O  O40  1  0.99585400  0.05163300  0.39142900  1
  O  O41  1  0.39759800  0.46221000  0.38857700  1
  O  O42  1  0.58321800  0.55129300  0.57003500  1
  O  O43  1  0.58611000  0.46570900  0.57435300  1
  O  O44  1  0.39353200  0.54792400  0.38184000  1
  O  O45  1  0.89759800  0.96221000  0.38857700  1
  O  O46  1  0.08321800  0.05129300  0.57003500  1
  O  O47  1  0.08611000  0.96570900  0.57435300  1
  O  O48  1  0.89353200  0.04792400  0.38184000  1
