# generated using pymatgen
data_V4H36C49O20
_symmetry_space_group_name_H-M   'P 1'
_cell_length_a   6.36158800
_cell_length_b   13.42120800
_cell_length_c   15.54797100
_cell_angle_alpha   90.25368700
_cell_angle_beta   89.98600600
_cell_angle_gamma   90.00617400
_symmetry_Int_Tables_number   1
_chemical_formula_structural   V4H36C49O20
_chemical_formula_sum   'V4 H36 C49 O20'
_cell_volume   1327.47574826
_cell_formula_units_Z   1
loop_
 _symmetry_equiv_pos_site_id
 _symmetry_equiv_pos_as_xyz
  1  'x, y, z'
loop_
 _atom_site_type_symbol
 _atom_site_label
 _atom_site_symmetry_multiplicity
 _atom_site_fract_x
 _atom_site_fract_y
 _atom_site_fract_z
 _atom_site_occupancy
  V  V1  1  0.91115300  0.48658900  0.50199900  1
  V  V2  1  0.41148400  0.51066300  0.50310400  1
  V  V3  1  0.35639400  0.00412300  0.99759200  1
  V  V4  1  0.85645400  0.98044900  0.99785100  1
  H  H1  1  0.81291500  0.66633200  0.71272000  1
  H  H2  1  0.97044400  0.58934800  0.78313900  1
  H  H3  1  0.95635000  0.71076000  0.88409200  1
  H  H4  1  0.81213700  0.79042000  0.81141500  1
  H  H5  1  0.97748000  0.78492000  0.62039700  1
  H  H6  1  0.00214400  0.90796200  0.71723700  1
  H  H7  1  0.48566500  0.67800700  0.70523800  1
  H  H8  1  0.35071900  0.59458000  0.77698300  1
  H  H9  1  0.34746800  0.71140600  0.88060500  1
  H  H10  1  0.48550700  0.79614400  0.81038500  1
  H  H11  1  0.28488200  0.90693000  0.71454100  1
  H  H12  1  0.81026700  0.76893500  0.16370300  1
  H  H13  1  0.48574500  0.90574500  0.16201300  1
  H  H14  1  0.80337600  0.88550700  0.24977300  1
  H  H15  1  0.80917800  0.76218000  0.36609600  1
  H  H16  1  0.49992600  0.66072900  0.39522900  1
  H  H17  1  0.81394600  0.64484400  0.27910900  1
  H  H18  1  0.95969500  0.26400500  0.65832200  1
  H  H19  1  0.28585700  0.40205100  0.66159100  1
  H  H20  1  0.96726500  0.37762700  0.74814400  1
  H  H21  1  0.95968100  0.24808000  0.85932400  1
  H  H22  1  0.26687500  0.14409000  0.88409700  1
  H  H23  1  0.95566500  0.13454800  0.76947400  1
  H  H24  1  0.91608800  0.27743400  0.33734400  1
  H  H25  1  0.20486800  0.40156900  0.32680400  1
  H  H26  1  0.92010900  0.37760800  0.22878300  1
  H  H27  1  0.95134200  0.26047700  0.10784600  1
  H  H28  1  0.27809900  0.16850800  0.08574200  1
  H  H29  1  0.93004000  0.15262400  0.22166500  1
  H  H30  1  0.34876200  0.71685200  0.56088500  1
  H  H31  1  0.16328200  0.92480000  0.53109200  1
  H  H32  1  0.07335900  0.80936700  0.48284200  1
  H  H33  1  0.33281400  0.85671000  0.45796200  1
  H  H34  1  0.47022200  0.92773500  0.61428500  1
  H  H35  1  0.63040700  0.82741000  0.57509900  1
  H  H36  1  0.53272900  0.82278300  0.68369400  1
  C  C1  1  0.65318900  0.38958200  0.61783400  1
  C  C2  1  0.60391000  0.39577100  0.38177700  1
  C  C3  1  0.12147300  0.60231600  0.38575200  1
  C  C4  1  0.15418500  0.59872800  0.62460900  1
  C  C5  1  0.95929400  0.66295700  0.75132600  1
  C  C6  1  0.95620700  0.74484500  0.81924600  1
  C  C7  1  0.13280600  0.77978300  0.65244900  1
  C  C8  1  0.34546700  0.66926400  0.74681800  1
  C  C9  1  0.14758100  0.67736200  0.69310900  1
  C  C10  1  0.14822000  0.81112100  0.80957200  1
  C  C11  1  0.14354900  0.85996000  0.72187600  1
  C  C12  1  0.34467700  0.74809700  0.81684400  1
  C  C13  1  0.48632700  0.85340500  0.21428100  1
  C  C14  1  0.66484800  0.84164100  0.26331100  1
  C  C15  1  0.66811900  0.77250500  0.32842300  1
  C  C16  1  0.49219100  0.71592000  0.34522500  1
  C  C17  1  0.31039400  0.72965900  0.29798200  1
  C  C18  1  0.30865400  0.79834500  0.23165500  1
  C  C19  1  0.12759400  0.81389300  0.18431800  1
  C  C20  1  0.95074800  0.75835100  0.20167500  1
  C  C21  1  0.95362600  0.68807000  0.26597400  1
  C  C22  1  0.13107700  0.67466900  0.31553700  1
  C  C23  1  0.28412500  0.34668300  0.71154200  1
  C  C24  1  0.10526200  0.33273300  0.75994300  1
  C  C25  1  0.10096200  0.26010600  0.82214100  1
  C  C26  1  0.27616400  0.20222800  0.83670200  1
  C  C27  1  0.45854500  0.21813300  0.79026400  1
  C  C28  1  0.46098400  0.29019000  0.72672800  1
  C  C29  1  0.64226600  0.30817600  0.68036600  1
  C  C30  1  0.81876400  0.25133400  0.69555200  1
  C  C31  1  0.81557100  0.17783800  0.75732300  1
  C  C32  1  0.63782900  0.16242900  0.80638900  1
  C  C33  1  0.23265200  0.35271300  0.27335800  1
  C  C34  1  0.06542500  0.33755500  0.21853400  1
  C  C35  1  0.08244300  0.27185900  0.15100500  1
  C  C36  1  0.26595400  0.21962600  0.13928300  1
  C  C37  1  0.43483000  0.23433500  0.19374200  1
  C  C38  1  0.42286700  0.30382000  0.26002300  1
  C  C39  1  0.59899200  0.32040000  0.31216000  1
  C  C40  1  0.77951400  0.26539400  0.29726200  1
  C  C41  1  0.78872400  0.19595900  0.23139800  1
  C  C42  1  0.61541600  0.17950900  0.18016600  1
  C  C43  1  0.61219100  0.09866400  0.11625800  1
  C  C44  1  0.64668700  0.09068900  0.87727000  1
  C  C45  1  0.15085300  0.88888200  0.87885100  1
  C  C46  1  0.11628300  0.89101700  0.11798000  1
  C  C47  1  0.30186400  0.79195900  0.58388800  1
  C  C48  1  0.21183500  0.84958700  0.50893900  1
  C  C49  1  0.49518300  0.84601100  0.61722800  1
  O  O1  1  0.45067300  0.46168900  0.38478600  1
  O  O2  1  0.82466800  0.44279400  0.61777000  1
  O  O3  1  0.03056600  0.60654900  0.55733900  1
  O  O4  1  0.73658600  0.38163800  0.44733400  1
  O  O5  1  0.94969900  0.54651000  0.38781300  1
  O  O6  1  0.53116300  0.38653000  0.54984500  1
  O  O7  1  0.63700900  0.57471600  0.50394900  1
  O  O8  1  0.23535700  0.61924600  0.45628300  1
  O  O9  1  0.32350700  0.54426800  0.62149100  1
  O  O10  1  0.13696100  0.42284700  0.49811800  1
  O  O11  1  0.81745100  0.03422100  0.88133900  1
  O  O12  1  0.44282800  0.04421000  0.11462800  1
  O  O13  1  0.23648000  0.88302700  0.04980100  1
  O  O14  1  0.53295500  0.11025200  0.94705600  1
  O  O15  1  0.31817600  0.94781800  0.88152600  1
  O  O16  1  0.73698800  0.10312900  0.04899800  1
  O  O17  1  0.63089400  0.91635000  0.99670600  1
  O  O18  1  0.03212800  0.87296600  0.94800800  1
  O  O19  1  0.94363400  0.94322400  0.11524700  1
  O  O20  1  0.13107200  0.06829400  0.99552800  1
