# generated using pymatgen
data_Zn2H16C32N2O9
_symmetry_space_group_name_H-M   'P 1'
_cell_length_a   8.53121500
_cell_length_b   9.16542100
_cell_length_c   13.04330100
_cell_angle_alpha   90.58845600
_cell_angle_beta   86.46209800
_cell_angle_gamma   93.22565700
_symmetry_Int_Tables_number   1
_chemical_formula_structural   Zn2H16C32N2O9
_chemical_formula_sum   'Zn2 H16 C32 N2 O9'
_cell_volume   1016.30399707
_cell_formula_units_Z   1
loop_
 _symmetry_equiv_pos_site_id
 _symmetry_equiv_pos_as_xyz
  1  'x, y, z'
loop_
 _atom_site_type_symbol
 _atom_site_label
 _atom_site_symmetry_multiplicity
 _atom_site_fract_x
 _atom_site_fract_y
 _atom_site_fract_z
 _atom_site_occupancy
  Zn  Zn1  1  0.44175500  0.16510500  0.49114000  1
  Zn  Zn2  1  0.42974600  0.83937900  0.49844100  1
  H  H1  1  0.35980900  0.98994400  0.18165300  1
  H  H2  1  0.39137200  0.99681000  0.99645900  1
  H  H3  1  0.94678800  0.04711800  0.56704900  1
  H  H4  1  0.64408000  0.99906100  0.83459700  1
  H  H5  1  0.74875900  0.99391900  0.99181400  1
  H  H6  1  0.28595100  0.99784100  0.83379000  1
  H  H7  1  0.72126700  0.02802300  0.14673100  1
  H  H8  1  0.92939900  0.95335800  0.42202300  1
  H  H9  1  0.35428700  0.38784500  0.65306900  1
  H  H10  1  0.59289100  0.60617900  0.62341400  1
  H  H11  1  0.69577800  0.43393100  0.45070100  1
  H  H12  1  0.51546100  0.61634300  0.33643700  1
  H  H13  1  0.27347700  0.39725800  0.36823200  1
  H  H14  1  0.06323900  0.65710700  0.39821800  1
  H  H15  1  0.80169700  0.70987300  0.50994000  1
  H  H16  1  0.84541500  0.62448600  0.69905600  1
  C  C1  1  0.97525300  0.00113400  0.13078100  1
  C  C2  1  0.10756100  0.99375500  0.18750300  1
  C  C3  1  0.25601300  0.99454200  0.13865200  1
  C  C4  1  0.27447500  0.99772900  0.03341100  1
  C  C5  1  0.14522400  0.99880200  0.97541800  1
  C  C6  1  0.99511400  0.00066500  0.02311700  1
  C  C7  1  0.16808300  0.99801500  0.86922100  1
  C  C8  1  0.04144700  0.00152000  0.80881400  1
  C  C9  1  0.89159000  0.00175400  0.85606000  1
  C  C10  1  0.86857300  0.99845900  0.96135400  1
  C  C11  1  0.06039000  0.00864900  0.70221000  1
  C  C12  1  0.93082400  0.02846400  0.64784700  1
  C  C13  1  0.78208900  0.02105500  0.69416700  1
  C  C14  1  0.76169200  0.00499600  0.79839900  1
  C  C15  1  0.82762400  0.01067900  0.18371700  1
  C  C16  1  0.81283000  0.99654700  0.28916500  1
  C  C17  1  0.94299700  0.97336000  0.34131300  1
  C  C18  1  0.09027600  0.98238600  0.29329100  1
  C  C19  1  0.64845900  0.01628600  0.63009400  1
  C  C20  1  0.66236200  0.00140400  0.34993300  1
  C  C21  1  0.22364900  0.98797100  0.35855500  1
  C  C22  1  0.21069900  0.00340600  0.64099500  1
  C  C23  1  0.39211200  0.44098500  0.57898500  1
  C  C24  1  0.29874400  0.53695900  0.51755400  1
  C  C25  1  0.52159000  0.55787500  0.56219800  1
  C  C26  1  0.57458900  0.46640300  0.47157100  1
  C  C27  1  0.47875400  0.56307200  0.41066400  1
  C  C28  1  0.34901800  0.44605000  0.42721800  1
  C  C29  1  0.13615900  0.57886500  0.54622400  1
  C  C30  1  0.03922200  0.63730600  0.47932900  1
  C  C31  1  0.90526200  0.66318700  0.53639100  1
  C  C32  1  0.92978600  0.61818700  0.63408600  1
  N  N1  1  0.42626500  0.64756600  0.50113500  1
  N  N2  1  0.44474200  0.35684300  0.48838400  1
  O  O1  1  0.59512600  0.88746900  0.59910000  1
  O  O2  1  0.60027500  0.13970700  0.59694800  1
  O  O3  1  0.61577500  0.12899300  0.38353700  1
  O  O4  1  0.60031100  0.87693400  0.38646200  1
  O  O5  1  0.27626200  0.11664200  0.39049300  1
  O  O6  1  0.27190200  0.86505600  0.39223100  1
  O  O7  1  0.25585400  0.87584200  0.60612800  1
  O  O8  1  0.27195700  0.12751100  0.60360600  1
  O  O9  1  0.07063100  0.56637100  0.64058700  1
