# generated using pymatgen
data_CuH27C42(N3O2)2
_symmetry_space_group_name_H-M   'P 1'
_cell_length_a   14.96889800
_cell_length_b   13.54567400
_cell_length_c   19.23250900
_cell_angle_alpha   90.00000000
_cell_angle_beta   89.99544200
_cell_angle_gamma   90.00000000
_symmetry_Int_Tables_number   1
_chemical_formula_structural   CuH27C42(N3O2)2
_chemical_formula_sum   'Cu2 H54 C84 N12 O8'
_cell_volume   3899.65683543
_cell_formula_units_Z   2
loop_
 _symmetry_equiv_pos_site_id
 _symmetry_equiv_pos_as_xyz
  1  'x, y, z'
loop_
 _atom_site_type_symbol
 _atom_site_label
 _atom_site_symmetry_multiplicity
 _atom_site_fract_x
 _atom_site_fract_y
 _atom_site_fract_z
 _atom_site_occupancy
  Cu  Cu1  1  0.49983500  0.60327200  0.50049400  1
  Cu  Cu2  1  0.49955300  0.40580200  0.49982700  1
  H  H1  1  0.51556300  0.66288200  0.28094900  1
  H  H2  1  0.50603100  0.34636300  0.71912500  1
  H  H3  1  0.47481800  0.66046800  0.71942900  1
  H  H4  1  0.50454100  0.34714300  0.28117100  1
  H  H5  1  0.51493300  0.66272900  0.15525700  1
  H  H6  1  0.50784000  0.34620100  0.84469200  1
  H  H7  1  0.47733500  0.66066900  0.84497500  1
  H  H8  1  0.50431200  0.34667000  0.15571600  1
  H  H9  1  0.77478500  0.48610500  0.39584700  1
  H  H10  1  0.22468400  0.50960100  0.60540200  1
  H  H11  1  0.92780600  0.51770400  0.67601000  1
  H  H12  1  0.07154800  0.48502800  0.32489800  1
  H  H13  1  0.08906700  0.51359400  0.67074200  1
  H  H14  1  0.91033200  0.48040000  0.33055200  1
  H  H15  1  0.40829700  0.75783500  0.58222200  1
  H  H16  1  0.59258900  0.25074500  0.41863400  1
  H  H17  1  0.59386900  0.75680700  0.42104900  1
  H  H18  1  0.41008300  0.25139800  0.58264100  1
  H  H19  1  0.71671400  0.48086300  0.63747100  1
  H  H20  1  0.67990700  0.57445800  0.74079400  1
  H  H21  1  0.65351000  0.74110300  0.78570800  1
  H  H22  1  0.71875700  0.88476000  0.72637800  1
  H  H23  1  0.81043000  0.86106800  0.62180400  1
  H  H24  1  0.83715800  0.69831400  0.57576500  1
  H  H25  1  0.28377500  0.46307500  0.36520500  1
  H  H26  1  0.31094900  0.54114600  0.25235800  1
  H  H27  1  0.32959700  0.70102000  0.19457900  1
  H  H28  1  0.26550900  0.85097000  0.24634300  1
  H  H29  1  0.18234300  0.84053700  0.35618500  1
  H  H30  1  0.16265200  0.68493400  0.41453100  1
  H  H31  1  0.62354800  0.85553300  0.32650700  1
  H  H32  1  0.74516100  0.75454100  0.30056000  1
  H  H33  1  0.88916700  0.68688500  0.33664500  1
  H  H34  1  0.96893000  0.75768900  0.43658300  1
  H  H35  1  0.90450600  0.89848800  0.49968400  1
  H  H36  1  0.76262000  0.96857400  0.46441100  1
  H  H37  1  0.28044400  0.08942600  0.64359900  1
  H  H38  1  0.25116500  0.09580900  0.76064000  1
  H  H39  1  0.30804000  0.09544600  0.87975700  1
  H  H40  1  0.46933400  0.10872900  0.90182900  1
  H  H41  1  0.57392100  0.12338300  0.80389300  1
  H  H42  1  0.51922500  0.12491900  0.68494100  1
  H  H43  1  0.37869100  0.85578300  0.67677600  1
  H  H44  1  0.24921900  0.76839100  0.70848200  1
  H  H45  1  0.10229800  0.70705900  0.67389400  1
  H  H46  1  0.02900700  0.77158300  0.56898200  1
  H  H47  1  0.10257400  0.90046200  0.49961800  1
  H  H48  1  0.24677200  0.96518500  0.53362500  1
  H  H49  1  0.72308500  0.08787200  0.35806900  1
  H  H50  1  0.75035000  0.09408000  0.24077200  1
  H  H51  1  0.69148200  0.09308700  0.12225100  1
  H  H52  1  0.52983000  0.10609500  0.10177600  1
  H  H53  1  0.42687200  0.12097000  0.20072000  1
  H  H54  1  0.48348300  0.12300000  0.31907600  1
  C  C1  1  0.32827900  0.50508100  0.49506300  1
  C  C2  1  0.67108400  0.50387500  0.50530900  1
  C  C3  1  0.50625900  0.50506700  0.36654300  1
  C  C4  1  0.49327700  0.50391600  0.63376100  1
  C  C5  1  0.51334200  0.59296900  0.25394600  1
  C  C6  1  0.49906600  0.41581000  0.74621700  1
  C  C7  1  0.48179300  0.59090000  0.74638700  1
  C  C8  1  0.50733900  0.41697500  0.25411300  1
  C  C9  1  0.51290000  0.59280700  0.18222600  1
  C  C10  1  0.50018400  0.41579000  0.81790800  1
  C  C11  1  0.48337900  0.59098200  0.81806900  1
  C  C12  1  0.50716900  0.41675200  0.18244300  1
  C  C13  1  0.50903600  0.50470700  0.14597800  1
  C  C14  1  0.49321000  0.50349600  0.85433800  1
  C  C15  1  0.50950100  0.50509200  0.29031900  1
  C  C16  1  0.49070700  0.50345100  0.71000500  1
  C  C17  1  0.49715500  0.50383300  0.93063100  1
  C  C18  1  0.50564900  0.50447700  0.06967200  1
  C  C19  1  0.81290800  0.49302300  0.44332900  1
  C  C20  1  0.18651900  0.50682200  0.55772700  1
  C  C21  1  0.76871200  0.50332900  0.50567000  1
  C  C22  1  0.23065700  0.50453200  0.49495100  1
  C  C23  1  0.81696600  0.51368400  0.56675700  1
  C  C24  1  0.18231600  0.50238300  0.43350100  1
  C  C25  1  0.90976400  0.50961100  0.56484300  1
  C  C26  1  0.08955900  0.49800300  0.43583300  1
  C  C27  1  0.95349900  0.50167200  0.50174800  1
  C  C28  1  0.04586600  0.50187600  0.49912500  1
  C  C29  1  0.90488400  0.49395900  0.44116000  1
  C  C30  1  0.09451200  0.50668700  0.55984900  1
  C  C31  1  0.95933000  0.51330500  0.62560200  1
  C  C32  1  0.04001000  0.48990100  0.37527800  1
  C  C33  1  0.05117600  0.51081000  0.62294300  1
  C  C34  1  0.94820200  0.48688300  0.37818500  1
  C  C35  1  0.44945500  0.80007900  0.54717500  1
  C  C36  1  0.55228300  0.20893400  0.45465900  1
  C  C37  1  0.55326900  0.79961500  0.45615700  1
  C  C38  1  0.45034000  0.20927000  0.54676000  1
  C  C39  1  0.55461700  0.90198800  0.45493200  1
  C  C40  1  0.45052000  0.10708000  0.54846300  1
  C  C41  1  0.44950200  0.90243200  0.54876600  1
  C  C42  1  0.55349600  0.10668200  0.45425800  1
  C  C43  1  0.50212000  0.95344300  0.50177000  1
  C  C44  1  0.50205800  0.05545500  0.50150100  1
  C  C45  1  0.60743500  0.95358200  0.40761500  1
  C  C46  1  0.39935500  0.05661100  0.59671200  1
  C  C47  1  0.39702900  0.95447200  0.59604300  1
  C  C48  1  0.60502200  0.05574000  0.40644400  1
  C  C49  1  0.75902500  0.62277800  0.65489500  1
  C  C50  1  0.70798800  0.63719500  0.71384400  1
  C  C51  1  0.69348500  0.73084600  0.73945900  1
  C  C52  1  0.73009700  0.81127200  0.70631900  1
  C  C53  1  0.78150700  0.79787500  0.64770700  1
  C  C54  1  0.79639000  0.70429600  0.62186000  1
  C  C55  1  0.23632300  0.59972800  0.33755600  1
  C  C56  1  0.28300300  0.60675300  0.27581300  1
  C  C57  1  0.29329900  0.69654500  0.24305700  1
  C  C58  1  0.25730200  0.78052100  0.27195400  1
  C  C59  1  0.21063400  0.77455400  0.33348800  1
  C  C60  1  0.19966700  0.68486100  0.36636400  1
  C  C61  1  0.74207500  0.86511000  0.38014100  1
  C  C62  1  0.77927400  0.78640900  0.34472700  1
  C  C63  1  0.86048100  0.74807300  0.36491500  1
  C  C64  1  0.90523400  0.78789600  0.42079100  1
  C  C65  1  0.86900100  0.86673400  0.45615300  1
  C  C66  1  0.78789900  0.90575600  0.43598700  1
  C  C67  1  0.38082900  0.10821800  0.71395500  1
  C  C68  1  0.32232700  0.10132200  0.76940200  1
  C  C69  1  0.35412400  0.10117000  0.83667100  1
  C  C70  1  0.44447900  0.10857600  0.84906200  1
  C  C71  1  0.50307900  0.11656600  0.79413400  1
  C  C72  1  0.47163700  0.11663100  0.72673700  1
  C  C73  1  0.26005800  0.86978000  0.62353600  1
  C  C74  1  0.21788500  0.79750900  0.66218100  1
  C  C75  1  0.13506600  0.76273200  0.64281300  1
  C  C76  1  0.09389600  0.79916200  0.58419800  1
  C  C77  1  0.13522600  0.87136300  0.54537200  1
  C  C78  1  0.21771400  0.90735300  0.56495200  1
  C  C79  1  0.62148900  0.10649000  0.28877000  1
  C  C80  1  0.67904100  0.09943700  0.23273200  1
  C  C81  1  0.64612100  0.09895300  0.16578900  1
  C  C82  1  0.55556500  0.10619700  0.15429000  1
  C  C83  1  0.49788400  0.11432500  0.20978800  1
  C  C84  1  0.53044300  0.11468300  0.27686700  1
  N  N1  1  0.50616800  0.41856500  0.03456800  1
  N  N2  1  0.49658900  0.58975400  0.96573400  1
  N  N3  1  0.50214700  0.41824900  0.96590900  1
  N  N4  1  0.50078700  0.59007600  0.03439500  1
  N  N5  1  0.50001000  0.75098900  0.50084600  1
  N  N6  1  0.49928900  0.25810500  0.49928200  1
  N  N7  1  0.77227400  0.52465000  0.63106500  1
  N  N8  1  0.22676500  0.50521000  0.36866000  1
  N  N9  1  0.65925600  0.90391200  0.35698500  1
  N  N10  1  0.34673600  0.10922900  0.64524400  1
  N  N11  1  0.34427900  0.90531200  0.64630600  1
  N  N12  1  0.65682100  0.10787900  0.35712200  1
  O  O1  1  0.36991400  0.58992200  0.49899500  1
  O  O2  1  0.62944400  0.41914500  0.50078100  1
  O  O3  1  0.62943400  0.58890800  0.50684700  1
  O  O4  1  0.36995800  0.42015500  0.49396400  1
  O  O5  1  0.50174800  0.58968600  0.39938800  1
  O  O6  1  0.49831000  0.41933300  0.60092600  1
  O  O7  1  0.49166600  0.58897200  0.60134100  1
  O  O8  1  0.50709300  0.42011400  0.39897200  1
