# generated using pymatgen
data_Fe2H15C49N2O20F3
_symmetry_space_group_name_H-M   'P 1'
_cell_length_a   8.60461400
_cell_length_b   23.24195400
_cell_length_c   11.08227100
_cell_angle_alpha   112.25406200
_cell_angle_beta   77.89803300
_cell_angle_gamma   93.93783300
_symmetry_Int_Tables_number   1
_chemical_formula_structural   Fe2H15C49N2O20F3
_chemical_formula_sum   'Fe2 H15 C49 N2 O20 F3'
_cell_volume   2005.50856360
_cell_formula_units_Z   1
loop_
 _symmetry_equiv_pos_site_id
 _symmetry_equiv_pos_as_xyz
  1  'x, y, z'
loop_
 _atom_site_type_symbol
 _atom_site_label
 _atom_site_symmetry_multiplicity
 _atom_site_fract_x
 _atom_site_fract_y
 _atom_site_fract_z
 _atom_site_occupancy
  Fe  Fe1  1  0.49741300  0.00019400  0.28890800  1
  Fe  Fe2  1  0.45821900  0.99952700  0.73037100  1
  H  H1  1  0.94707700  0.02593600  0.83329100  1
  H  H2  1  0.00871600  0.97401500  0.18647500  1
  H  H3  1  0.40699000  0.24432000  0.91324200  1
  H  H4  1  0.30442000  0.33048800  0.87782100  1
  H  H5  1  0.45224500  0.47290900  0.64720700  1
  H  H6  1  0.71863800  0.79234100  0.52702900  1
  H  H7  1  0.25205500  0.62349300  0.59245200  1
  H  H8  1  0.37255400  0.54737900  0.57644600  1
  H  H9  1  0.23773700  0.20857800  0.49439200  1
  H  H10  1  0.78042900  0.31900600  0.55908800  1
  H  H11  1  0.65769900  0.43997800  0.37527200  1
  H  H12  1  0.57020000  0.75640100  0.10031400  1
  H  H13  1  0.57197900  0.51590800  0.31261400  1
  H  H14  1  0.68296800  0.67178100  0.13394600  1
  H  H15  1  0.68959400  0.39278200  0.49188700  1
  C  C1  1  0.09722400  0.98928100  0.12093400  1
  C  C2  1  0.06127200  0.00237600  0.02141900  1
  C  C3  1  0.89460200  0.99749800  0.99819500  1
  C  C4  1  0.85857800  0.01057500  0.89869100  1
  C  C5  1  0.76431800  0.98332000  0.09150100  1
  C  C6  1  0.52839000  0.87568300  0.26594500  1
  C  C7  1  0.25604400  0.99863700  0.15444500  1
  C  C8  1  0.35709700  0.10810000  0.48999200  1
  C  C9  1  0.59871500  0.89189800  0.52976000  1
  C  C10  1  0.69974600  0.00111100  0.86510400  1
  C  C11  1  0.43144500  0.12399700  0.75208200  1
  C  C12  1  0.19164600  0.01646800  0.92802000  1
  C  C13  1  0.29123400  0.37399900  0.66316900  1
  C  C14  1  0.05668500  0.31890100  0.62801300  1
  C  C15  1  0.27187500  0.21594700  0.58758400  1
  C  C16  1  0.33582200  0.16722400  0.60363900  1
  C  C17  1  0.37205100  0.23564400  0.81980600  1
  C  C18  1  0.31319200  0.28464200  0.80041100  1
  C  C19  1  0.26055700  0.27462500  0.68485000  1
  C  C20  1  0.09543300  0.41379200  0.58922000  1
  C  C21  1  0.24007800  0.41918000  0.62676000  1
  C  C22  1  0.33595200  0.46836600  0.62237500  1
  C  C23  1  0.00297800  0.36335400  0.59113900  1
  C  C24  1  0.38281100  0.17628300  0.72260800  1
  C  C25  1  0.58018600  0.82376700  0.29497700  1
  C  C26  1  0.08054300  0.55573700  0.51855500  1
  C  C27  1  0.85576200  0.49254300  0.45730300  1
  C  C28  1  0.94313900  0.54625800  0.46781400  1
  C  C29  1  0.15635400  0.61238300  0.53997700  1
  C  C30  1  0.10658500  0.65761300  0.50300100  1
  C  C31  1  0.97384300  0.64606200  0.44241500  1
  C  C32  1  0.89206100  0.59084800  0.42828500  1
  C  C33  1  0.75659500  0.58045300  0.37487600  1
  C  C34  1  0.69966700  0.62498100  0.34066300  1
  C  C35  1  0.91609000  0.68849300  0.39922100  1
  C  C36  1  0.68877700  0.78481500  0.43221000  1
  C  C37  1  0.62243900  0.83290800  0.41577100  1
  C  C38  1  0.60039600  0.76500100  0.19545700  1
  C  C39  1  0.66485700  0.71681700  0.21403900  1
  C  C40  1  0.71125900  0.72687400  0.33226100  1
  C  C41  1  0.13730200  0.50938500  0.55102600  1
  C  C42  1  0.04445100  0.45796900  0.54894400  1
  C  C43  1  0.90152200  0.45014400  0.50590400  1
  C  C44  1  0.28633400  0.51255800  0.58402700  1
  C  C45  1  0.85735100  0.35732700  0.55559600  1
  C  C46  1  0.72460100  0.48219800  0.39721300  1
  C  C47  1  0.67555100  0.52580000  0.35761000  1
  C  C48  1  0.80684600  0.40007400  0.51378400  1
  C  C49  1  0.19557400  0.71834100  0.53578000  1
  N  N1  1  0.19988400  0.32444800  0.66213200  1
  N  N2  1  0.77881800  0.67815100  0.35446800  1
  O  O1  1  0.64097500  0.02109100  0.14708000  1
  O  O2  1  0.47996600  0.86458600  0.15463700  1
  O  O3  1  0.77052600  0.93373600  0.11985300  1
  O  O4  1  0.54855300  0.93324300  0.34422300  1
  O  O5  1  0.29490200  0.96894300  0.22443700  1
  O  O6  1  0.34556600  0.04391800  0.13672200  1
  O  O7  1  0.49666400  0.08019500  0.44566400  1
  O  O8  1  0.24176100  0.08655300  0.42468900  1
  O  O9  1  0.45880900  0.91952000  0.57346000  1
  O  O10  1  0.71347200  0.91395300  0.59546500  1
  O  O11  1  0.66093800  0.03065900  0.79482300  1
  O  O12  1  0.61021400  0.95587400  0.88304800  1
  O  O13  1  0.18585400  0.06611400  0.89977000  1
  O  O14  1  0.40727800  0.06656500  0.67522500  1
  O  O15  1  0.31466400  0.97854300  0.87219800  1
  O  O16  1  0.48187700  0.13487500  0.86243800  1
  O  O17  1  0.43550400  0.37801500  0.69409300  1
  O  O18  1  0.99631800  0.73982300  0.39776700  1
  O  O19  1  0.96577100  0.26976200  0.63002600  1
  O  O20  1  0.56134100  0.61640300  0.29842500  1
  F  F1  1  0.30983900  0.72030400  0.60820900  1
  F  F2  1  0.09109000  0.76735100  0.61220200  1
  F  F3  1  0.27272800  0.72564300  0.41979900  1
