# generated using pymatgen
data_Zn2H20C33N4O9
_symmetry_space_group_name_H-M   'P 1'
_cell_length_a   8.51975600
_cell_length_b   10.88284100
_cell_length_c   13.41273700
_cell_angle_alpha   90.89996800
_cell_angle_beta   90.06706100
_cell_angle_gamma   90.01473300
_symmetry_Int_Tables_number   1
_chemical_formula_structural   Zn2H20C33N4O9
_chemical_formula_sum   'Zn2 H20 C33 N4 O9'
_cell_volume   1243.46326253
_cell_formula_units_Z   1
loop_
 _symmetry_equiv_pos_site_id
 _symmetry_equiv_pos_as_xyz
  1  'x, y, z'
loop_
 _atom_site_type_symbol
 _atom_site_label
 _atom_site_symmetry_multiplicity
 _atom_site_fract_x
 _atom_site_fract_y
 _atom_site_fract_z
 _atom_site_occupancy
  Zn  Zn1  1  0.45952400  0.91879100  0.74858100  1
  Zn  Zn2  1  0.46045700  0.91311800  0.97076200  1
  H  H1  1  0.56966800  0.52647100  0.85381900  1
  H  H2  1  0.56975700  0.30467700  0.85688200  1
  H  H3  1  0.21598400  0.32365800  0.84175300  1
  H  H4  1  0.21597200  0.50785700  0.87496700  1
  H  H5  1  0.95705400  0.82856500  0.83005700  1
  H  H6  1  0.95731600  0.00431300  0.89315000  1
  H  H7  1  0.45745000  0.72671000  0.60278400  1
  H  H8  1  0.45598300  0.61921100  0.44582300  1
  H  H9  1  0.46545000  0.11846800  0.28686900  1
  H  H10  1  0.46046200  0.12347400  0.43874200  1
  H  H11  1  0.45782600  0.72191900  0.11439800  1
  H  H12  1  0.46037700  0.11223800  0.61531000  1
  H  H13  1  0.22572800  0.14712600  0.12429100  1
  H  H14  1  0.29899900  0.24293400  0.02581100  1
  H  H15  1  0.33466500  0.28813800  0.25084200  1
  H  H16  1  0.22931000  0.37369400  0.16112100  1
  H  H17  1  0.59144300  0.29023800  0.25622300  1
  H  H18  1  0.70367800  0.37234200  0.16821200  1
  H  H19  1  0.70471800  0.14310000  0.13731500  1
  H  H20  1  0.64879500  0.23774900  0.03415200  1
  C  C1  1  0.96314500  0.48018500  0.85824900  1
  C  C2  1  0.82055800  0.54312700  0.85642700  1
  C  C3  1  0.68084000  0.47884200  0.85572300  1
  C  C4  1  0.68091900  0.35245500  0.85665700  1
  C  C5  1  0.82071900  0.28841200  0.85913700  1
  C  C6  1  0.96320100  0.35148000  0.85792300  1
  C  C7  1  0.81998200  0.16123900  0.86586900  1
  C  C8  1  0.95873900  0.10046500  0.87828100  1
  C  C9  1  0.09894200  0.15865200  0.86565400  1
  C  C10  1  0.10239300  0.28371000  0.85364700  1
  C  C11  1  0.10229500  0.54798000  0.86378500  1
  C  C12  1  0.09877900  0.67336800  0.85414600  1
  C  C13  1  0.95848800  0.73193600  0.84282000  1
  C  C14  1  0.81961000  0.67053300  0.85260700  1
  C  C15  1  0.67826400  0.08499500  0.86255600  1
  C  C16  1  0.67759100  0.74649100  0.85627100  1
  C  C17  1  0.24086500  0.74828600  0.85699300  1
  C  C18  1  0.24073300  0.08349000  0.86271500  1
  C  C19  1  0.45920200  0.80943700  0.15363100  1
  C  C20  1  0.46304700  0.02443100  0.15049300  1
  C  C21  1  0.46297900  0.02954300  0.25292300  1
  C  C22  1  0.46041500  0.92353300  0.30809100  1
  C  C23  1  0.45891100  0.81237500  0.25696100  1
  C  C24  1  0.46021800  0.03299000  0.46944900  1
  C  C25  1  0.45976800  0.92530500  0.41223300  1
  C  C26  1  0.45840300  0.81493700  0.46134900  1
  C  C27  1  0.45717400  0.70582800  0.40746900  1
  C  C28  1  0.45995000  0.02780000  0.57181900  1
  C  C29  1  0.45825500  0.81337000  0.56449300  1
  C  C30  1  0.32415200  0.20685000  0.10098700  1
  C  C31  1  0.33524700  0.31621300  0.17195900  1
  C  C32  1  0.59640200  0.31576800  0.17681300  1
  C  C33  1  0.61196500  0.20429600  0.10804600  1
  N  N1  1  0.46110100  0.91447800  0.10166800  1
  N  N2  1  0.45730100  0.70626100  0.30713300  1
  N  N3  1  0.45915800  0.91923500  0.61787000  1
  N  N4  1  0.46734600  0.13584100  0.09727100  1
  O  O1  1  0.62981200  0.03821600  0.94631000  1
  O  O2  1  0.62362300  0.04882800  0.77529600  1
  O  O3  1  0.62862000  0.79310400  0.77215900  1
  O  O4  1  0.62404400  0.78274400  0.94411600  1
  O  O5  1  0.28982400  0.79371200  0.77241300  1
  O  O6  1  0.29643900  0.78295500  0.94463200  1
  O  O7  1  0.29054700  0.03785800  0.94673400  1
  O  O8  1  0.29583400  0.04880500  0.77542900  1
  O  O9  1  0.46714100  0.38657300  0.14998000  1
