# generated using pymatgen
data_Cu3H23C38I5O12
_symmetry_space_group_name_H-M   'P 1'
_cell_length_a   36.74093100
_cell_length_b   30.21379000
_cell_length_c   21.26128300
_cell_angle_alpha   90.00000000
_cell_angle_beta   54.98502100
_cell_angle_gamma   90.00000000
_symmetry_Int_Tables_number   1
_chemical_formula_structural   Cu3H23C38I5O12
_chemical_formula_sum   'Cu12 H92 C152 I20 O48'
_cell_volume   19329.90982647
_cell_formula_units_Z   4
loop_
 _symmetry_equiv_pos_site_id
 _symmetry_equiv_pos_as_xyz
  1  'x, y, z'
loop_
 _atom_site_type_symbol
 _atom_site_label
 _atom_site_symmetry_multiplicity
 _atom_site_fract_x
 _atom_site_fract_y
 _atom_site_fract_z
 _atom_site_occupancy
  Cu  Cu1  1  0.00000000  0.54138100  0.50000000  1
  Cu  Cu2  1  0.50000000  0.04138100  0.50000000  1
  Cu  Cu3  1  0.00000000  0.45510300  0.50000000  1
  Cu  Cu4  1  0.50000000  0.95510300  0.50000000  1
  Cu  Cu5  1  0.95572200  0.50102100  0.04383300  1
  Cu  Cu6  1  0.04427800  0.50102100  0.95616700  1
  Cu  Cu7  1  0.45572200  0.00102100  0.04383300  1
  Cu  Cu8  1  0.54427800  0.00102100  0.95616700  1
  Cu  Cu9  1  0.50039800  0.50110800  0.93695400  1
  Cu  Cu10  1  0.49960200  0.50110800  0.06304600  1
  Cu  Cu11  1  0.00039800  0.00110800  0.93695400  1
  Cu  Cu12  1  0.99960200  0.00110800  0.06304600  1
  H  H1  1  0.97740900  0.56626100  0.32896800  1
  H  H2  1  0.02259100  0.56626100  0.67103200  1
  H  H3  1  0.47740900  0.06626100  0.32896800  1
  H  H4  1  0.52259100  0.06626100  0.67103200  1
  H  H5  1  0.93641000  0.53379800  0.25946200  1
  H  H6  1  0.06359000  0.53379800  0.74053800  1
  H  H7  1  0.43641000  0.03379800  0.25946200  1
  H  H8  1  0.56359000  0.03379800  0.74053800  1
  H  H9  1  0.98464400  0.56925800  0.21794200  1
  H  H10  1  0.01535600  0.56925800  0.78205800  1
  H  H11  1  0.48464400  0.06925800  0.21794200  1
  H  H12  1  0.51535600  0.06925800  0.78205800  1
  H  H13  1  0.05245700  0.54572800  0.24766700  1
  H  H14  1  0.94754300  0.54572800  0.75233300  1
  H  H15  1  0.55245700  0.04572800  0.24766700  1
  H  H16  1  0.44754300  0.04572800  0.75233300  1
  H  H17  1  0.06178900  0.53715200  0.13530100  1
  H  H18  1  0.93821100  0.53715200  0.86469900  1
  H  H19  1  0.56178900  0.03715200  0.13530100  1
  H  H20  1  0.43821100  0.03715200  0.86469900  1
  H  H21  1  0.95407300  0.44155800  0.34852700  1
  H  H22  1  0.04592700  0.44155800  0.65147300  1
  H  H23  1  0.45407300  0.94155800  0.34852700  1
  H  H24  1  0.54592700  0.94155800  0.65147300  1
  H  H25  1  0.94679300  0.45267600  0.25226500  1
  H  H26  1  0.05320700  0.45267600  0.74773600  1
  H  H27  1  0.44679300  0.95267600  0.25226500  1
  H  H28  1  0.55320700  0.95267600  0.74773600  1
  H  H29  1  0.00141500  0.42875800  0.18950600  1
  H  H30  1  0.99858500  0.42875800  0.81049400  1
  H  H31  1  0.50141500  0.92875800  0.18950600  1
  H  H32  1  0.49858500  0.92875800  0.81049400  1
  H  H33  1  0.07180500  0.49029000  0.23784900  1
  H  H34  1  0.92819500  0.49029000  0.76215100  1
  H  H35  1  0.57180500  0.99029000  0.23784900  1
  H  H36  1  0.42819500  0.99029000  0.76215100  1
  H  H37  1  0.06798900  0.47774500  0.13580200  1
  H  H38  1  0.93201100  0.47774500  0.86419800  1
  H  H39  1  0.56798900  0.97774500  0.13580200  1
  H  H40  1  0.43201100  0.97774500  0.86419800  1
  H  H41  1  0.78043900  0.43789100  0.77241700  1
  H  H42  1  0.21956100  0.43789100  0.22758300  1
  H  H43  1  0.28043900  0.93789100  0.77241700  1
  H  H44  1  0.71956100  0.93789100  0.22758300  1
  H  H45  1  0.86118900  0.43689500  0.69042600  1
  H  H46  1  0.13881100  0.43689500  0.30957400  1
  H  H47  1  0.36118900  0.93689500  0.69042600  1
  H  H48  1  0.63881100  0.93689500  0.30957400  1
  H  H49  1  0.86111100  0.56111600  0.59370600  1
  H  H50  1  0.13888900  0.56111600  0.40629400  1
  H  H51  1  0.36111100  0.06111600  0.59370600  1
  H  H52  1  0.63888900  0.06111600  0.40629400  1
  H  H53  1  0.78062000  0.56158900  0.67506200  1
  H  H54  1  0.21938000  0.56158900  0.32493800  1
  H  H55  1  0.28062000  0.06158900  0.67506200  1
  H  H56  1  0.71938000  0.06158900  0.32493800  1
  H  H57  1  0.72070400  0.51847700  0.68619300  1
  H  H58  1  0.27929600  0.51847700  0.31380700  1
  H  H59  1  0.22070400  0.01847700  0.68619300  1
  H  H60  1  0.77929600  0.01847700  0.31380700  1
  H  H61  1  0.64006400  0.51940100  0.76602800  1
  H  H62  1  0.35993600  0.51940100  0.23397200  1
  H  H63  1  0.14006400  0.01940100  0.76602800  1
  H  H64  1  0.85993600  0.01940100  0.23397200  1
  H  H65  1  0.63966900  0.48292800  0.96085700  1
  H  H66  1  0.36033100  0.48292800  0.03914400  1
  H  H67  1  0.13966900  0.98292800  0.96085700  1
  H  H68  1  0.86033100  0.98292800  0.03914400  1
  H  H69  1  0.72041900  0.48181600  0.88047500  1
  H  H70  1  0.27958100  0.48181600  0.11952500  1
  H  H71  1  0.22041900  0.98181600  0.88047500  1
  H  H72  1  0.77958100  0.98181600  0.11952500  1
  H  H73  1  0.05047300  0.72116500  0.87937100  1
  H  H74  1  0.94952700  0.72116500  0.12062900  1
  H  H75  1  0.55047300  0.22116500  0.87937100  1
  H  H76  1  0.44952700  0.22116500  0.12062900  1
  H  H77  1  0.42929800  0.28204400  0.08118100  1
  H  H78  1  0.57070200  0.28204400  0.91881900  1
  H  H79  1  0.92929800  0.78204400  0.08118100  1
  H  H80  1  0.07070200  0.78204400  0.91881900  1
  H  H81  1  0.07046100  0.28155700  0.91643600  1
  H  H82  1  0.92953900  0.28155700  0.08356400  1
  H  H83  1  0.57046100  0.78155700  0.91643600  1
  H  H84  1  0.42953900  0.78155700  0.08356400  1
  H  H85  1  0.07055400  0.36152000  0.91783700  1
  H  H86  1  0.92944600  0.36152000  0.08216300  1
  H  H87  1  0.57055400  0.86152000  0.91783700  1
  H  H88  1  0.42944600  0.86152000  0.08216300  1
  H  H89  1  0.43867000  0.72058300  0.00996400  1
  H  H90  1  0.56133000  0.72058300  0.99003600  1
  H  H91  1  0.93867000  0.22058300  0.00996400  1
  H  H92  1  0.06133000  0.22058300  0.99003600  1
  C  C1  1  0.91578200  0.49835700  0.58566500  1
  C  C2  1  0.08421800  0.49835700  0.41433500  1
  C  C3  1  0.41578200  0.99835700  0.58566500  1
  C  C4  1  0.58421800  0.99835700  0.41433500  1
  C  C5  1  0.99915300  0.49805100  0.38167000  1
  C  C6  1  0.00084700  0.49805100  0.61833000  1
  C  C7  1  0.49915300  0.99805100  0.38167000  1
  C  C8  1  0.50084700  0.99805100  0.61833000  1
  C  C9  1  0.96763800  0.53370500  0.31899400  1
  C  C10  1  0.03236200  0.53370500  0.68100600  1
  C  C11  1  0.46763800  0.03370500  0.31899400  1
  C  C12  1  0.53236200  0.03370500  0.68100600  1
  C  C13  1  0.97042100  0.53673600  0.24531500  1
  C  C14  1  0.02957900  0.53673600  0.75468500  1
  C  C15  1  0.47042100  0.03673600  0.24531500  1
  C  C16  1  0.52957900  0.03673600  0.75468500  1
  C  C17  1  0.04551600  0.51078200  0.24203700  1
  C  C18  1  0.95448400  0.51078200  0.75796300  1
  C  C19  1  0.54551600  0.01078200  0.24203700  1
  C  C20  1  0.45448400  0.01078200  0.75796300  1
  C  C21  1  0.98640000  0.45269500  0.29732800  1
  C  C22  1  0.01360000  0.45269500  0.70267200  1
  C  C23  1  0.48640000  0.95269500  0.29732800  1
  C  C24  1  0.51360000  0.95269500  0.70267200  1
  C  C25  1  0.99948200  0.49811100  0.31101600  1
  C  C26  1  0.00051800  0.49811100  0.68898400  1
  C  C27  1  0.49948200  0.99811100  0.31101600  1
  C  C28  1  0.50051800  0.99811100  0.68898400  1
  C  C29  1  0.00007600  0.50013900  0.19093500  1
  C  C30  1  0.99992400  0.50013900  0.80906500  1
  C  C31  1  0.50007600  0.00013900  0.19093500  1
  C  C32  1  0.49992400  0.00013900  0.80906500  1
  C  C33  1  0.04698100  0.50649600  0.16960500  1
  C  C34  1  0.95301900  0.50649600  0.83039500  1
  C  C35  1  0.54698100  0.00649600  0.16960500  1
  C  C36  1  0.45301900  0.00649600  0.83039500  1
  C  C37  1  0.98222400  0.45593500  0.23069300  1
  C  C38  1  0.01777600  0.45593500  0.76930700  1
  C  C39  1  0.48222400  0.95593500  0.23069300  1
  C  C40  1  0.51777600  0.95593500  0.76930700  1
  C  C41  1  0.79803500  0.46519500  0.73356900  1
  C  C42  1  0.20196500  0.46519500  0.26643100  1
  C  C43  1  0.29803500  0.96519500  0.73356900  1
  C  C44  1  0.70196500  0.96519500  0.26643100  1
  C  C45  1  0.84387000  0.46447600  0.68648600  1
  C  C46  1  0.15613000  0.46447600  0.31351400  1
  C  C47  1  0.34387000  0.96447600  0.68648600  1
  C  C48  1  0.65613000  0.96447600  0.31351400  1
  C  C49  1  0.86706000  0.49878200  0.63567000  1
  C  C50  1  0.13294000  0.49878200  0.36433000  1
  C  C51  1  0.36706000  0.99878200  0.63567000  1
  C  C52  1  0.63294000  0.99878200  0.36433000  1
  C  C53  1  0.84387500  0.53373400  0.63252400  1
  C  C54  1  0.15612500  0.53373400  0.36747600  1
  C  C55  1  0.34387500  0.03373400  0.63252400  1
  C  C56  1  0.65612500  0.03373400  0.36747600  1
  C  C57  1  0.79809600  0.53391000  0.67834300  1
  C  C58  1  0.20190400  0.53391000  0.32165700  1
  C  C59  1  0.29809600  0.03391000  0.67834300  1
  C  C60  1  0.70190400  0.03391000  0.32165700  1
  C  C61  1  0.77490800  0.49972200  0.72922800  1
  C  C62  1  0.22509200  0.49972200  0.27077200  1
  C  C63  1  0.27490800  0.99972200  0.72922800  1
  C  C64  1  0.72509200  0.99972200  0.27077200  1
  C  C65  1  0.70311600  0.51094800  0.74663800  1
  C  C66  1  0.29688400  0.51094800  0.25336200  1
  C  C67  1  0.20311600  0.01094800  0.74663800  1
  C  C68  1  0.79688400  0.01094800  0.25336200  1
  C  C69  1  0.65732400  0.51106300  0.79187100  1
  C  C70  1  0.34267600  0.51106300  0.20812900  1
  C  C71  1  0.15732400  0.01106300  0.79187100  1
  C  C72  1  0.84267600  0.01106300  0.20812900  1
  C  C73  1  0.63405400  0.50123400  0.86918100  1
  C  C74  1  0.36594600  0.50123400  0.13081900  1
  C  C75  1  0.13405400  0.00123400  0.86918100  1
  C  C76  1  0.86594600  0.00123400  0.13081900  1
  C  C77  1  0.65710400  0.49087100  0.90060400  1
  C  C78  1  0.34289600  0.49087100  0.09939600  1
  C  C79  1  0.15710400  0.99087100  0.90060400  1
  C  C80  1  0.84289600  0.99087100  0.09939600  1
  C  C81  1  0.70293100  0.48980200  0.85489500  1
  C  C82  1  0.29706900  0.48980200  0.14510600  1
  C  C83  1  0.20293100  0.98980200  0.85489500  1
  C  C84  1  0.79706900  0.98980200  0.14510600  1
  C  C85  1  0.72617800  0.50008800  0.77776600  1
  C  C86  1  0.27382200  0.50008800  0.22223400  1
  C  C87  1  0.22617800  0.00008800  0.77776600  1
  C  C88  1  0.77382200  0.00008800  0.22223400  1
  C  C89  1  0.00000000  0.58621300  0.00000000  1
  C  C90  1  0.50000000  0.08621300  0.00000000  1
  C  C91  1  0.00026100  0.50089200  0.12055900  1
  C  C92  1  0.99973900  0.50089200  0.87944100  1
  C  C93  1  0.50026100  0.00089200  0.12055900  1
  C  C94  1  0.49973900  0.00089200  0.87944100  1
  C  C95  1  0.00000000  0.41592000  0.00000000  1
  C  C96  1  0.50000000  0.91592000  0.00000000  1
  C  C97  1  0.50000000  0.41610800  0.00000000  1
  C  C98  1  0.00000000  0.91610800  0.00000000  1
  C  C99  1  0.58535100  0.50150800  0.91705700  1
  C  C100  1  0.41464900  0.50150800  0.08294300  1
  C  C101  1  0.08535100  0.00150800  0.91705700  1
  C  C102  1  0.91464900  0.00150800  0.08294300  1
  C  C103  1  0.50000000  0.58616600  0.00000000  1
  C  C104  1  0.00000000  0.08616600  0.00000000  1
  C  C105  1  0.02864900  0.70399300  0.93312600  1
  C  C106  1  0.97135100  0.70399300  0.06687400  1
  C  C107  1  0.52864900  0.20399300  0.93312600  1
  C  C108  1  0.47135100  0.20399300  0.06687400  1
  C  C109  1  0.02901900  0.65838100  0.93275900  1
  C  C110  1  0.97098100  0.65838100  0.06724100  1
  C  C111  1  0.52901900  0.15838100  0.93275900  1
  C  C112  1  0.47098100  0.15838100  0.06724100  1
  C  C113  1  0.00000000  0.63493400  0.00000000  1
  C  C114  1  0.50000000  0.13493400  0.00000000  1
  C  C115  1  0.00000000  0.72720700  0.00000000  1
  C  C116  1  0.50000000  0.22720700  0.00000000  1
  C  C117  1  0.46069100  0.29914600  0.04602100  1
  C  C118  1  0.53930900  0.29914600  0.95397900  1
  C  C119  1  0.96069100  0.79914600  0.04602100  1
  C  C120  1  0.03930900  0.79914600  0.95397900  1
  C  C121  1  0.46072400  0.34476000  0.04629800  1
  C  C122  1  0.53927600  0.34476000  0.95370200  1
  C  C123  1  0.96072400  0.84476000  0.04629800  1
  C  C124  1  0.03927600  0.84476000  0.95370200  1
  C  C125  1  0.50000000  0.36774900  0.00000000  1
  C  C126  1  0.00000000  0.86774900  0.00000000  1
  C  C127  1  0.50000000  0.27592000  0.00000000  1
  C  C128  1  0.00000000  0.77592000  0.00000000  1
  C  C129  1  0.03932800  0.29866500  0.95426800  1
  C  C130  1  0.96067200  0.29866500  0.04573200  1
  C  C131  1  0.53932800  0.79866500  0.95426800  1
  C  C132  1  0.46067200  0.79866500  0.04573200  1
  C  C133  1  0.03935500  0.34429500  0.95453800  1
  C  C134  1  0.96064500  0.34429500  0.04546200  1
  C  C135  1  0.53935500  0.84429500  0.95453800  1
  C  C136  1  0.46064500  0.84429500  0.04546200  1
  C  C137  1  0.00000000  0.36739300  0.00000000  1
  C  C138  1  0.50000000  0.86739300  0.00000000  1
  C  C139  1  0.00000000  0.27541900  0.00000000  1
  C  C140  1  0.50000000  0.77541900  0.00000000  1
  C  C141  1  0.46566000  0.70344300  0.00618800  1
  C  C142  1  0.53434000  0.70344300  0.99381200  1
  C  C143  1  0.96566000  0.20344300  0.00618800  1
  C  C144  1  0.03434000  0.20344300  0.99381200  1
  C  C145  1  0.46551100  0.65781400  0.00635500  1
  C  C146  1  0.53448900  0.65781400  0.99364500  1
  C  C147  1  0.96551100  0.15781400  0.00635500  1
  C  C148  1  0.03448900  0.15781400  0.99364500  1
  C  C149  1  0.50000000  0.63465600  0.00000000  1
  C  C150  1  0.00000000  0.13465600  0.00000000  1
  C  C151  1  0.50000000  0.72667600  0.00000000  1
  C  C152  1  0.00000000  0.22667600  0.00000000  1
  I  I1  1  0.90026600  0.52254400  0.41361900  1
  I  I2  1  0.09973400  0.52254400  0.58638100  1
  I  I3  1  0.40026600  0.02254400  0.41361900  1
  I  I4  1  0.59973400  0.02254400  0.58638100  1
  I  I5  1  0.07270000  0.62778900  0.82502300  1
  I  I6  1  0.92730000  0.62778900  0.17497700  1
  I  I7  1  0.57270000  0.12778900  0.82502300  1
  I  I8  1  0.42730000  0.12778900  0.17497700  1
  I  I9  1  0.40001600  0.37849600  0.11693300  1
  I  I10  1  0.59998400  0.37849600  0.88306700  1
  I  I11  1  0.90001600  0.87849600  0.11693300  1
  I  I12  1  0.09998400  0.87849600  0.88306700  1
  I  I13  1  0.41005200  0.62529200  0.02194100  1
  I  I14  1  0.58994800  0.62529200  0.97805900  1
  I  I15  1  0.91005200  0.12529200  0.02194100  1
  I  I16  1  0.08994800  0.12529200  0.97805900  1
  I  I17  1  0.03315800  0.40102600  0.27203200  1
  I  I18  1  0.96684200  0.40102600  0.72796800  1
  I  I19  1  0.53315800  0.90102600  0.27203200  1
  I  I20  1  0.46684200  0.90102600  0.72796800  1
  O  O1  1  0.93650900  0.53461700  0.54645700  1
  O  O2  1  0.06349100  0.53461700  0.45354300  1
  O  O3  1  0.43650900  0.03461700  0.54645700  1
  O  O4  1  0.56349100  0.03461700  0.45354300  1
  O  O5  1  0.93684600  0.46187700  0.58192200  1
  O  O6  1  0.06315400  0.46187700  0.41807900  1
  O  O7  1  0.43684600  0.96187700  0.58192200  1
  O  O8  1  0.56315400  0.96187700  0.41807900  1
  O  O9  1  0.01168000  0.53458900  0.39855400  1
  O  O10  1  0.98832000  0.53458900  0.60144600  1
  O  O11  1  0.51168000  0.03458900  0.39855400  1
  O  O12  1  0.48832000  0.03458900  0.60144600  1
  O  O13  1  0.98635000  0.46186800  0.42423100  1
  O  O14  1  0.01365000  0.46186800  0.57576900  1
  O  O15  1  0.48635000  0.96186800  0.42423100  1
  O  O16  1  0.51365000  0.96186800  0.57576900  1
  O  O17  1  0.96174200  0.56536000  0.03506100  1
  O  O18  1  0.03825800  0.56536000  0.96493900  1
  O  O19  1  0.46174200  0.06536000  0.03506100  1
  O  O20  1  0.53825800  0.06536000  0.96493900  1
  O  O21  1  0.96201800  0.50276200  0.12898200  1
  O  O22  1  0.03798200  0.50276200  0.87101800  1
  O  O23  1  0.46201800  0.00276200  0.12898200  1
  O  O24  1  0.53798200  0.00276200  0.87101800  1
  O  O25  1  0.03855500  0.50262300  0.05329900  1
  O  O26  1  0.96144500  0.50262300  0.94670100  1
  O  O27  1  0.53855500  0.00262300  0.05329900  1
  O  O28  1  0.46144500  0.00262300  0.94670100  1
  O  O29  1  0.96177100  0.43668600  0.03544400  1
  O  O30  1  0.03822900  0.43668600  0.96455600  1
  O  O31  1  0.46177100  0.93668600  0.03544400  1
  O  O32  1  0.53822900  0.93668600  0.96455600  1
  O  O33  1  0.49914700  0.43673700  0.94651000  1
  O  O34  1  0.50085300  0.43673700  0.05349000  1
  O  O35  1  0.99914700  0.93673700  0.94651000  1
  O  O36  1  0.00085300  0.93673700  0.05349000  1
  O  O37  1  0.56491700  0.50017200  0.88285200  1
  O  O38  1  0.43508300  0.50017200  0.11714800  1
  O  O39  1  0.06491700  0.00017200  0.88285200  1
  O  O40  1  0.93508300  0.00017200  0.11714800  1
  O  O41  1  0.56419800  0.49878700  0.99183100  1
  O  O42  1  0.43580200  0.49878700  0.00816900  1
  O  O43  1  0.06419800  0.99878700  0.99183100  1
  O  O44  1  0.93580200  0.99878700  0.00816900  1
  O  O45  1  0.49789900  0.56541800  0.94799700  1
  O  O46  1  0.50210100  0.56541800  0.05200300  1
  O  O47  1  0.99789900  0.06541800  0.94799700  1
  O  O48  1  0.00210100  0.06541800  0.05200300  1
