# generated using pymatgen
data_Cu3H10C42(BrO)12
_symmetry_space_group_name_H-M   'P 1'
_cell_length_a   40.81647700
_cell_length_b   35.34408900
_cell_length_c   21.25753800
_cell_angle_alpha   90.00000000
_cell_angle_beta   59.97099400
_cell_angle_gamma   90.00000000
_symmetry_Int_Tables_number   1
_chemical_formula_structural   Cu3H10C42(BrO)12
_chemical_formula_sum   'Cu12 H40 C168 Br48 O48'
_cell_volume   26550.26701756
_cell_formula_units_Z   4
loop_
 _symmetry_equiv_pos_site_id
 _symmetry_equiv_pos_as_xyz
  1  'x, y, z'
loop_
 _atom_site_type_symbol
 _atom_site_label
 _atom_site_symmetry_multiplicity
 _atom_site_fract_x
 _atom_site_fract_y
 _atom_site_fract_z
 _atom_site_occupancy
  Cu  Cu1  1  0.99999600  0.46137300  0.00002200  1
  Cu  Cu2  1  0.49999600  0.96137300  0.00002200  1
  Cu  Cu3  1  0.99999400  0.53510900  0.00003000  1
  Cu  Cu4  1  0.49999400  0.03510900  0.00003000  1
  Cu  Cu5  1  0.03769800  0.50079500  0.46363400  1
  Cu  Cu6  1  0.96228400  0.50079500  0.53642400  1
  Cu  Cu7  1  0.53769800  0.00079500  0.46363400  1
  Cu  Cu8  1  0.46228400  0.00079500  0.53642400  1
  Cu  Cu9  1  0.50254600  0.50086900  0.56002200  1
  Cu  Cu10  1  0.49744000  0.50086900  0.43995500  1
  Cu  Cu11  1  0.00254600  0.00086900  0.56002200  1
  Cu  Cu12  1  0.99744000  0.00086900  0.43995500  1
  H  H1  1  0.03014000  0.55711400  0.25708300  1
  H  H2  1  0.96987700  0.55714000  0.74294400  1
  H  H3  1  0.53014000  0.05711400  0.25708300  1
  H  H4  1  0.46987700  0.05714000  0.74294400  1
  H  H5  1  0.93471900  0.49799200  0.34980200  1
  H  H6  1  0.06526400  0.49796300  0.65025100  1
  H  H7  1  0.43471900  0.99799200  0.34980200  1
  H  H8  1  0.56526400  0.99796300  0.65025100  1
  H  H9  1  0.96942600  0.44141100  0.24159000  1
  H  H10  1  0.03052700  0.44140200  0.75849400  1
  H  H11  1  0.46942600  0.94141100  0.24159000  1
  H  H12  1  0.53052700  0.94140200  0.75849400  1
  H  H13  1  0.62003600  0.47370200  0.46172500  1
  H  H14  1  0.37994400  0.47365900  0.53831700  1
  H  H15  1  0.12003600  0.97370200  0.46172500  1
  H  H16  1  0.87994400  0.97365900  0.53831700  1
  H  H17  1  0.68893700  0.47242600  0.39280000  1
  H  H18  1  0.31104100  0.47238900  0.60726600  1
  H  H19  1  0.18893700  0.97242600  0.39280000  1
  H  H20  1  0.81104100  0.97238900  0.60726600  1
  H  H21  1  0.81245400  0.44599500  0.23104500  1
  H  H22  1  0.18753800  0.44602800  0.76894200  1
  H  H23  1  0.31245400  0.94599500  0.23104500  1
  H  H24  1  0.68753800  0.94602800  0.76894200  1
  H  H25  1  0.95880300  0.68929400  0.61243900  1
  H  H26  1  0.04117600  0.68928900  0.38758500  1
  H  H27  1  0.45880300  0.18929400  0.61243900  1
  H  H28  1  0.54117600  0.18928900  0.38758500  1
  H  H29  1  0.44763500  0.68893200  0.50089900  1
  H  H30  1  0.55235600  0.68893000  0.49909500  1
  H  H31  1  0.94763500  0.18893200  0.50089900  1
  H  H32  1  0.05235600  0.18893000  0.49909500  1
  H  H33  1  0.93978100  0.31250200  0.55692200  1
  H  H34  1  0.06020300  0.31250400  0.44312200  1
  H  H35  1  0.43978100  0.81250200  0.55692200  1
  H  H36  1  0.56020300  0.81250400  0.44312200  1
  H  H37  1  0.93936300  0.38150900  0.55735700  1
  H  H38  1  0.06061900  0.38151100  0.44270500  1
  H  H39  1  0.43936300  0.88150900  0.55735700  1
  H  H40  1  0.56061900  0.88151100  0.44270500  1
  C  C1  1  0.92826800  0.49827500  0.06989700  1
  C  C2  1  0.07172100  0.49827900  0.93015500  1
  C  C3  1  0.42826800  0.99827500  0.06989700  1
  C  C4  1  0.57172100  0.99827900  0.93015500  1
  C  C5  1  0.00035800  0.49827500  0.11845900  1
  C  C6  1  0.99963000  0.49828200  0.88159300  1
  C  C7  1  0.50035800  0.99827500  0.11845900  1
  C  C8  1  0.49963000  0.99828200  0.88159300  1
  C  C9  1  0.98142200  0.52858600  0.24568100  1
  C  C10  1  0.01857900  0.52858400  0.75435700  1
  C  C11  1  0.48142200  0.02858600  0.24568100  1
  C  C12  1  0.51857900  0.02858400  0.75435700  1
  C  C13  1  0.01643600  0.53083500  0.25328900  1
  C  C14  1  0.98356600  0.53085300  0.74675100  1
  C  C15  1  0.51643600  0.03083500  0.25328900  1
  C  C16  1  0.48356600  0.03085300  0.74675100  1
  C  C17  1  0.99946000  0.50011700  0.31033600  1
  C  C18  1  0.00052300  0.50012500  0.68972200  1
  C  C19  1  0.49946000  0.00011700  0.31033600  1
  C  C20  1  0.50052300  0.00012500  0.68972200  1
  C  C21  1  0.96426000  0.49827900  0.30383900  1
  C  C22  1  0.03572300  0.49826700  0.69621600  1
  C  C23  1  0.46426000  0.99827900  0.30383900  1
  C  C24  1  0.53572300  0.99826700  0.69621600  1
  C  C25  1  0.98300200  0.46775300  0.24567900  1
  C  C26  1  0.01696500  0.46775100  0.75439300  1
  C  C27  1  0.48300200  0.96775300  0.24567900  1
  C  C28  1  0.51696500  0.96775100  0.75439300  1
  C  C29  1  0.01794600  0.46988700  0.25343000  1
  C  C30  1  0.98202100  0.46990500  0.74664600  1
  C  C31  1  0.51794600  0.96988700  0.25343000  1
  C  C32  1  0.48202100  0.96990500  0.74664600  1
  C  C33  1  0.03473800  0.50022500  0.19584000  1
  C  C34  1  0.96524700  0.50025400  0.80421800  1
  C  C35  1  0.53473800  0.00022500  0.19584000  1
  C  C36  1  0.46524700  0.00025400  0.80421800  1
  C  C37  1  0.99995900  0.49845500  0.18854000  1
  C  C38  1  0.00002700  0.49846400  0.81151500  1
  C  C39  1  0.49995900  0.99845500  0.18854000  1
  C  C40  1  0.50002700  0.99846400  0.81151500  1
  C  C41  1  0.67289400  0.51508500  0.26946200  1
  C  C42  1  0.32710000  0.51514700  0.73049900  1
  C  C43  1  0.17289400  0.01508500  0.26946200  1
  C  C44  1  0.82710000  0.01514700  0.73049900  1
  C  C45  1  0.63385700  0.51632200  0.30794500  1
  C  C46  1  0.36613800  0.51637900  0.69200000  1
  C  C47  1  0.13385700  0.01632200  0.30794500  1
  C  C48  1  0.86613800  0.01637900  0.69200000  1
  C  C49  1  0.61421400  0.50119800  0.37775700  1
  C  C50  1  0.38577300  0.50121700  0.62222200  1
  C  C51  1  0.11421400  0.00119800  0.37775700  1
  C  C52  1  0.88577300  0.00121700  0.62222200  1
  C  C53  1  0.63447500  0.48568800  0.40772800  1
  C  C54  1  0.36550800  0.48567500  0.59229000  1
  C  C55  1  0.13447500  0.98568800  0.40772800  1
  C  C56  1  0.86550800  0.98567500  0.59229000  1
  C  C57  1  0.67346000  0.48468300  0.36883900  1
  C  C58  1  0.32652300  0.48467300  0.63119300  1
  C  C59  1  0.17346000  0.98468300  0.36883900  1
  C  C60  1  0.82652300  0.98467300  0.63119300  1
  C  C61  1  0.69272000  0.49931100  0.29963800  1
  C  C62  1  0.30726900  0.49933800  0.70036600  1
  C  C63  1  0.19272000  0.99931100  0.29963800  1
  C  C64  1  0.80726900  0.99933800  0.70036600  1
  C  C65  1  0.73337600  0.49886700  0.25972600  1
  C  C66  1  0.26661300  0.49889300  0.74029200  1
  C  C67  1  0.23337600  0.99886700  0.25972600  1
  C  C68  1  0.76661300  0.99889300  0.74029200  1
  C  C69  1  0.76751100  0.49868700  0.22639800  1
  C  C70  1  0.23247700  0.49871000  0.77363200  1
  C  C71  1  0.26751100  0.99868700  0.22639800  1
  C  C72  1  0.73247700  0.99871000  0.77363200  1
  C  C73  1  0.82768500  0.52824900  0.14135000  1
  C  C74  1  0.17230100  0.52825500  0.85872400  1
  C  C75  1  0.32768500  0.02824900  0.14135000  1
  C  C76  1  0.67230100  0.02825500  0.85872400  1
  C  C77  1  0.86670500  0.52836000  0.10332800  1
  C  C78  1  0.13328100  0.52836100  0.89675200  1
  C  C79  1  0.36670500  0.02836000  0.10332800  1
  C  C80  1  0.63328100  0.02836100  0.89675200  1
  C  C81  1  0.88667300  0.49840200  0.11038900  1
  C  C82  1  0.11331500  0.49841000  0.88966300  1
  C  C83  1  0.38667300  0.99840200  0.11038900  1
  C  C84  1  0.61331500  0.99841000  0.88966300  1
  C  C85  1  0.86680300  0.46873600  0.15676300  1
  C  C86  1  0.13318800  0.46875500  0.84325700  1
  C  C87  1  0.36680200  0.96873600  0.15676300  1
  C  C88  1  0.63318800  0.96875500  0.84325700  1
  C  C89  1  0.82775900  0.46898800  0.19451000  1
  C  C90  1  0.17223100  0.46901200  0.80550400  1
  C  C91  1  0.32775900  0.96898800  0.19451000  1
  C  C92  1  0.67223100  0.96901200  0.80550400  1
  C  C93  1  0.80817000  0.49859200  0.18673700  1
  C  C94  1  0.19181800  0.49861000  0.81330300  1
  C  C95  1  0.30817000  0.99859200  0.18673700  1
  C  C96  1  0.69181800  0.99861000  0.81330300  1
  C  C97  1  0.99999200  0.57353800  0.50002400  1
  C  C98  1  0.49999200  0.07353800  0.50002400  1
  C  C99  1  0.99953400  0.50042200  0.37994600  1
  C  C100  1  0.00044800  0.50042800  0.62011200  1
  C  C101  1  0.49953400  0.00042200  0.37994600  1
  C  C102  1  0.50044800  0.00042800  0.62011200  1
  C  C103  1  0.99999100  0.42804600  0.50003300  1
  C  C104  1  0.49999100  0.92804600  0.50003300  1
  C  C105  1  0.49999700  0.57354800  0.49998400  1
  C  C106  1  0.99999700  0.07354800  0.49998400  1
  C  C107  1  0.57262500  0.50166900  0.42158300  1
  C  C108  1  0.42736100  0.50168100  0.57839300  1
  C  C109  1  0.07262500  0.00166900  0.42158300  1
  C  C110  1  0.92736100  0.00168100  0.57839300  1
  C  C111  1  0.49998800  0.42820300  0.49999300  1
  C  C112  1  0.99998800  0.92820300  0.49999300  1
  C  C113  1  0.47184600  0.32813500  0.55801100  1
  C  C114  1  0.52812700  0.32813300  0.44198400  1
  C  C115  1  0.97184600  0.82813500  0.55801100  1
  C  C116  1  0.02812700  0.82813300  0.44198400  1
  C  C117  1  0.47178300  0.36713700  0.55824800  1
  C  C118  1  0.52819000  0.36713600  0.44174300  1
  C  C119  1  0.97178300  0.86713700  0.55824800  1
  C  C120  1  0.02819000  0.86713600  0.44174300  1
  C  C121  1  0.49998700  0.38682700  0.49999400  1
  C  C122  1  0.99998700  0.88682700  0.49999400  1
  C  C123  1  0.49998700  0.30863600  0.49999900  1
  C  C124  1  0.99998700  0.80863600  0.49999900  1
  C  C125  1  0.49998700  0.26804800  0.50000300  1
  C  C126  1  0.99998700  0.76804800  0.50000300  1
  C  C127  1  0.99998800  0.73396200  0.50000700  1
  C  C128  1  0.49998800  0.23396200  0.50000700  1
  C  C129  1  0.97678000  0.67392600  0.56292200  1
  C  C130  1  0.02320000  0.67392300  0.43710600  1
  C  C131  1  0.47678000  0.17392600  0.56292200  1
  C  C132  1  0.52320000  0.17392300  0.43710600  1
  C  C133  1  0.97660500  0.63492300  0.56326700  1
  C  C134  1  0.02337700  0.63492100  0.43676900  1
  C  C135  1  0.47660500  0.13492300  0.56326700  1
  C  C136  1  0.52337700  0.13492100  0.43676900  1
  C  C137  1  0.99999200  0.61506200  0.50002000  1
  C  C138  1  0.49999200  0.11506200  0.50002000  1
  C  C139  1  0.99998900  0.69339900  0.50001100  1
  C  C140  1  0.49998900  0.19339900  0.50001100  1
  C  C141  1  0.47073100  0.67359500  0.50018100  1
  C  C142  1  0.52926200  0.67359400  0.49980700  1
  C  C143  1  0.97073100  0.17359500  0.50018100  1
  C  C144  1  0.02926200  0.17359400  0.49980700  1
  C  C145  1  0.47067300  0.63458900  0.50002100  1
  C  C146  1  0.52932100  0.63458800  0.49995500  1
  C  C147  1  0.97067300  0.13458900  0.50002100  1
  C  C148  1  0.02932100  0.13458800  0.49995500  1
  C  C149  1  0.49999800  0.61491300  0.49998500  1
  C  C150  1  0.99999800  0.11491300  0.49998500  1
  C  C151  1  0.49999600  0.69308100  0.49999700  1
  C  C152  1  0.99999600  0.19308100  0.49999700  1
  C  C153  1  0.49999400  0.73366100  0.50000600  1
  C  C154  1  0.99999400  0.23366100  0.50000600  1
  C  C155  1  0.99999300  0.26774300  0.50001300  1
  C  C156  1  0.49999300  0.76774300  0.50001300  1
  C  C157  1  0.96625300  0.32782100  0.53189800  1
  C  C158  1  0.03373000  0.32782200  0.46815000  1
  C  C159  1  0.46625300  0.82782100  0.53189800  1
  C  C160  1  0.53373000  0.82782200  0.46815000  1
  C  C161  1  0.96617800  0.36682700  0.53196000  1
  C  C162  1  0.03380500  0.36682800  0.46809800  1
  C  C163  1  0.46617800  0.86682700  0.53196000  1
  C  C164  1  0.53380500  0.86682800  0.46809800  1
  C  C165  1  0.99999100  0.38656500  0.50003200  1
  C  C166  1  0.49999100  0.88656500  0.50003200  1
  C  C167  1  0.99999200  0.30832500  0.50002100  1
  C  C168  1  0.49999200  0.80832500  0.50002100  1
  Br  Br1  1  0.80082000  0.56943900  0.13041000  1
  Br  Br2  1  0.19916100  0.56943600  0.86970400  1
  Br  Br3  1  0.30082000  0.06943900  0.13041000  1
  Br  Br4  1  0.69916100  0.06943600  0.86970400  1
  Br  Br5  1  0.89148900  0.56966200  0.03864700  1
  Br  Br6  1  0.10849100  0.56964400  0.96148000  1
  Br  Br7  1  0.39148900  0.06966200  0.03864700  1
  Br  Br8  1  0.60849100  0.06964400  0.96148000  1
  Br  Br9  1  0.89195900  0.42831400  0.17518100  1
  Br  Br10  1  0.10803200  0.42834500  0.82480700  1
  Br  Br11  1  0.39195900  0.92831400  0.17518100  1
  Br  Br12  1  0.60803200  0.92834500  0.82480700  1
  Br  Br13  1  0.43261800  0.30119000  0.63789800  1
  Br  Br14  1  0.56735500  0.30118600  0.36210100  1
  Br  Br15  1  0.93261800  0.80119000  0.63789800  1
  Br  Br16  1  0.06735500  0.80118600  0.36210100  1
  Br  Br17  1  0.43100600  0.39303200  0.63768500  1
  Br  Br18  1  0.56896800  0.39302800  0.36230200  1
  Br  Br19  1  0.93100600  0.89303200  0.63768500  1
  Br  Br20  1  0.06896800  0.89302800  0.36230200  1
  Br  Br21  1  0.94550600  0.60980800  0.65360900  1
  Br  Br22  1  0.05447800  0.60980200  0.34643100  1
  Br  Br23  1  0.44550600  0.10980800  0.65360900  1
  Br  Br24  1  0.55447800  0.10980200  0.34643100  1
  Br  Br25  1  0.95394900  0.57156400  0.23922700  1
  Br  Br26  1  0.04607800  0.57154500  0.76078900  1
  Br  Br27  1  0.45394900  0.07156400  0.23922700  1
  Br  Br28  1  0.54607800  0.07154500  0.76078900  1
  Br  Br29  1  0.42856000  0.60859800  0.50446000  1
  Br  Br30  1  0.57143500  0.60859600  0.49551200  1
  Br  Br31  1  0.92856000  0.10859800  0.50446000  1
  Br  Br32  1  0.07143500  0.10859600  0.49551200  1
  Br  Br33  1  0.04501300  0.42689200  0.26113500  1
  Br  Br34  1  0.95492600  0.42692600  0.73897300  1
  Br  Br35  1  0.54501300  0.92689200  0.26113500  1
  Br  Br36  1  0.45492600  0.92692600  0.73897200  1
  Br  Br37  1  0.08620700  0.50012500  0.11572500  1
  Br  Br38  1  0.91377900  0.50018600  0.88433600  1
  Br  Br39  1  0.58620700  0.00012500  0.11572500  1
  Br  Br40  1  0.41377900  0.00018600  0.88433600  1
  Br  Br41  1  0.69944300  0.53621900  0.17428500  1
  Br  Br42  1  0.30056200  0.53633400  0.82563200  1
  Br  Br43  1  0.19944300  0.03621900  0.17428500  1
  Br  Br44  1  0.80056200  0.03633400  0.82563200  1
  Br  Br45  1  0.60958100  0.54217500  0.26329100  1
  Br  Br46  1  0.39042800  0.54228400  0.73657300  1
  Br  Br47  1  0.10958100  0.04217500  0.26329100  1
  Br  Br48  1  0.89042800  0.04228300  0.73657300  1
  O  O1  1  0.94602500  0.46720300  0.03441100  1
  O  O2  1  0.05396600  0.46720500  0.96563400  1
  O  O3  1  0.44602500  0.96720300  0.03441100  1
  O  O4  1  0.55396600  0.96720500  0.96563400  1
  O  O5  1  0.94620700  0.52930000  0.07057900  1
  O  O6  1  0.05378100  0.52930400  0.92947900  1
  O  O7  1  0.44620700  0.02930000  0.07057900  1
  O  O8  1  0.55378100  0.02930400  0.92947900  1
  O  O9  1  0.98945600  0.46713700  0.09982400  1
  O  O10  1  0.01053500  0.46714200  0.90022100  1
  O  O11  1  0.48945600  0.96713700  0.09982400  1
  O  O12  1  0.51053500  0.96714200  0.90022100  1
  O  O13  1  0.01134100  0.52932700  0.07853300  1
  O  O14  1  0.98864700  0.52933200  0.92152500  1
  O  O15  1  0.51134100  0.02932700  0.07853300  1
  O  O16  1  0.48864700  0.02933200  0.92152500  1
  O  O17  1  0.03260000  0.55578700  0.47158400  1
  O  O18  1  0.96738300  0.55578700  0.52846600  1
  O  O19  1  0.53260000  0.05578700  0.47158400  1
  O  O20  1  0.46738300  0.05578700  0.52846600  1
  O  O21  1  0.03218100  0.50245800  0.37758000  1
  O  O22  1  0.96780100  0.50246300  0.62247800  1
  O  O23  1  0.53218100  0.00245800  0.37758000  1
  O  O24  1  0.46780100  0.00246300  0.62247800  1
  O  O25  1  0.96694000  0.50192800  0.44045400  1
  O  O26  1  0.03304300  0.50193200  0.55960300  1
  O  O27  1  0.46694000  0.00192800  0.44045400  1
  O  O28  1  0.53304300  0.00193200  0.55960300  1
  O  O29  1  0.03255600  0.44579600  0.47076200  1
  O  O30  1  0.96742600  0.44579600  0.52930300  1
  O  O31  1  0.53255600  0.94579600  0.47076200  1
  O  O32  1  0.46742600  0.94579600  0.52930300  1
  O  O33  1  0.50075900  0.55586600  0.55345000  1
  O  O34  1  0.49923500  0.55586600  0.44652000  1
  O  O35  1  0.00075900  0.05586600  0.55345000  1
  O  O36  1  0.99923500  0.05586600  0.44652000  1
  O  O37  1  0.55704100  0.49940700  0.49248400  1
  O  O38  1  0.44294500  0.49941500  0.50749200  1
  O  O39  1  0.05704100  0.99940700  0.49248400  1
  O  O40  1  0.94294500  0.99941500  0.50749200  1
  O  O41  1  0.55267700  0.49957500  0.38882900  1
  O  O42  1  0.44730900  0.49958200  0.61114900  1
  O  O43  1  0.05267700  0.99957500  0.38882900  1
  O  O44  1  0.94730900  0.99958200  0.61114900  1
  O  O45  1  0.50053500  0.44587300  0.55376100  1
  O  O46  1  0.49944400  0.44587300  0.44622300  1
  O  O47  1  0.00053500  0.94587300  0.55376100  1
  O  O48  1  0.99944400  0.94587300  0.44622300  1
