# generated using pymatgen
data_Cu6H47C84(ClO8)3
_symmetry_space_group_name_H-M   'P 1'
_cell_length_a   19.00740300
_cell_length_b   18.74654300
_cell_length_c   18.64221900
_cell_angle_alpha   109.29659900
_cell_angle_beta   109.86895100
_cell_angle_gamma   109.75197900
_symmetry_Int_Tables_number   1
_chemical_formula_structural   Cu6H47C84(ClO8)3
_chemical_formula_sum   'Cu6 H47 C84 Cl3 O24'
_cell_volume   5081.36447008
_cell_formula_units_Z   1
loop_
 _symmetry_equiv_pos_site_id
 _symmetry_equiv_pos_as_xyz
  1  'x, y, z'
loop_
 _atom_site_type_symbol
 _atom_site_label
 _atom_site_symmetry_multiplicity
 _atom_site_fract_x
 _atom_site_fract_y
 _atom_site_fract_z
 _atom_site_occupancy
  Cu  Cu1  1  0.51412700  0.44047200  0.44974500  1
  Cu  Cu2  1  0.52023700  0.56606800  0.57657000  1
  Cu  Cu3  1  0.96581800  0.44425800  0.01308600  1
  Cu  Cu4  1  0.07885000  0.56599900  0.00812000  1
  Cu  Cu5  1  0.07828400  0.00265200  0.57616400  1
  Cu  Cu6  1  0.95758000  0.99788200  0.44583700  1
  H  H1  1  0.53949100  0.20561500  0.58315700  1
  H  H2  1  0.75163900  0.65951300  0.71249400  1
  H  H3  1  0.87911700  0.79486600  0.83262200  1
  H  H4  1  0.98291200  0.79797000  0.95727900  1
  H  H5  1  0.96044900  0.66515300  0.95910100  1
  H  H6  1  0.79390900  0.33737400  0.79769200  1
  H  H7  1  0.65955800  0.20393900  0.68618800  1
  H  H8  1  0.55547200  0.34030500  0.58943400  1
  H  H9  1  0.39226000  0.38486100  0.65643900  1
  H  H10  1  0.28203000  0.26880500  0.65672600  1
  H  H11  1  0.14604900  0.06591900  0.31856100  1
  H  H12  1  0.08451900  0.12654200  0.31474400  1
  H  H13  1  0.25782700  0.17757900  0.31790100  1
  H  H14  1  0.19665400  0.23859700  0.31509100  1
  H  H15  1  0.37967700  0.64589000  0.40639900  1
  H  H16  1  0.27112100  0.64737100  0.28904900  1
  H  H17  1  0.11114200  0.30436600  0.10381300  1
  H  H18  1  0.18621400  0.33566600  0.06054900  1
  H  H19  1  0.22163200  0.30419300  0.21787400  1
  H  H20  1  0.29661900  0.33501300  0.17442400  1
  H  H21  1  0.79743500  0.74701400  0.64910500  1
  H  H22  1  0.91013400  0.85730300  0.64692700  1
  H  H23  1  0.67882400  0.77259700  0.33453500  1
  H  H24  1  0.72098100  0.69748900  0.30129100  1
  H  H25  1  0.56908200  0.66156500  0.33746700  1
  H  H26  1  0.05383200  0.27886100  0.64765000  1
  H  H27  1  0.01326500  0.09878200  0.80720800  1
  H  H28  1  0.89978000  0.17404400  0.84265800  1
  H  H29  1  0.01803700  0.21741400  0.91853900  1
  H  H30  1  0.00348300  0.75499300  0.12754200  1
  H  H31  1  0.00098200  0.86570100  0.24046300  1
  H  H32  1  0.12118300  0.76368500  0.46191700  1
  H  H33  1  0.00028400  0.69349100  0.41087100  1
  H  H34  1  0.11816900  0.65047300  0.34698100  1
  H  H35  1  0.99744200  0.57999600  0.29665900  1
  H  H36  1  0.73291200  0.58497500  0.34151100  1
  H  H37  1  0.53621500  0.32177300  0.14418400  1
  H  H38  1  0.42423800  0.36245900  0.13177500  1
  H  H39  1  0.46570600  0.51421800  0.22369700  1
  H  H40  1  0.93982100  0.40965200  0.73177500  1
  H  H41  1  0.12154800  0.62826900  0.74312000  1
  H  H42  1  0.22546400  0.57638100  0.76977000  1
  H  H43  1  0.18679500  0.44119200  0.77714200  1
  H  H44  1  0.84064600  0.05414500  0.60624900  1
  H  H45  1  0.64052500  0.83607300  0.57530500  1
  H  H46  1  0.73375800  0.87238300  0.72614400  1
  H  H47  1  0.88147100  0.99980100  0.81802100  1
  C  C1  1  0.39795600  0.38665000  0.51369400  1
  C  C2  1  0.63359700  0.50021400  0.63133400  1
  C  C3  1  0.63622600  0.61978200  0.51257300  1
  C  C4  1  0.40178500  0.50714900  0.39513100  1
  C  C5  1  0.79440900  0.65662800  0.76544600  1
  C  C6  1  0.86783100  0.73469600  0.83344200  1
  C  C7  1  0.92601800  0.73637400  0.90282600  1
  C  C8  1  0.91277700  0.65951700  0.90248700  1
  C  C9  1  0.84035800  0.57940900  0.83253300  1
  C  C10  1  0.77818500  0.57851300  0.76568200  1
  C  C11  1  0.82983500  0.50095600  0.82927800  1
  C  C12  1  0.75434300  0.42203800  0.76129800  1
  C  C13  1  0.68883900  0.42206900  0.69859800  1
  C  C14  1  0.70150300  0.50002000  0.69927700  1
  C  C15  1  0.74367400  0.34238700  0.75439100  1
  C  C16  1  0.66723100  0.26521700  0.69025000  1
  C  C17  1  0.60024500  0.26609800  0.63240500  1
  C  C18  1  0.61069900  0.34370200  0.63617600  1
  C  C19  1  0.26199000  0.24573700  0.43955800  1
  C  C20  1  0.33202200  0.31992900  0.51547800  1
  C  C21  1  0.33793700  0.32807000  0.59441400  1
  C  C22  1  0.27573800  0.26189300  0.59460500  1
  C  C23  1  0.20468600  0.18901700  0.51572100  1
  C  C24  1  0.20060800  0.18512800  0.43962900  1
  C  C25  1  0.14777200  0.12943400  0.34215500  1
  C  C26  1  0.21970800  0.20114500  0.34205400  1
  C  C27  1  0.27858700  0.43819600  0.24550300  1
  C  C28  1  0.33759500  0.51041600  0.32779800  1
  C  C29  1  0.33409400  0.58653100  0.34303000  1
  C  C30  1  0.27307900  0.58766100  0.27613700  1
  C  C31  1  0.21278300  0.51177100  0.19478600  1
  C  C32  1  0.21819300  0.43826700  0.18352200  1
  C  C33  1  0.17767600  0.34451300  0.11825000  1
  C  C34  1  0.24862100  0.34428600  0.19138700  1
  C  C35  1  0.69129600  0.69185300  0.43811200  1
  C  C36  1  0.70387500  0.68636200  0.51251300  1
  C  C37  1  0.78395800  0.74788300  0.58838500  1
  C  C38  1  0.84814700  0.81039600  0.58683400  1
  C  C39  1  0.83193900  0.81451700  0.51020200  1
  C  C40  1  0.75114500  0.75355900  0.43724900  1
  C  C41  1  0.69587600  0.72373000  0.34287000  1
  C  C42  1  0.62519400  0.65229100  0.34464100  1
  C  C43  1  0.01771300  0.38912000  0.88808400  1
  C  C44  1  0.90009900  0.50172800  0.89563300  1
  C  C45  1  0.02574100  0.62141900  0.13155000  1
  C  C46  1  0.14401700  0.50880800  0.12587000  1
  C  C47  1  0.01418500  0.11904800  0.62526000  1
  C  C48  1  0.13713000  0.12021700  0.51378900  1
  C  C49  1  0.02295800  0.88280800  0.39660100  1
  C  C50  1  0.89879400  0.88083600  0.50886600  1
  C  C51  1  0.98901800  0.23965100  0.80802100  1
  C  C52  1  0.01419300  0.32130000  0.81707700  1
  C  C53  1  0.03757300  0.33515800  0.75739100  1
  C  C54  1  0.03587200  0.26797100  0.69383900  1
  C  C55  1  0.01248600  0.18757700  0.68954100  1
  C  C56  1  0.98805900  0.17622600  0.74795600  1
  C  C57  1  0.96237500  0.11408400  0.77959500  1
  C  C58  1  0.96462300  0.18926900  0.85083300  1
  C  C59  1  0.03838900  0.69139300  0.27754500  1
  C  C60  1  0.02603800  0.68868900  0.19956500  1
  C  C61  1  0.01404900  0.75387600  0.18781100  1
  C  C62  1  0.01217700  0.81661000  0.25187700  1
  C  C63  1  0.02639400  0.81766300  0.33042200  1
  C  C64  1  0.04077100  0.75374200  0.34043700  1
  C  C65  1  0.05620800  0.71886400  0.40136100  1
  C  C66  1  0.05418500  0.64602200  0.32776200  1
  C  C67  1  0.60199400  0.56049100  0.28831000  1
  C  C68  1  0.66481300  0.53712500  0.29558200  1
  C  C69  1  0.64102600  0.45154300  0.24366400  1
  C  C70  1  0.55471200  0.38884700  0.18473400  1
  C  C71  1  0.49199300  0.41167000  0.17775100  1
  C  C72  1  0.51553300  0.49718400  0.22944400  1
  C  C73  1  0.06170900  0.41793200  0.75720100  1
  C  C74  1  0.00322900  0.44691500  0.74169600  1
  C  C75  1  0.02474900  0.52234800  0.73650700  1
  C  C76  1  0.10477400  0.56918100  0.74722700  1
  C  C77  1  0.16296500  0.54005100  0.76206600  1
  C  C78  1  0.14114800  0.46410400  0.76618400  1
  C  C79  1  0.87224700  0.03625000  0.71953700  1
  C  C80  1  0.81936400  0.01548800  0.63439700  1
  C  C81  1  0.73640300  0.94367000  0.58300200  1
  C  C82  1  0.70550300  0.89242200  0.61588800  1
  C  C83  1  0.75774100  0.91275600  0.70034400  1
  C  C84  1  0.84079700  0.98421200  0.75176200  1
  Cl  Cl1  1  0.72072600  0.42245000  0.25284700  1
  Cl  Cl2  1  0.94978000  0.55777500  0.71430500  1
  Cl  Cl3  1  0.66997400  0.91769500  0.47555900  1
  O  O1  1  0.42293900  0.36078900  0.45740900  1
  O  O2  1  0.43048700  0.46939700  0.56957000  1
  O  O3  1  0.60643000  0.45067300  0.54778500  1
  O  O4  1  0.60359000  0.55110800  0.65727400  1
  O  O5  1  0.60096200  0.53726500  0.45400800  1
  O  O6  1  0.61410600  0.64545200  0.57160300  1
  O  O7  1  0.42768000  0.45227800  0.36871000  1
  O  O8  1  0.43102000  0.55912100  0.47859700  1
  O  O9  1  0.95327900  0.36575100  0.90396500  1
  O  O10  1  0.08574900  0.46945200  0.93454800  1
  O  O11  1  0.88345100  0.46918500  0.94491000  1
  O  O12  1  0.97752600  0.53610900  0.90367900  1
  O  O13  1  0.99611200  0.54194500  0.12149400  1
  O  O14  1  0.05395700  0.64332500  0.08210600  1
  O  O15  1  0.06592400  0.43849800  0.08047700  1
  O  O16  1  0.16236400  0.57680900  0.11347100  1
  O  O17  1  0.06399600  0.08899000  0.65406900  1
  O  O18  1  0.96089500  0.08610600  0.54127600  1
  O  O19  1  0.16017500  0.09617900  0.57233800  1
  O  O20  1  0.05619500  0.08569800  0.45367200  1
  O  O21  1  0.07152100  0.91087900  0.48058100  1
  O  O22  1  0.96623700  0.90591000  0.36794900  1
  O  O23  1  0.97990000  0.91380100  0.56751200  1
  O  O24  1  0.87543400  0.90545300  0.45069100  1
