# generated using pymatgen
data_CuH7C9(NO3)2
_symmetry_space_group_name_H-M   'P 1'
_cell_length_a   15.84598600
_cell_length_b   8.78872400
_cell_length_c   7.30741300
_cell_angle_alpha   104.20817900
_cell_angle_beta   96.26890000
_cell_angle_gamma   89.99903800
_symmetry_Int_Tables_number   1
_chemical_formula_structural   CuH7C9(NO3)2
_chemical_formula_sum   'Cu2 H14 C18 N4 O12'
_cell_volume   980.26576616
_cell_formula_units_Z   2
loop_
 _symmetry_equiv_pos_site_id
 _symmetry_equiv_pos_as_xyz
  1  'x, y, z'
loop_
 _atom_site_type_symbol
 _atom_site_label
 _atom_site_symmetry_multiplicity
 _atom_site_fract_x
 _atom_site_fract_y
 _atom_site_fract_z
 _atom_site_occupancy
  Cu  Cu1  1  0.50887700  0.51839500  0.69026700  1
  Cu  Cu2  1  0.49245200  0.48014100  0.31268800  1
  H  H1  1  0.93080500  0.31421900  0.64947000  1
  H  H2  1  0.06756000  0.28237200  0.58461200  1
  H  H3  1  0.04883300  0.49279200  0.20332400  1
  H  H4  1  0.06294100  0.30177300  0.25353600  1
  H  H5  1  0.90778300  0.44873200  0.19550100  1
  H  H6  1  0.07327100  0.71588100  0.71161300  1
  H  H7  1  0.07748100  0.73829600  0.47285300  1
  H  H8  1  0.09245200  0.45419800  0.77960900  1
  H  H9  1  0.95350600  0.50802400  0.79906400  1
  H  H10  1  0.93454000  0.70653800  0.39836800  1
  H  H11  1  0.49062200  0.95399900  0.28384400  1
  H  H12  1  0.50785700  0.04375400  0.71788200  1
  H  H13  1  0.43534400  0.38422200  0.93045000  1
  H  H14  1  0.56855900  0.60832800  0.07146500  1
  C  C1  1  0.49784700  0.20003100  0.45433800  1
  C  C2  1  0.33878400  0.49863600  0.49728000  1
  C  C3  1  0.50223200  0.79788400  0.54820900  1
  C  C4  1  0.66285400  0.50060600  0.50543700  1
  C  C5  1  0.05525400  0.40878100  0.63886800  1
  C  C6  1  0.03718900  0.42022100  0.30295000  1
  C  C7  1  0.94266100  0.40422800  0.31090200  1
  C  C8  1  0.75317600  0.50077100  0.50569600  1
  C  C9  1  0.07990100  0.49848800  0.49950100  1
  C  C10  1  0.96160400  0.42949900  0.65880100  1
  C  C11  1  0.92092500  0.50011800  0.50157600  1
  C  C12  1  0.95506800  0.66642500  0.52842300  1
  C  C13  1  0.05104800  0.66618900  0.55912500  1
  C  C14  1  0.82895600  0.50058300  0.50359300  1
  C  C15  1  0.17214800  0.49828300  0.49751500  1
  C  C16  1  0.24816900  0.49840800  0.49635600  1
  C  C17  1  0.49608800  0.02970600  0.42641800  1
  C  C18  1  0.50241500  0.96788400  0.57551300  1
  N  N1  1  0.47963700  0.45224200  0.03093300  1
  N  N2  1  0.52217900  0.54581500  0.97204500  1
  N  N3  1  0.91907800  0.24034800  0.28555100  1
  N  N4  1  0.92281100  0.77174900  0.68989400  1
  O  O1  1  0.50388600  0.28878300  0.62811000  1
  O  O2  1  0.48903400  0.25652600  0.30382400  1
  O  O3  1  0.38528400  0.50887900  0.65954800  1
  O  O4  1  0.37069500  0.48809200  0.33663100  1
  O  O5  1  0.50656300  0.74175300  0.69892800  1
  O  O6  1  0.49260200  0.70943400  0.37455800  1
  O  O7  1  0.63085700  0.51118600  0.66598500  1
  O  O8  1  0.61623900  0.48885300  0.34342100  1
  O  O9  1  0.86280100  0.17268000  0.14626000  1
  O  O10  1  0.96082500  0.15697400  0.38745400  1
  O  O11  1  0.94735200  0.76016800  0.86143500  1
  O  O12  1  0.87419900  0.88544900  0.66376200  1
