# generated using pymatgen
data_CuH3(C5O2)2
_symmetry_space_group_name_H-M   'P 1'
_cell_length_a   11.87675200
_cell_length_b   13.44260500
_cell_length_c   7.37984700
_cell_angle_alpha   106.09511200
_cell_angle_beta   90.11167900
_cell_angle_gamma   87.97777900
_symmetry_Int_Tables_number   1
_chemical_formula_structural   CuH3(C5O2)2
_chemical_formula_sum   'Cu2 H6 C20 O8'
_cell_volume   1131.29987431
_cell_formula_units_Z   2
loop_
 _symmetry_equiv_pos_site_id
 _symmetry_equiv_pos_as_xyz
  1  'x, y, z'
loop_
 _atom_site_type_symbol
 _atom_site_label
 _atom_site_symmetry_multiplicity
 _atom_site_fract_x
 _atom_site_fract_y
 _atom_site_fract_z
 _atom_site_occupancy
  Cu  Cu1  1  0.48471000  0.00126100  0.67974400  1
  Cu  Cu2  1  0.48433400  0.00039600  0.32256900  1
  H  H1  1  0.55808900  0.60106600  0.80188800  1
  H  H2  1  0.48951900  0.32273600  0.37630800  1
  H  H3  1  0.48947600  0.32290300  0.94641800  1
  H  H4  1  0.49529900  0.67835900  0.05576200  1
  H  H5  1  0.55471400  0.39414600  0.19759200  1
  H  H6  1  0.49539100  0.67852900  0.62576100  1
  C  C1  1  0.48401300  0.20142200  0.60071000  1
  C  C2  1  0.70287600  0.99829700  0.49991400  1
  C  C3  1  0.49134500  0.80013100  0.40155600  1
  C  C4  1  0.26616800  0.00336100  0.50239800  1
  C  C5  1  0.52141900  0.47056900  0.89951800  1
  C  C6  1  0.52136300  0.47053800  0.57242200  1
  C  C7  1  0.49476400  0.31344200  0.65671800  1
  C  C8  1  0.53474500  0.52158700  0.76175700  1
  C  C9  1  0.50164900  0.36562500  0.52119800  1
  C  C10  1  0.50165200  0.36572700  0.84484000  1
  C  C11  1  0.50165700  0.68738300  0.34522400  1
  C  C12  1  0.52275900  0.52796900  0.10142000  1
  C  C13  1  0.52271100  0.52800600  0.42851500  1
  C  C14  1  0.50671000  0.63452800  0.15686100  1
  C  C15  1  0.53437000  0.47575800  0.23865600  1
  C  C16  1  0.50674200  0.63463000  0.48048200  1
  C  C17  1  0.14535300  0.00274200  0.50208500  1
  C  C18  1  0.04393700  0.00161600  0.50153600  1
  C  C19  1  0.92510800  0.00004000  0.50077400  1
  C  C20  1  0.82369100  0.99891400  0.50022600  1
  O  O1  1  0.48376100  0.15175400  0.73077900  1
  O  O2  1  0.48350000  0.15104400  0.42084700  1
  O  O3  1  0.64857300  0.99915600  0.65512600  1
  O  O4  1  0.64824200  0.99839100  0.34516600  1
  O  O5  1  0.48972300  0.85054800  0.58144100  1
  O  O6  1  0.48938000  0.84983300  0.27149100  1
  O  O7  1  0.32081000  0.00323600  0.65709200  1
  O  O8  1  0.32047800  0.00253100  0.34724000  1
