# generated using pymatgen
data_Cu2H31C51N3O8
_symmetry_space_group_name_H-M   'P 1'
_cell_length_a   19.42375100
_cell_length_b   15.04713100
_cell_length_c   17.99980700
_cell_angle_alpha   89.99817500
_cell_angle_beta   90.00181100
_cell_angle_gamma   89.99623700
_symmetry_Int_Tables_number   1
_chemical_formula_structural   Cu2H31C51N3O8
_chemical_formula_sum   'Cu2 H31 C51 N3 O8'
_cell_volume   5260.83463946
_cell_formula_units_Z   1
loop_
 _symmetry_equiv_pos_site_id
 _symmetry_equiv_pos_as_xyz
  1  'x, y, z'
loop_
 _atom_site_type_symbol
 _atom_site_label
 _atom_site_symmetry_multiplicity
 _atom_site_fract_x
 _atom_site_fract_y
 _atom_site_fract_z
 _atom_site_occupancy
  Cu  Cu1  1  0.00000600  0.00007900  0.07513200  1
  Cu  Cu2  1  0.99999500  0.00004900  0.92731500  1
  H  H1  1  0.78153800  0.99981300  0.12006100  1
  H  H2  1  0.65685400  0.99865200  0.12005800  1
  H  H3  1  0.65684600  0.00171000  0.88244800  1
  H  H4  1  0.78152700  0.00055800  0.88244000  1
  H  H5  1  0.56234800  0.90881700  0.91022600  1
  H  H6  1  0.43775000  0.90875700  0.91018800  1
  H  H7  1  0.43765100  0.09131300  0.09222400  1
  H  H8  1  0.56224800  0.09137600  0.09226000  1
  H  H9  1  0.34315200  0.99841600  0.11999500  1
  H  H10  1  0.21847200  0.99956900  0.12000200  1
  H  H11  1  0.21846300  0.00034500  0.88238100  1
  H  H12  1  0.34314900  0.00150200  0.88238600  1
  H  H13  1  0.99986800  0.27565500  0.88017300  1
  H  H14  1  0.99999500  0.71563200  0.11711000  1
  H  H15  1  0.00001000  0.57808400  0.17928300  1
  H  H16  1  0.99983600  0.43159700  0.87408200  1
  H  H17  1  0.00011900  0.56864200  0.87396800  1
  H  H18  1  0.00003000  0.28487200  0.11724500  1
  H  H19  1  0.00009200  0.72458400  0.88020000  1
  H  H20  1  0.92357200  0.09894800  0.80772900  1
  H  H21  1  0.92159600  0.09977100  0.67249300  1
  H  H22  1  0.07846000  0.90035300  0.67252500  1
  H  H23  1  0.07642500  0.90114900  0.80776700  1
  H  H24  1  0.01375900  0.85909700  0.56837900  1
  H  H25  1  0.01372300  0.85908900  0.43408700  1
  H  H26  1  0.98624300  0.14102500  0.43407300  1
  H  H27  1  0.98629000  0.14103500  0.56836600  1
  H  H28  1  0.92152700  0.09974200  0.32993300  1
  H  H29  1  0.92355000  0.09893700  0.19468600  1
  H  H30  1  0.07645300  0.90121100  0.19471400  1
  H  H31  1  0.07842500  0.90037000  0.32995600  1
  C  C1  1  0.99993700  0.82832100  0.00079200  1
  C  C2  1  0.13375700  0.00008300  0.00119900  1
  C  C3  1  0.00006100  0.17180100  0.00074400  1
  C  C4  1  0.86624300  0.00005000  0.00124400  1
  C  C5  1  0.75468500  0.00019600  0.06748700  1
  C  C6  1  0.68364700  0.00035900  0.06747700  1
  C  C7  1  0.64750100  0.00015000  0.00125200  1
  C  C8  1  0.68364300  0.99998200  0.93502800  1
  C  C9  1  0.75468000  0.00013100  0.93501400  1
  C  C10  1  0.79066300  0.00011900  0.00124900  1
  C  C11  1  0.53554300  0.95020200  0.94983800  1
  C  C12  1  0.46451000  0.95016800  0.94981600  1
  C  C13  1  0.42832700  0.00002900  0.00120400  1
  C  C14  1  0.46445600  0.04992800  0.05261100  1
  C  C15  1  0.53548900  0.04996300  0.05263300  1
  C  C16  1  0.57167200  0.00010400  0.00124400  1
  C  C17  1  0.31635600  0.00015200  0.06741500  1
  C  C18  1  0.24532000  0.00000500  0.06742800  1
  C  C19  1  0.20933800  0.00002200  0.00119300  1
  C  C20  1  0.24531600  0.99995600  0.93495500  1
  C  C21  1  0.31635500  0.99979200  0.93496600  1
  C  C22  1  0.35249800  0.99999000  0.00119200  1
  C  C23  1  0.00001700  0.31759100  0.06380500  1
  C  C24  1  0.00001600  0.26879900  0.99909100  1
  C  C25  1  0.99993300  0.31221100  0.93183000  1
  C  C26  1  0.99991900  0.40338200  0.92887700  1
  C  C27  1  0.99998300  0.45361300  0.99377700  1
  C  C28  1  0.00000500  0.40917500  0.06129000  1
  C  C29  1  0.00005200  0.59681100  0.92878100  1
  C  C30  1  0.00000400  0.54656600  0.99365600  1
  C  C31  1  0.00000200  0.59079400  0.06109800  1
  C  C32  1  0.00000700  0.54358500  0.12661500  1
  C  C33  1  0.00004100  0.68797100  0.93182900  1
  C  C34  1  0.99997700  0.73131200  0.99913700  1
  C  C35  1  0.99999200  0.68248800  0.06385800  1
  C  C36  1  0.95769100  0.05514500  0.77758700  1
  C  C37  1  0.95711500  0.05609500  0.70077800  1
  C  C38  1  0.00003200  0.00006700  0.66118300  1
  C  C39  1  0.04293200  0.94402800  0.70079700  1
  C  C40  1  0.04231900  0.94495800  0.77760800  1
  C  C41  1  0.00866800  0.92177600  0.53963500  1
  C  C42  1  0.00864500  0.92177100  0.46282500  1
  C  C43  1  0.99997900  0.00005600  0.42350300  1
  C  C44  1  0.99133800  0.07834700  0.46281800  1
  C  C45  1  0.99136600  0.07835200  0.53962800  1
  C  C46  1  0.00003100  0.00006600  0.57895000  1
  C  C47  1  0.95706200  0.05607900  0.30165800  1
  C  C48  1  0.95766900  0.05514500  0.22484600  1
  C  C49  1  0.04232500  0.94499700  0.22486200  1
  C  C50  1  0.04289900  0.94403900  0.30167100  1
  C  C51  1  0.99997500  0.00005400  0.34126900  1
  N  N1  1  0.00001500  0.45445000  0.12564300  1
  N  N2  1  0.99999400  0.00004700  0.81500300  1
  N  N3  1  0.00000700  0.00007800  0.18744800  1
  O  O1  1  0.99994100  0.87080000  0.06453400  1
  O  O2  1  0.99990700  0.87183600  0.93769100  1
  O  O3  1  0.10024300  0.00014900  0.06460500  1
  O  O4  1  0.10023200  0.00007500  0.93780000  1
  O  O5  1  0.00007100  0.12935000  0.06450000  1
  O  O6  1  0.00008000  0.12827100  0.93765300  1
  O  O7  1  0.89976800  0.00003200  0.06464400  1
  O  O8  1  0.89975800  0.00000400  0.93783900  1
