# generated using pymatgen
data_Cu3H38C55O12
_symmetry_space_group_name_H-M   'P 1'
_cell_length_a   37.99595000
_cell_length_b   31.98600100
_cell_length_c   21.22614300
_cell_angle_alpha   90.00000000
_cell_angle_beta   57.37920300
_cell_angle_gamma   90.00000000
_symmetry_Int_Tables_number   1
_chemical_formula_structural   Cu3H38C55O12
_chemical_formula_sum   'Cu12 H152 C220 O48'
_cell_volume   21727.65494561
_cell_formula_units_Z   4
loop_
 _symmetry_equiv_pos_site_id
 _symmetry_equiv_pos_as_xyz
  1  'x, y, z'
loop_
 _atom_site_type_symbol
 _atom_site_label
 _atom_site_symmetry_multiplicity
 _atom_site_fract_x
 _atom_site_fract_y
 _atom_site_fract_z
 _atom_site_occupancy
  Cu  Cu1  1  0.00000000  0.52687400  0.50000000  1
  Cu  Cu2  1  0.50000000  0.02687400  0.50000000  1
  Cu  Cu3  1  0.00000000  0.44544400  0.50000000  1
  Cu  Cu4  1  0.50000000  0.94544400  0.50000000  1
  Cu  Cu5  1  0.95943000  0.49656400  0.03724600  1
  Cu  Cu6  1  0.04057000  0.49656400  0.96275400  1
  Cu  Cu7  1  0.45943000  0.99656400  0.03724600  1
  Cu  Cu8  1  0.54057000  0.99656400  0.96275400  1
  Cu  Cu9  1  0.49909100  0.49641100  0.93810400  1
  Cu  Cu10  1  0.50090900  0.49641100  0.06189600  1
  Cu  Cu11  1  0.99909100  0.99641100  0.93810400  1
  Cu  Cu12  1  0.00090900  0.99641100  0.06189600  1
  H  H1  1  0.97315000  0.54855800  0.34034700  1
  H  H2  1  0.02685000  0.54855800  0.65965300  1
  H  H3  1  0.47315000  0.04855800  0.34034700  1
  H  H4  1  0.52685000  0.04855800  0.65965300  1
  H  H5  1  0.93682100  0.50609600  0.36797400  1
  H  H6  1  0.06317900  0.50609600  0.63202600  1
  H  H7  1  0.43682100  0.00609600  0.36797400  1
  H  H8  1  0.56317900  0.00609600  0.63202600  1
  H  H9  1  0.98308400  0.55606400  0.22860300  1
  H  H10  1  0.01691600  0.55606400  0.77139700  1
  H  H11  1  0.48308400  0.05606400  0.22860300  1
  H  H12  1  0.51691600  0.05606400  0.77139700  1
  H  H13  1  0.04714300  0.53405600  0.25641600  1
  H  H14  1  0.95285700  0.53405600  0.74358400  1
  H  H15  1  0.54714300  0.03405600  0.25641600  1
  H  H16  1  0.45285700  0.03405600  0.74358400  1
  H  H17  1  0.05174500  0.53269400  0.14974800  1
  H  H18  1  0.94825500  0.53269400  0.85025100  1
  H  H19  1  0.55174500  0.03269400  0.14974800  1
  H  H20  1  0.44825500  0.03269400  0.85025100  1
  H  H21  1  0.95573500  0.43652600  0.34124800  1
  H  H22  1  0.04426500  0.43652600  0.65875200  1
  H  H23  1  0.45573500  0.93652600  0.34124800  1
  H  H24  1  0.54426500  0.93652600  0.65875200  1
  H  H25  1  0.95224200  0.44168300  0.24183400  1
  H  H26  1  0.04775800  0.44168300  0.75816600  1
  H  H27  1  0.45224200  0.94168300  0.24183400  1
  H  H28  1  0.54775800  0.94168300  0.75816600  1
  H  H29  1  0.00416000  0.42521200  0.18059500  1
  H  H30  1  0.99584000  0.42521200  0.81940500  1
  H  H31  1  0.50416000  0.92521200  0.18059500  1
  H  H32  1  0.49584000  0.92521200  0.81940500  1
  H  H33  1  0.06722100  0.48214600  0.24196600  1
  H  H34  1  0.93277900  0.48214600  0.75803400  1
  H  H35  1  0.56722100  0.98214600  0.24196600  1
  H  H36  1  0.43277900  0.98214600  0.75803400  1
  H  H37  1  0.79008800  0.46667800  0.80368900  1
  H  H38  1  0.20991200  0.46667800  0.19631100  1
  H  H39  1  0.29008800  0.96667800  0.80368900  1
  H  H40  1  0.70991200  0.96667800  0.19631100  1
  H  H41  1  0.71328800  0.46966500  0.88145300  1
  H  H42  1  0.28671200  0.46966500  0.11854700  1
  H  H43  1  0.21328800  0.96966500  0.88145300  1
  H  H44  1  0.78671200  0.96966500  0.11854700  1
  H  H45  1  0.71110300  0.51431000  0.69449100  1
  H  H46  1  0.28889700  0.51431000  0.30550900  1
  H  H47  1  0.21110300  0.01431000  0.69449100  1
  H  H48  1  0.78889700  0.01431000  0.30550900  1
  H  H49  1  0.78787800  0.51139800  0.61683500  1
  H  H50  1  0.21212200  0.51139700  0.38316500  1
  H  H51  1  0.28787800  0.01139800  0.61683500  1
  H  H52  1  0.71212200  0.01139700  0.38316500  1
  H  H53  1  0.01182400  0.70734100  0.88984300  1
  H  H54  1  0.98817600  0.70734100  0.11015700  1
  H  H55  1  0.51182400  0.20734100  0.88984300  1
  H  H56  1  0.48817600  0.20734100  0.11015700  1
  H  H57  1  0.51186100  0.28426300  0.88980700  1
  H  H58  1  0.48813900  0.28426300  0.11019300  1
  H  H59  1  0.01186100  0.78426300  0.88980700  1
  H  H60  1  0.98813900  0.78426300  0.11019300  1
  H  H61  1  0.03923400  0.28560400  0.04320300  1
  H  H62  1  0.96076600  0.28560400  0.95679700  1
  H  H63  1  0.53923400  0.78560400  0.04320300  1
  H  H64  1  0.46076600  0.78560400  0.95679700  1
  H  H65  1  0.53924600  0.70868400  0.04317800  1
  H  H66  1  0.46075400  0.70868400  0.95682100  1
  H  H67  1  0.03924600  0.20868400  0.04317800  1
  H  H68  1  0.96075400  0.20868400  0.95682100  1
  H  H69  1  0.07163600  0.45813700  0.07531800  1
  H  H70  1  0.07698100  0.44201900  0.14880400  1
  H  H71  1  0.13898800  0.45370100  0.14117300  1
  H  H72  1  0.20833100  0.48572700  0.07814100  1
  H  H73  1  0.22796800  0.53972700  0.98233300  1
  H  H74  1  0.17792200  0.56142200  0.94901300  1
  H  H75  1  0.10851500  0.52958900  0.01131700  1
  H  H76  1  0.92836400  0.45813700  0.92468100  1
  H  H77  1  0.92301900  0.44201900  0.85119600  1
  H  H78  1  0.86101200  0.45370100  0.85882700  1
  H  H79  1  0.79166900  0.48572700  0.92185900  1
  H  H80  1  0.77203200  0.53972700  0.01766700  1
  H  H81  1  0.82207800  0.56142200  0.05098600  1
  H  H82  1  0.89148500  0.52958900  0.98868200  1
  H  H83  1  0.57163600  0.95813700  0.07531800  1
  H  H84  1  0.57698100  0.94201900  0.14880400  1
  H  H85  1  0.63898800  0.95370100  0.14117300  1
  H  H86  1  0.70833100  0.98572700  0.07814100  1
  H  H87  1  0.72796800  0.03972700  0.98233300  1
  H  H88  1  0.67792200  0.06142200  0.94901300  1
  H  H89  1  0.60851500  0.02958900  0.01131700  1
  H  H90  1  0.42836400  0.95813700  0.92468100  1
  H  H91  1  0.42301900  0.94201900  0.85119600  1
  H  H92  1  0.36101200  0.95370100  0.85882700  1
  H  H93  1  0.29166900  0.98572700  0.92185900  1
  H  H94  1  0.27203200  0.03972700  0.01766700  1
  H  H95  1  0.32207800  0.06142200  0.05098600  1
  H  H96  1  0.39148400  0.02958900  0.98868200  1
  H  H97  1  0.90249200  0.53736800  0.33036700  1
  H  H98  1  0.91107100  0.49558300  0.26886900  1
  H  H99  1  0.88034500  0.51365300  0.20451200  1
  H  H100  1  0.85871300  0.56530400  0.14704600  1
  H  H101  1  0.87861300  0.63911700  0.14013100  1
  H  H102  1  0.91901600  0.66131800  0.19372200  1
  H  H103  1  0.93939300  0.61047100  0.25406400  1
  H  H104  1  0.09750800  0.53736800  0.66963300  1
  H  H105  1  0.08892900  0.49558300  0.73113100  1
  H  H106  1  0.11965500  0.51365300  0.79548800  1
  H  H107  1  0.14128700  0.56530400  0.85295400  1
  H  H108  1  0.12138700  0.63911700  0.85986800  1
  H  H109  1  0.08098400  0.66131800  0.80627800  1
  H  H110  1  0.06060700  0.61047100  0.74593600  1
  H  H111  1  0.40249200  0.03736800  0.33036700  1
  H  H112  1  0.41107100  0.99558300  0.26886900  1
  H  H113  1  0.38034500  0.01365300  0.20451200  1
  H  H114  1  0.35871300  0.06530400  0.14704600  1
  H  H115  1  0.37861300  0.13911700  0.14013100  1
  H  H116  1  0.41901600  0.16131800  0.19372200  1
  H  H117  1  0.43939300  0.11047100  0.25406400  1
  H  H118  1  0.59750800  0.03736800  0.66963300  1
  H  H119  1  0.58892900  0.99558300  0.73113100  1
  H  H120  1  0.61965500  0.01365300  0.79548800  1
  H  H121  1  0.64128600  0.06530400  0.85295400  1
  H  H122  1  0.62138700  0.13911700  0.85986900  1
  H  H123  1  0.58098400  0.16131800  0.80627800  1
  H  H124  1  0.56060700  0.11047100  0.74593600  1
  H  H125  1  0.03860700  0.41638500  0.30018300  1
  H  H126  1  0.03441700  0.39470500  0.22769800  1
  H  H127  1  0.01590200  0.37234900  0.40211500  1
  H  H128  1  0.97323100  0.31401800  0.48082400  1
  H  H129  1  0.92390700  0.27912100  0.45695000  1
  H  H130  1  0.91752000  0.30267800  0.35327400  1
  H  H131  1  0.95986700  0.36122400  0.27420500  1
  H  H132  1  0.96139200  0.41638500  0.69981700  1
  H  H133  1  0.96558300  0.39470500  0.77230200  1
  H  H134  1  0.98409800  0.37234900  0.59788500  1
  H  H135  1  0.02676900  0.31401800  0.51917600  1
  H  H136  1  0.07609300  0.27912100  0.54305000  1
  H  H137  1  0.08248000  0.30267800  0.64672600  1
  H  H138  1  0.04013300  0.36122400  0.72579500  1
  H  H139  1  0.53860700  0.91638500  0.30018300  1
  H  H140  1  0.53441700  0.89470500  0.22769800  1
  H  H141  1  0.51590200  0.87234900  0.40211500  1
  H  H142  1  0.47323100  0.81401800  0.48082400  1
  H  H143  1  0.42390700  0.77912100  0.45695000  1
  H  H144  1  0.41752000  0.80267800  0.35327400  1
  H  H145  1  0.45986700  0.86122400  0.27420500  1
  H  H146  1  0.46139200  0.91638500  0.69981700  1
  H  H147  1  0.46558300  0.89470500  0.77230200  1
  H  H148  1  0.48409800  0.87234900  0.59788500  1
  H  H149  1  0.52676900  0.81401800  0.51917600  1
  H  H150  1  0.57609300  0.77912100  0.54305000  1
  H  H151  1  0.58248000  0.80267800  0.64672600  1
  H  H152  1  0.54013300  0.86122400  0.72579500  1
  C  C1  1  0.92097600  0.48621900  0.57735300  1
  C  C2  1  0.07902400  0.48621900  0.42264600  1
  C  C3  1  0.42097600  0.98621900  0.57735300  1
  C  C4  1  0.57902400  0.98621900  0.42264600  1
  C  C5  1  0.00014900  0.48584300  0.38059600  1
  C  C6  1  0.99985100  0.48584300  0.61940400  1
  C  C7  1  0.50014900  0.98584300  0.38059600  1
  C  C8  1  0.49985100  0.98584300  0.61940400  1
  C  C9  1  0.00000000  0.37276700  0.00000000  1
  C  C10  1  0.50000000  0.87276700  0.00000000  1
  C  C11  1  0.50000000  0.62151100  0.00000000  1
  C  C12  1  0.00000000  0.12151100  0.00000000  1
  C  C13  1  0.00000000  0.29024600  0.00000000  1
  C  C14  1  0.50000000  0.79024600  0.00000000  1
  C  C15  1  0.97800200  0.26869700  0.97578500  1
  C  C16  1  0.02199800  0.26869700  0.02421400  1
  C  C17  1  0.47800200  0.76869700  0.97578500  1
  C  C18  1  0.52199800  0.76869700  0.02421400  1
  C  C19  1  0.96743700  0.51817700  0.32228200  1
  C  C20  1  0.03256300  0.51817700  0.67771800  1
  C  C21  1  0.46743700  0.01817700  0.32228200  1
  C  C22  1  0.53256300  0.01817700  0.67771800  1
  C  C23  1  0.96842800  0.52521300  0.25054800  1
  C  C24  1  0.03157200  0.52521300  0.74945200  1
  C  C25  1  0.46842800  0.02521300  0.25054800  1
  C  C26  1  0.53157200  0.02521300  0.74945200  1
  C  C27  1  0.04191900  0.50138900  0.24589300  1
  C  C28  1  0.95808100  0.50138900  0.75410700  1
  C  C29  1  0.54191900  0.00138900  0.24589300  1
  C  C30  1  0.45808100  0.00138900  0.75410700  1
  C  C31  1  0.98764900  0.44390900  0.29346700  1
  C  C32  1  0.01235100  0.44390900  0.70653200  1
  C  C33  1  0.48764900  0.94390900  0.29346700  1
  C  C34  1  0.51235100  0.94390900  0.70653200  1
  C  C35  1  0.99990800  0.48642700  0.31037300  1
  C  C36  1  0.00009200  0.48642700  0.68962700  1
  C  C37  1  0.49990800  0.98642700  0.31037300  1
  C  C38  1  0.50009200  0.98642700  0.68962700  1
  C  C39  1  0.99776000  0.49231500  0.19216000  1
  C  C40  1  0.00224000  0.49231500  0.80784000  1
  C  C41  1  0.49776000  0.99231500  0.19216000  1
  C  C42  1  0.50224000  0.99231500  0.80784000  1
  C  C43  1  0.04250500  0.50086000  0.17382000  1
  C  C44  1  0.95749400  0.50086000  0.82617900  1
  C  C45  1  0.54250500  0.00086000  0.17382000  1
  C  C46  1  0.45749400  0.00086000  0.82618000  1
  C  C47  1  0.98477700  0.44835700  0.22465000  1
  C  C48  1  0.01522300  0.44835700  0.77535000  1
  C  C49  1  0.48477700  0.94835700  0.22465000  1
  C  C50  1  0.51522300  0.94835700  0.77535000  1
  C  C51  1  0.72966500  0.47881800  0.82330400  1
  C  C52  1  0.27033500  0.47881800  0.17669600  1
  C  C53  1  0.22966500  0.97881800  0.82330400  1
  C  C54  1  0.77033500  0.97881800  0.17669600  1
  C  C55  1  0.70750700  0.49219600  0.79271500  1
  C  C56  1  0.29249300  0.49219600  0.20728500  1
  C  C57  1  0.20750700  0.99219600  0.79271500  1
  C  C58  1  0.79249300  0.99219600  0.20728500  1
  C  C59  1  0.72844500  0.50384000  0.71850800  1
  C  C60  1  0.27155500  0.50384000  0.28149200  1
  C  C61  1  0.22844500  0.00384000  0.71850800  1
  C  C62  1  0.77155500  0.00384000  0.28149200  1
  C  C63  1  0.77149000  0.50217100  0.67494700  1
  C  C64  1  0.22851000  0.50217100  0.32505300  1
  C  C65  1  0.27149000  0.00217100  0.67494700  1
  C  C66  1  0.72851000  0.00217100  0.32505300  1
  C  C67  1  0.79364700  0.48881000  0.70552100  1
  C  C68  1  0.20635300  0.48881000  0.29447900  1
  C  C69  1  0.29364700  0.98881000  0.70552100  1
  C  C70  1  0.70635300  0.98881000  0.29447900  1
  C  C71  1  0.77272200  0.47712500  0.77971200  1
  C  C72  1  0.22727800  0.47712500  0.22028800  1
  C  C73  1  0.27272200  0.97712500  0.77971200  1
  C  C74  1  0.72727800  0.97712500  0.22028800  1
  C  C75  1  0.66267800  0.49388500  0.83794100  1
  C  C76  1  0.33732200  0.49388400  0.16205900  1
  C  C77  1  0.16267800  0.99388400  0.83794100  1
  C  C78  1  0.83732200  0.99388400  0.16205900  1
  C  C79  1  0.83847800  0.48746700  0.66029400  1
  C  C80  1  0.16152200  0.48746700  0.33970600  1
  C  C81  1  0.33847800  0.98746700  0.66029400  1
  C  C82  1  0.66152200  0.98746700  0.33970600  1
  C  C83  1  0.87612700  0.48666600  0.62235700  1
  C  C84  1  0.12387300  0.48666600  0.37764300  1
  C  C85  1  0.37612700  0.98666600  0.62235700  1
  C  C86  1  0.62387300  0.98666600  0.37764300  1
  C  C87  1  0.62503400  0.49519600  0.87570500  1
  C  C88  1  0.37496600  0.49519600  0.12429400  1
  C  C89  1  0.12503400  0.99519600  0.87570600  1
  C  C90  1  0.87496600  0.99519600  0.12429400  1
  C  C91  1  0.50000000  0.65918100  0.00000000  1
  C  C92  1  0.00000000  0.15918100  0.00000000  1
  C  C93  1  0.00000000  0.57550900  0.00000000  1
  C  C94  1  0.50000000  0.07550900  0.00000000  1
  C  C95  1  0.99740900  0.49587100  0.12181300  1
  C  C96  1  0.00259100  0.49587100  0.87818700  1
  C  C97  1  0.49740900  0.99587100  0.12181300  1
  C  C98  1  0.50259100  0.99587100  0.87818700  1
  C  C99  1  0.00000000  0.33510000  0.00000000  1
  C  C100  1  0.50000000  0.83510000  0.00000000  1
  C  C101  1  0.00000000  0.41761400  0.00000000  1
  C  C102  1  0.50000000  0.91761400  0.00000000  1
  C  C103  1  0.50000000  0.41620800  0.00000000  1
  C  C104  1  0.00000000  0.91620800  0.00000000  1
  C  C105  1  0.58018400  0.49651600  0.92050800  1
  C  C106  1  0.41981500  0.49651600  0.07949200  1
  C  C107  1  0.08018400  0.99651600  0.92050800  1
  C  C108  1  0.91981500  0.99651600  0.07949200  1
  C  C109  1  0.50000000  0.57665400  0.00000000  1
  C  C110  1  0.00000000  0.07665400  0.00000000  1
  C  C111  1  0.50665400  0.26735400  0.93821500  1
  C  C112  1  0.49334600  0.26735400  0.06178500  1
  C  C113  1  0.00665400  0.76735400  0.93821500  1
  C  C114  1  0.99334600  0.76735400  0.06178500  1
  C  C115  1  0.50000000  0.28888700  0.00000000  1
  C  C116  1  0.00000000  0.78888700  0.00000000  1
  C  C117  1  0.99335400  0.72425900  0.06177800  1
  C  C118  1  0.00664600  0.72425900  0.93822200  1
  C  C119  1  0.49335400  0.22425900  0.06177800  1
  C  C120  1  0.50664600  0.22425900  0.93822200  1
  C  C121  1  0.00000000  0.70273900  0.00000000  1
  C  C122  1  0.50000000  0.20273900  0.00000000  1
  C  C123  1  0.50000000  0.33372000  0.00000000  1
  C  C124  1  0.00000000  0.83372000  0.00000000  1
  C  C125  1  0.00000000  0.65793400  0.00000000  1
  C  C126  1  0.50000000  0.15793400  0.00000000  1
  C  C127  1  0.00000000  0.62029900  0.00000000  1
  C  C128  1  0.50000000  0.12029900  0.00000000  1
  C  C129  1  0.50000000  0.37137600  0.00000000  1
  C  C130  1  0.00000000  0.87137600  0.00000000  1
  C  C131  1  0.52200200  0.72558800  0.02420500  1
  C  C132  1  0.47799800  0.72558800  0.97579500  1
  C  C133  1  0.02200200  0.22558800  0.02420500  1
  C  C134  1  0.97799800  0.22558800  0.97579500  1
  C  C135  1  0.50000000  0.70403800  0.00000000  1
  C  C136  1  0.00000000  0.20403800  0.00000000  1
  C  C137  1  0.07650500  0.46992400  0.11897500  1
  C  C138  1  0.11866100  0.48995300  0.08143800  1
  C  C139  1  0.14711400  0.47745400  0.09924600  1
  C  C140  1  0.18623400  0.49544000  0.06385000  1
  C  C141  1  0.19726400  0.52569900  0.01011300  1
  C  C142  1  0.16920700  0.53788200  0.99151700  1
  C  C143  1  0.13006200  0.51998600  0.02687600  1
  C  C144  1  0.92349500  0.46992400  0.88102500  1
  C  C145  1  0.88133900  0.48995300  0.91856200  1
  C  C146  1  0.85288600  0.47745400  0.90075400  1
  C  C147  1  0.81376600  0.49544000  0.93615000  1
  C  C148  1  0.80273600  0.52569900  0.98988700  1
  C  C149  1  0.83079300  0.53788200  0.00848300  1
  C  C150  1  0.86993800  0.51998600  0.97312400  1
  C  C151  1  0.57650500  0.96992400  0.11897500  1
  C  C152  1  0.61866100  0.98995300  0.08143800  1
  C  C153  1  0.64711400  0.97745400  0.09924600  1
  C  C154  1  0.68623400  0.99544000  0.06385000  1
  C  C155  1  0.69726400  0.02569900  0.01011300  1
  C  C156  1  0.66920700  0.03788200  0.99151700  1
  C  C157  1  0.63006200  0.01998600  0.02687600  1
  C  C158  1  0.42349500  0.96992400  0.88102500  1
  C  C159  1  0.38133900  0.98995300  0.91856200  1
  C  C160  1  0.35288600  0.97745400  0.90075400  1
  C  C161  1  0.31376600  0.99544000  0.93615000  1
  C  C162  1  0.30273600  0.02569900  0.98988700  1
  C  C163  1  0.33079300  0.03788200  0.00848300  1
  C  C164  1  0.36993800  0.01998600  0.97312400  1
  C  C165  1  0.92259800  0.52678200  0.27161400  1
  C  C166  1  0.91391900  0.55784800  0.22886700  1
  C  C167  1  0.88986700  0.54584900  0.20099400  1
  C  C168  1  0.87721900  0.57497600  0.16922600  1
  C  C169  1  0.88832500  0.61632900  0.16539000  1
  C  C170  1  0.91119000  0.62871200  0.19503300  1
  C  C171  1  0.92331200  0.59976000  0.22785900  1
  C  C172  1  0.07740200  0.52678200  0.72838500  1
  C  C173  1  0.08608100  0.55784800  0.77113300  1
  C  C174  1  0.11013300  0.54584900  0.79900600  1
  C  C175  1  0.12278100  0.57497600  0.83077400  1
  C  C176  1  0.11167500  0.61632900  0.83461000  1
  C  C177  1  0.08881000  0.62871200  0.80496700  1
  C  C178  1  0.07668800  0.59975900  0.77214000  1
  C  C179  1  0.42259800  0.02678200  0.27161400  1
  C  C180  1  0.41391900  0.05784800  0.22886700  1
  C  C181  1  0.38986700  0.04584900  0.20099400  1
  C  C182  1  0.37721900  0.07497600  0.16922600  1
  C  C183  1  0.38832500  0.11632900  0.16539000  1
  C  C184  1  0.41119000  0.12871200  0.19503300  1
  C  C185  1  0.42331200  0.09976000  0.22785900  1
  C  C186  1  0.57740200  0.02678200  0.72838600  1
  C  C187  1  0.58608100  0.05784800  0.77113300  1
  C  C188  1  0.61013300  0.04584900  0.79900600  1
  C  C189  1  0.62278100  0.07497600  0.83077400  1
  C  C190  1  0.61167500  0.11632900  0.83461000  1
  C  C191  1  0.58881000  0.12871200  0.80496700  1
  C  C192  1  0.57668800  0.09975900  0.77214000  1
  C  C193  1  0.01594500  0.40700000  0.28531700  1
  C  C194  1  0.98994900  0.37149800  0.33394400  1
  C  C195  1  0.99408700  0.35757900  0.39130100  1
  C  C196  1  0.97020700  0.32459900  0.43561200  1
  C  C197  1  0.94255600  0.30501900  0.42223700  1
  C  C198  1  0.93894800  0.31825500  0.36419300  1
  C  C199  1  0.96270400  0.35129000  0.31992900  1
  C  C200  1  0.98405500  0.40700000  0.71468300  1
  C  C201  1  0.01005100  0.37149800  0.66605600  1
  C  C202  1  0.00591300  0.35757900  0.60869900  1
  C  C203  1  0.02979300  0.32459900  0.56438800  1
  C  C204  1  0.05744400  0.30501900  0.57776300  1
  C  C205  1  0.06105200  0.31825500  0.63580700  1
  C  C206  1  0.03729600  0.35129000  0.68007100  1
  C  C207  1  0.51594500  0.90700000  0.28531700  1
  C  C208  1  0.48994900  0.87149800  0.33394400  1
  C  C209  1  0.49408700  0.85757900  0.39130100  1
  C  C210  1  0.47020700  0.82459900  0.43561200  1
  C  C211  1  0.44255600  0.80501900  0.42223700  1
  C  C212  1  0.43894800  0.81825500  0.36419300  1
  C  C213  1  0.46270400  0.85129000  0.31992900  1
  C  C214  1  0.48405500  0.90700000  0.71468300  1
  C  C215  1  0.51005100  0.87149800  0.66605600  1
  C  C216  1  0.50591300  0.85757900  0.60869900  1
  C  C217  1  0.52979300  0.82459900  0.56438800  1
  C  C218  1  0.55744400  0.80501900  0.57776300  1
  C  C219  1  0.56105200  0.81825500  0.63580700  1
  C  C220  1  0.53729600  0.85129000  0.68007100  1
  O  O1  1  0.94042000  0.52050300  0.53993900  1
  O  O2  1  0.05958000  0.52050300  0.46006100  1
  O  O3  1  0.44042000  0.02050300  0.53993900  1
  O  O4  1  0.55958000  0.02050300  0.46006100  1
  O  O5  1  0.94056800  0.45181500  0.57630200  1
  O  O6  1  0.05943200  0.45181500  0.42369800  1
  O  O7  1  0.44056800  0.95181500  0.57630200  1
  O  O8  1  0.55943200  0.95181500  0.42369800  1
  O  O9  1  0.01169400  0.52040800  0.39893200  1
  O  O10  1  0.98830600  0.52040800  0.60106800  1
  O  O11  1  0.51169400  0.02040800  0.39893200  1
  O  O12  1  0.48830600  0.02040800  0.60106800  1
  O  O13  1  0.98736900  0.45191400  0.42270300  1
  O  O14  1  0.01263100  0.45191400  0.57729600  1
  O  O15  1  0.48736900  0.95191400  0.42270300  1
  O  O16  1  0.51263100  0.95191400  0.57729600  1
  O  O17  1  0.96554900  0.55598100  0.05041300  1
  O  O18  1  0.03445100  0.55598100  0.94958700  1
  O  O19  1  0.46554900  0.05598100  0.05041300  1
  O  O20  1  0.53445100  0.05598100  0.94958700  1
  O  O21  1  0.96375500  0.48388500  0.12290400  1
  O  O22  1  0.03624500  0.48388500  0.87709600  1
  O  O23  1  0.46375500  0.98388500  0.12290400  1
  O  O24  1  0.53624500  0.98388500  0.87709600  1
  O  O25  1  0.03177100  0.50908700  0.06030900  1
  O  O26  1  0.96822900  0.50908700  0.93969100  1
  O  O27  1  0.53177100  0.00908700  0.06030900  1
  O  O28  1  0.46822900  0.00908700  0.93969100  1
  O  O29  1  0.96616400  0.43711700  0.01228000  1
  O  O30  1  0.03383600  0.43711700  0.98772000  1
  O  O31  1  0.46616400  0.93711700  0.01228000  1
  O  O32  1  0.53383600  0.93711700  0.98772000  1
  O  O33  1  0.49750000  0.43563100  0.94808500  1
  O  O34  1  0.50250000  0.43563100  0.05191500  1
  O  O35  1  0.99750000  0.93563100  0.94808500  1
  O  O36  1  0.00250000  0.93563100  0.05191500  1
  O  O37  1  0.55993000  0.49488100  0.88639000  1
  O  O38  1  0.44007000  0.49488100  0.11361000  1
  O  O39  1  0.05993000  0.99488100  0.88639000  1
  O  O40  1  0.94007000  0.99488100  0.11361000  1
  O  O41  1  0.56152500  0.49472700  0.99344500  1
  O  O42  1  0.43847500  0.49472700  0.00655500  1
  O  O43  1  0.06152500  0.99472700  0.99344500  1
  O  O44  1  0.93847500  0.99472700  0.00655500  1
  O  O45  1  0.49747700  0.55717900  0.94827300  1
  O  O46  1  0.50252300  0.55717900  0.05172700  1
  O  O47  1  0.99747700  0.05717900  0.94827300  1
  O  O48  1  0.00252300  0.05717900  0.05172700  1
