# generated using pymatgen
data_ZnH10C14NO5
_symmetry_space_group_name_H-M   'P 1'
_cell_length_a   13.03908900
_cell_length_b   12.82851300
_cell_length_c   8.58416900
_cell_angle_alpha   90.00000000
_cell_angle_beta   95.11214400
_cell_angle_gamma   90.00000000
_symmetry_Int_Tables_number   1
_chemical_formula_structural   ZnH10C14NO5
_chemical_formula_sum   'Zn2 H20 C28 N2 O10'
_cell_volume   1430.18048111
_cell_formula_units_Z   2
loop_
 _symmetry_equiv_pos_site_id
 _symmetry_equiv_pos_as_xyz
  1  'x, y, z'
loop_
 _atom_site_type_symbol
 _atom_site_label
 _atom_site_symmetry_multiplicity
 _atom_site_fract_x
 _atom_site_fract_y
 _atom_site_fract_z
 _atom_site_occupancy
  Zn  Zn1  1  0.53424300  0.10711700  0.47390500  1
  Zn  Zn2  1  0.51118300  0.87242900  0.47234700  1
  H  H1  1  0.85970900  0.01630000  0.76771400  1
  H  H2  1  0.18252500  0.98193200  0.17969100  1
  H  H3  1  0.02937100  0.04814200  0.13733400  1
  H  H4  1  0.01397700  0.95153400  0.80956700  1
  H  H5  1  0.59327400  0.93501700  0.98770600  1
  H  H6  1  0.45561200  0.03062400  0.95885400  1
  H  H7  1  0.00873300  0.89770500  0.32917300  1
  H  H8  1  0.89569200  0.84350200  0.22120700  1
  H  H9  1  0.91710400  0.89908400  0.56993900  1
  H  H10  1  0.80285400  0.84757700  0.46213000  1
  H  H11  1  0.90015100  0.68945900  0.39608200  1
  H  H12  1  0.90384600  0.70804700  0.60534000  1
  H  H13  1  0.01492200  0.74124000  0.50333700  1
  H  H14  1  0.18779500  0.11013700  0.48627000  1
  H  H15  1  0.20081600  0.15329800  0.68739800  1
  H  H16  1  0.99738800  0.08600800  0.51014900  1
  H  H17  1  0.01558200  0.14082000  0.70464000  1
  H  H18  1  0.08615600  0.30276900  0.59487600  1
  H  H19  1  0.95662900  0.27549600  0.51146400  1
  H  H20  1  0.06483100  0.24825500  0.39996500  1
  C  C1  1  0.72523200  0.97007900  0.14138800  1
  C  C2  1  0.32089500  0.00947800  0.80520100  1
  C  C3  1  0.82980400  0.98993900  0.15280400  1
  C  C4  1  0.21468200  0.00101000  0.79352900  1
  C  C5  1  0.88088200  0.99950300  0.01812300  1
  C  C6  1  0.16305800  0.99639800  0.92844300  1
  C  C7  1  0.82472300  0.99765700  0.87343700  1
  C  C8  1  0.21906500  0.99483300  0.07343700  1
  C  C9  1  0.72173300  0.97288800  0.86299500  1
  C  C10  1  0.32413800  0.00764700  0.08341100  1
  C  C11  1  0.67391500  0.95401800  0.99653400  1
  C  C12  1  0.37360100  0.01944900  0.94998600  1
  C  C13  1  0.99327400  0.01447700  0.03072200  1
  C  C14  1  0.05025300  0.98566100  0.91550600  1
  C  C15  1  0.52793200  0.44309600  0.47338900  1
  C  C16  1  0.51755700  0.53645200  0.47286000  1
  C  C17  1  0.66383900  0.97646600  0.27625800  1
  C  C18  1  0.38149600  0.00300600  0.66970900  1
  C  C19  1  0.38641000  0.00115300  0.23248300  1
  C  C20  1  0.65883200  0.97855400  0.71415500  1
  C  C21  1  0.53871000  0.33354900  0.47394800  1
  C  C22  1  0.50676500  0.64599600  0.47229100  1
  C  C23  1  0.92343900  0.89428500  0.32068700  1
  C  C24  1  0.88812400  0.84948000  0.47013400  1
  C  C25  1  0.92957200  0.73982900  0.49515700  1
  C  C26  1  0.15566800  0.10327300  0.60117300  1
  C  C27  1  0.04476200  0.13984500  0.58728400  1
  C  C28  1  0.03780100  0.24877300  0.51885600  1
  N  N1  1  0.54485200  0.24356800  0.47428500  1
  N  N2  1  0.50060800  0.73597500  0.47194800  1
  O  O1  1  0.62014000  0.89097500  0.32213000  1
  O  O2  1  0.42517600  0.08857300  0.62393700  1
  O  O3  1  0.40556800  0.90977300  0.62087700  1
  O  O4  1  0.63985700  0.06970800  0.32535700  1
  O  O5  1  0.42849200  0.08718900  0.29006300  1
  O  O6  1  0.61692900  0.89239400  0.65630600  1
  O  O7  1  0.63665800  0.07126700  0.65619200  1
  O  O8  1  0.40872600  0.90829500  0.29005800  1
  O  O9  1  0.88336300  0.99450900  0.29669200  1
  O  O10  1  0.16070600  0.99919500  0.64951600  1
