# generated using pymatgen
data_Fe2H15C45N(ClO8)2
_symmetry_space_group_name_H-M   'P 1'
_cell_length_a   15.78823200
_cell_length_b   9.43664400
_cell_length_c   15.76587400
_cell_angle_alpha   87.57809100
_cell_angle_beta   86.66747500
_cell_angle_gamma   104.87268900
_symmetry_Int_Tables_number   1
_chemical_formula_structural   Fe2H15C45N(ClO8)2
_chemical_formula_sum   'Fe2 H15 C45 N1 Cl2 O16'
_cell_volume   2262.41036164
_cell_formula_units_Z   1
loop_
 _symmetry_equiv_pos_site_id
 _symmetry_equiv_pos_as_xyz
  1  'x, y, z'
loop_
 _atom_site_type_symbol
 _atom_site_label
 _atom_site_symmetry_multiplicity
 _atom_site_fract_x
 _atom_site_fract_y
 _atom_site_fract_z
 _atom_site_occupancy
  Fe  Fe1  1  0.49772300  0.98541800  0.18296900  1
  Fe  Fe2  1  0.49558200  0.99904100  0.81395000  1
  H  H1  1  0.18333000  0.02809400  0.86825800  1
  H  H2  1  0.21297100  0.94526900  0.17198300  1
  H  H3  1  0.05790700  0.97255200  0.83059300  1
  H  H4  1  0.06286600  0.91908300  0.20296000  1
  H  H5  1  0.92256600  0.92431000  0.16338300  1
  H  H6  1  0.77106500  0.01170100  0.82315200  1
  H  H7  1  0.81302800  0.98030100  0.12674700  1
  H  H8  1  0.48986000  0.53581500  0.78514900  1
  H  H9  1  0.50059800  0.43927500  0.21141200  1
  H  H10  1  0.51059100  0.73990800  0.54119800  1
  H  H11  1  0.49485200  0.71184200  0.41517900  1
  H  H12  1  0.50439700  0.13370800  0.45657800  1
  H  H13  1  0.79875500  0.73780500  0.63131100  1
  H  H14  1  0.99168900  0.14332400  0.57424800  1
  H  H15  1  0.01189900  0.16876300  0.72667000  1
  C  C1  1  0.27820700  0.98493300  0.04826800  1
  C  C2  1  0.26851100  0.00519700  0.96197100  1
  C  C3  1  0.18651900  0.00509000  0.93492800  1
  C  C4  1  0.20532800  0.95871000  0.10467700  1
  C  C5  1  0.12389300  0.95825200  0.07713200  1
  C  C6  1  0.11251100  0.98006600  0.99190500  1
  C  C7  1  0.02817100  0.97837800  0.96628900  1
  C  C8  1  0.01101100  0.98122300  0.88088900  1
  C  C9  1  0.92936400  0.98167500  0.85583700  1
  C  C10  1  0.05414600  0.93789900  0.13630900  1
  C  C11  1  0.97299700  0.94384600  0.11239600  1
  C  C12  1  0.95859800  0.96760500  0.02722400  1
  C  C13  1  0.87596500  0.97714800  0.00153300  1
  C  C14  1  0.86266700  0.98665400  0.91556100  1
  C  C15  1  0.78253800  0.00023300  0.88953100  1
  C  C16  1  0.80596600  0.97850200  0.05964700  1
  C  C17  1  0.72407400  0.98122100  0.03364500  1
  C  C18  1  0.71277200  0.99275200  0.94734800  1
  C  C19  1  0.65257900  0.97600600  0.09944900  1
  C  C20  1  0.49834400  0.71262300  0.24946500  1
  C  C21  1  0.36437500  0.00469000  0.08297400  1
  C  C22  1  0.49009100  0.19407800  0.29837100  1
  C  C23  1  0.50382400  0.78882700  0.70017900  1
  C  C24  1  0.62683000  0.98088100  0.91408800  1
  C  C25  1  0.49611100  0.26874700  0.74320500  1
  C  C26  1  0.34173900  0.01914400  0.89697500  1
  C  C27  1  0.49213900  0.52493800  0.71719900  1
  C  C28  1  0.49819500  0.64702800  0.66434700  1
  C  C29  1  0.50386500  0.63857000  0.57762800  1
  C  C30  1  0.49504300  0.39344700  0.68356300  1
  C  C31  1  0.49761000  0.38345400  0.59543800  1
  C  C32  1  0.49986600  0.50518700  0.54151700  1
  C  C33  1  0.49942100  0.49027100  0.45316700  1
  C  C34  1  0.49818700  0.60608300  0.39546600  1
  C  C35  1  0.49986300  0.58905600  0.30897700  1
  C  C36  1  0.50051900  0.23886200  0.47816700  1
  C  C37  1  0.49865800  0.35459300  0.42187100  1
  C  C38  1  0.49840200  0.33703300  0.33456100  1
  C  C39  1  0.50142300  0.45501100  0.27885900  1
  C  C40  1  0.91514300  0.96901900  0.76515200  1
  C  C41  1  0.85606700  0.84719100  0.73801100  1
  C  C42  1  0.84495700  0.83314900  0.65239300  1
  C  C43  1  0.89330900  0.93981200  0.59360800  1
  C  C44  1  0.95328800  0.06020300  0.62039200  1
  C  C45  1  0.96460300  0.07436500  0.70599300  1
  N  N1  1  0.49912100  0.25533700  0.56228700  1
  Cl  Cl1  1  0.79688300  0.70773900  0.81177300  1
  Cl  Cl2  1  0.87942700  0.92117900  0.48489300  1
  O  O1  1  0.57918000  0.00664600  0.08027700  1
  O  O2  1  0.50099600  0.69663900  0.16715000  1
  O  O3  1  0.66295600  0.94370100  0.17930300  1
  O  O4  1  0.49501100  0.84010700  0.27807700  1
  O  O5  1  0.37541400  0.91591400  0.14540200  1
  O  O6  1  0.42830100  0.12076900  0.05800800  1
  O  O7  1  0.53739500  0.18526600  0.22849200  1
  O  O8  1  0.42631600  0.08050700  0.32741700  1
  O  O9  1  0.45832500  0.79650400  0.77134700  1
  O  O10  1  0.55857600  0.90748700  0.66382700  1
  O  O11  1  0.61710800  0.07290700  0.85275200  1
  O  O12  1  0.56202800  0.86491000  0.93691200  1
  O  O13  1  0.33249800  0.05620300  0.81756800  1
  O  O14  1  0.49834600  0.13975000  0.71637600  1
  O  O15  1  0.41276900  0.97998900  0.91551100  1
  O  O16  1  0.49508600  0.28671800  0.82531600  1
