# generated using pymatgen
data_V2H18C31O10
_symmetry_space_group_name_H-M   'P 1'
_cell_length_a   19.61753000
_cell_length_b   6.75840200
_cell_length_c   16.94542600
_cell_angle_alpha   90.00000000
_cell_angle_beta   91.99278900
_cell_angle_gamma   90.00000000
_symmetry_Int_Tables_number   1
_chemical_formula_structural   V2H18C31O10
_chemical_formula_sum   'V4 H36 C62 O20'
_cell_volume   2245.31925949
_cell_formula_units_Z   2
loop_
 _symmetry_equiv_pos_site_id
 _symmetry_equiv_pos_as_xyz
  1  'x, y, z'
loop_
 _atom_site_type_symbol
 _atom_site_label
 _atom_site_symmetry_multiplicity
 _atom_site_fract_x
 _atom_site_fract_y
 _atom_site_fract_z
 _atom_site_occupancy
  V  V1  1  0.51216100  0.09872500  0.49637600  1
  V  V2  1  0.48783900  0.59872500  0.50362300  1
  V  V3  1  0.99158900  0.50963100  0.00156400  1
  V  V4  1  0.00841100  0.00963100  0.99843500  1
  H  H1  1  0.17432600  0.03042900  0.14540900  1
  H  H2  1  0.82567400  0.53042900  0.85459000  1
  H  H3  1  0.13896300  0.41775600  0.18744200  1
  H  H4  1  0.86103700  0.91775600  0.81255800  1
  H  H5  1  0.26565200  0.19815200  0.21529100  1
  H  H6  1  0.73434800  0.69815200  0.78470900  1
  H  H7  1  0.23346300  0.41600300  0.28696600  1
  H  H8  1  0.76653800  0.91600400  0.71303300  1
  H  H9  1  0.36066400  0.19508900  0.31434100  1
  H  H10  1  0.63933600  0.69508900  0.68565900  1
  H  H11  1  0.32395700  0.58353900  0.35693300  1
  H  H12  1  0.67604400  0.08353900  0.64306700  1
  H  H13  1  0.26592200  0.15673600  0.90325500  1
  H  H14  1  0.73407900  0.65673600  0.09674400  1
  H  H15  1  0.36731900  0.22476200  0.83909700  1
  H  H16  1  0.63268100  0.72476200  0.16090300  1
  H  H17  1  0.32012200  0.69455200  0.64711600  1
  H  H18  1  0.67987800  0.19455100  0.35288300  1
  H  H19  1  0.05059400  0.46928300  0.76574900  1
  H  H20  1  0.94940600  0.96928300  0.23425000  1
  H  H21  1  0.23141100  0.57521000  0.64553300  1
  H  H22  1  0.76858900  0.07520900  0.35446600  1
  H  H23  1  0.12595200  0.39913700  0.65691300  1
  H  H24  1  0.87404800  0.89913700  0.34308600  1
  H  H25  1  0.15996100  0.97532500  0.91305800  1
  H  H26  1  0.84003900  0.47532600  0.08694100  1
  H  H27  1  0.46249800  0.26913800  0.67357600  1
  H  H28  1  0.50887600  0.09386800  0.73599100  1
  H  H29  1  0.42708500  0.45035300  0.80058500  1
  H  H30  1  0.55907600  0.22887500  0.84372400  1
  H  H31  1  0.52171700  0.44714800  0.89541200  1
  H  H32  1  0.53750200  0.76913900  0.32642400  1
  H  H33  1  0.49112400  0.59386800  0.26400800  1
  H  H34  1  0.57291500  0.95035300  0.19941500  1
  H  H35  1  0.44092500  0.72887400  0.15627600  1
  H  H36  1  0.47828400  0.94714900  0.10458700  1
  C  C1  1  0.56848900  0.38596400  0.38018900  1
  C  C2  1  0.43151200  0.88596400  0.61981100  1
  C  C3  1  0.59517000  0.37965600  0.59961500  1
  C  C4  1  0.40483000  0.87965600  0.40038400  1
  C  C5  1  0.15076700  0.72417400  0.16013100  1
  C  C6  1  0.84923300  0.22417400  0.83986800  1
  C  C7  1  0.34811200  0.88903500  0.34206000  1
  C  C8  1  0.65188800  0.38903500  0.65793900  1
  C  C9  1  0.27822800  0.06349800  0.24694400  1
  C  C10  1  0.72177200  0.56349800  0.75305500  1
  C  C11  1  0.33163700  0.06179000  0.30243700  1
  C  C12  1  0.66836300  0.56179000  0.69756300  1
  C  C13  1  0.31098300  0.71911900  0.32607900  1
  C  C14  1  0.68901800  0.21911900  0.67392100  1
  C  C15  1  0.25753600  0.72107000  0.27097600  1
  C  C16  1  0.74246500  0.22107000  0.72902400  1
  C  C17  1  0.24105200  0.89333300  0.23139200  1
  C  C18  1  0.75894800  0.39333300  0.76860700  1
  C  C19  1  0.18745100  0.89503300  0.17631300  1
  C  C20  1  0.81254900  0.39503300  0.82368600  1
  C  C21  1  0.16762800  0.55157900  0.19959500  1
  C  C22  1  0.83237300  0.05157900  0.80040400  1
  C  C23  1  0.22070800  0.55056700  0.25534100  1
  C  C24  1  0.77929200  0.05056700  0.74465900  1
  C  C25  1  0.35624000  0.10834000  0.79684300  1
  C  C26  1  0.64376000  0.60834000  0.20315700  1
  C  C27  1  0.38721300  0.91821600  0.68559500  1
  C  C28  1  0.61278700  0.41821600  0.31440400  1
  C  C29  1  0.09717200  0.55284500  0.76020900  1
  C  C30  1  0.90282800  0.05284500  0.23979100  1
  C  C31  1  0.13959000  0.51253600  0.69959100  1
  C  C32  1  0.86041100  0.01253600  0.30040800  1
  C  C33  1  0.20007700  0.61338700  0.69397100  1
  C  C34  1  0.79992300  0.11338700  0.30602900  1
  C  C35  1  0.21872800  0.75675200  0.74930600  1
  C  C36  1  0.78127200  0.25675200  0.25069300  1
  C  C37  1  0.17434400  0.80216100  0.80871300  1
  C  C38  1  0.82565600  0.30216100  0.19128600  1
  C  C39  1  0.28111000  0.85449100  0.74660300  1
  C  C40  1  0.71889100  0.35449100  0.25339600  1
  C  C41  1  0.29666300  0.00159700  0.80104200  1
  C  C42  1  0.70333700  0.50159700  0.19895700  1
  C  C43  1  0.25273400  0.04407700  0.86009100  1
  C  C44  1  0.74726600  0.54407700  0.13990900  1
  C  C45  1  0.19241800  0.94254800  0.86484900  1
  C  C46  1  0.80758300  0.44254800  0.13515000  1
  C  C47  1  0.32836300  0.80896700  0.69038200  1
  C  C48  1  0.67163700  0.30896800  0.30961800  1
  C  C49  1  0.40064800  0.07059800  0.73772900  1
  C  C50  1  0.59935200  0.57059800  0.26227000  1
  C  C51  1  0.11352300  0.69970800  0.81382100  1
  C  C52  1  0.88647700  0.19970800  0.18617900  1
  C  C53  1  0.90588900  0.22954600  0.89836600  1
  C  C54  1  0.09411100  0.72954600  0.10163300  1
  C  C55  1  0.93037600  0.22242200  0.11914100  1
  C  C56  1  0.06962400  0.72242200  0.88085800  1
  C  C57  1  0.46349800  0.19156700  0.73125100  1
  C  C58  1  0.46698300  0.34036600  0.79607400  1
  C  C59  1  0.51913100  0.33869500  0.84827700  1
  C  C60  1  0.53650200  0.69156700  0.26874800  1
  C  C61  1  0.53301700  0.84036600  0.20392600  1
  C  C62  1  0.48086900  0.83869500  0.15172300  1
  O  O1  1  0.56382300  0.55007400  0.58064000  1
  O  O2  1  0.43617700  0.05007400  0.41935900  1
  O  O3  1  0.56641500  0.20211300  0.40853900  1
  O  O4  1  0.43358600  0.70211300  0.59146100  1
  O  O5  1  0.58533400  0.20085800  0.56827200  1
  O  O6  1  0.41466700  0.70085800  0.43172700  1
  O  O7  1  0.45700900  0.05086600  0.58992100  1
  O  O8  1  0.54299200  0.55086600  0.41007800  1
  O  O9  1  0.45951800  0.36415500  0.50634500  1
  O  O10  1  0.54048200  0.86415500  0.49365400  1
  O  O11  1  0.95311600  0.05738100  0.09083200  1
  O  O12  1  0.04688500  0.55738100  0.90916800  1
  O  O13  1  0.92040600  0.40302500  0.92820000  1
  O  O14  1  0.07959400  0.90302500  0.07180000  1
  O  O15  1  0.93888600  0.39884800  0.08925100  1
  O  O16  1  0.06111400  0.89884800  0.91074900  1
  O  O17  1  0.06615500  0.56134800  0.07978400  1
  O  O18  1  0.93384500  0.06134800  0.92021500  1
  O  O19  1  0.04173800  0.23700400  0.99519300  1
  O  O20  1  0.95826200  0.73700400  0.00480600  1
