# generated using pymatgen
data_ZnH12C20NClO4
_symmetry_space_group_name_H-M   'P 1'
_cell_length_a   8.55500500
_cell_length_b   11.09575900
_cell_length_c   14.19797500
_cell_angle_alpha   90.57070100
_cell_angle_beta   92.67846700
_cell_angle_gamma   80.62170800
_symmetry_Int_Tables_number   1
_chemical_formula_structural   ZnH12C20NClO4
_chemical_formula_sum   'Zn2 H24 C40 N2 Cl2 O8'
_cell_volume   1328.26216563
_cell_formula_units_Z   2
loop_
 _symmetry_equiv_pos_site_id
 _symmetry_equiv_pos_as_xyz
  1  'x, y, z'
loop_
 _atom_site_type_symbol
 _atom_site_label
 _atom_site_symmetry_multiplicity
 _atom_site_fract_x
 _atom_site_fract_y
 _atom_site_fract_z
 _atom_site_occupancy
  Zn  Zn1  1  0.50115800  0.46857000  0.89358200  1
  Zn  Zn2  1  0.50830000  0.49888600  0.10249800  1
  H  H1  1  0.00668600  0.56630200  0.95419200  1
  H  H2  1  0.65697800  0.87424700  0.00459600  1
  H  H3  1  0.00139400  0.40288800  0.03326000  1
  H  H4  1  0.35348600  0.09239500  0.99673400  1
  H  H5  1  0.28800000  0.89586600  0.99073600  1
  H  H6  1  0.72198200  0.07118200  0.00942400  1
  H  H7  1  0.67906600  0.35116300  0.41760200  1
  H  H8  1  0.65934100  0.30788600  0.56887200  1
  H  H9  1  0.61699700  0.63364800  0.60753800  1
  H  H10  1  0.74593600  0.49527600  0.57551200  1
  H  H11  1  0.71808100  0.57540100  0.42686200  1
  H  H12  1  0.54741900  0.68354100  0.46058100  1
  H  H13  1  0.24112800  0.51322400  0.58566800  1
  H  H14  1  0.33518400  0.64050700  0.57328500  1
  H  H15  1  0.45616200  0.29262800  0.55384200  1
  H  H16  1  0.48498700  0.31266900  0.39518000  1
  H  H17  1  0.01677800  0.40916400  0.19851600  1
  H  H18  1  0.94791200  0.24145900  0.29085000  1
  H  H19  1  0.04670500  0.21354700  0.45548800  1
  H  H20  1  0.20991300  0.34646000  0.52698800  1
  H  H21  1  0.21969700  0.94528300  0.30914900  1
  H  H22  1  0.96361200  0.98629900  0.38268500  1
  H  H23  1  0.87580800  0.82628500  0.47547100  1
  H  H24  1  0.04348400  0.62966500  0.49667200  1
  C  C1  1  0.09601600  0.73131600  0.97787200  1
  C  C2  1  0.97657600  0.66264700  0.96725300  1
  C  C3  1  0.82169200  0.71358100  0.98096300  1
  C  C4  1  0.77982900  0.83596400  0.99536200  1
  C  C5  1  0.89375900  0.90908400  0.99630400  1
  C  C6  1  0.05272200  0.85729300  0.99080400  1
  C  C7  1  0.84620100  0.03372200  0.00489900  1
  C  C8  1  0.95711900  0.10989900  0.00835300  1
  C  C9  1  0.11624100  0.05801200  0.00362600  1
  C  C10  1  0.16382200  0.93330900  0.99551100  1
  C  C11  1  0.91337100  0.23635000  0.01809600  1
  C  C12  1  0.03225600  0.30573200  0.02513400  1
  C  C13  1  0.18776400  0.25403700  0.01495300  1
  C  C14  1  0.23029200  0.13105200  0.00428400  1
  C  C15  1  0.30666300  0.33111100  0.00889100  1
  C  C16  1  0.26020200  0.66163600  0.98330300  1
  C  C17  1  0.70300200  0.63623900  0.98711100  1
  C  C18  1  0.74911000  0.30573600  0.01274200  1
  C  C19  1  0.54210700  0.35358700  0.54010900  1
  C  C20  1  0.62653200  0.55027100  0.56303900  1
  C  C21  1  0.60199700  0.58643900  0.46030100  1
  C  C22  1  0.50016200  0.47641100  0.58671700  1
  C  C23  1  0.55302800  0.37425600  0.43581700  1
  C  C24  1  0.49333300  0.50752700  0.40959300  1
  C  C25  1  0.32319700  0.54521200  0.44227500  1
  C  C26  1  0.33961900  0.54422400  0.55036600  1
  C  C27  1  0.50354200  0.51158900  0.30702200  1
  C  C28  1  0.49849000  0.46248100  0.68904600  1
  C  C29  1  0.21942700  0.45662800  0.40198900  1
  C  C30  1  0.16015300  0.47189600  0.30919400  1
  C  C31  1  0.06338200  0.39492900  0.27014700  1
  C  C32  1  0.02395000  0.30140000  0.32193300  1
  C  C33  1  0.07940800  0.28592600  0.41398000  1
  C  C34  1  0.17497000  0.36298300  0.45421800  1
  C  C35  1  0.23508100  0.67265100  0.41808300  1
  C  C36  1  0.28180300  0.76424300  0.36256200  1
  C  C37  1  0.18319100  0.87546800  0.35170900  1
  C  C38  1  0.03901400  0.89878400  0.39249400  1
  C  C39  1  0.99017300  0.80948300  0.44420300  1
  C  C40  1  0.08663300  0.69826900  0.45621200  1
  N  N1  1  0.51231800  0.51227900  0.22586200  1
  N  N2  1  0.49689900  0.45539900  0.77024300  1
  Cl  Cl1  1  0.19853700  0.59180600  0.23908700  1
  Cl  Cl2  1  0.45404800  0.75198500  0.29835400  1
  O  O1  1  0.35362400  0.38087100  0.08659700  1
  O  O2  1  0.35489000  0.35144900  0.92525700  1
  O  O3  1  0.31465200  0.60386400  0.90689900  1
  O  O4  1  0.32516100  0.63227800  0.06773400  1
  O  O5  1  0.65589000  0.58653600  0.90946400  1
  O  O6  1  0.65461200  0.61598400  0.07077200  1
  O  O7  1  0.69478700  0.36354400  0.08924200  1
  O  O8  1  0.68428600  0.33514900  0.92826000  1
