# generated using pymatgen
data_CuH3C13I3NO4
_symmetry_space_group_name_H-M   'P 1'
_cell_length_a   16.04205600
_cell_length_b   14.61647600
_cell_length_c   11.08731000
_cell_angle_alpha   90.00000000
_cell_angle_beta   89.99095600
_cell_angle_gamma   90.00000000
_symmetry_Int_Tables_number   1
_chemical_formula_structural   CuH3C13I3NO4
_chemical_formula_sum   'Cu2 H6 C26 I6 N2 O8'
_cell_volume   2599.73386196
_cell_formula_units_Z   2
loop_
 _symmetry_equiv_pos_site_id
 _symmetry_equiv_pos_as_xyz
  1  'x, y, z'
loop_
 _atom_site_type_symbol
 _atom_site_label
 _atom_site_symmetry_multiplicity
 _atom_site_fract_x
 _atom_site_fract_y
 _atom_site_fract_z
 _atom_site_occupancy
  Cu  Cu1  1  0.50312800  0.59149000  0.50066700  1
  Cu  Cu2  1  0.50319400  0.40852200  0.49998900  1
  H  H1  1  0.53484800  0.55820600  0.90537500  1
  H  H2  1  0.52446000  0.56352600  0.09558900  1
  H  H3  1  0.59587000  0.08440400  0.63779600  1
  H  H4  1  0.41074000  0.08390500  0.36226500  1
  H  H5  1  0.59592800  0.91610600  0.63825400  1
  H  H6  1  0.41079800  0.91561000  0.36272400  1
  C  C1  1  0.34318800  0.50023900  0.50143400  1
  C  C2  1  0.66315800  0.49969500  0.49918500  1
  C  C3  1  0.50004300  0.50003100  0.26831200  1
  C  C4  1  0.50187900  0.49974100  0.73233300  1
  C  C5  1  0.46454800  0.43725700  0.93307100  1
  C  C6  1  0.46557000  0.43583700  0.06666500  1
  C  C7  1  0.50294700  0.50091400  0.86497600  1
  C  C8  1  0.49930100  0.50217300  0.13559100  1
  C  C9  1  0.96013900  0.58161000  0.49994400  1
  C  C10  1  0.04609900  0.58168700  0.50047500  1
  C  C11  1  0.91720000  0.49986500  0.49968000  1
  C  C12  1  0.08915500  0.50002100  0.50077400  1
  C  C13  1  0.96026100  0.41819600  0.49995700  1
  C  C14  1  0.04622200  0.41827500  0.50048900  1
  C  C15  1  0.82773600  0.49979600  0.49929200  1
  C  C16  1  0.17861800  0.50010800  0.50121600  1
  C  C17  1  0.25373900  0.50017800  0.50144100  1
  C  C18  1  0.75261300  0.49975000  0.49912100  1
  C  C19  1  0.55524300  0.95297000  0.57761000  1
  C  C20  1  0.45146600  0.95269500  0.42315800  1
  C  C21  1  0.50336300  0.90565800  0.50052100  1
  C  C22  1  0.45143600  0.04704000  0.42289600  1
  C  C23  1  0.55521300  0.04731700  0.57734700  1
  C  C24  1  0.50330800  0.09435400  0.49999300  1
  C  C25  1  0.50337100  0.80747900  0.50077400  1
  C  C26  1  0.50323900  0.19253200  0.49979900  1
  I  I1  1  0.38975400  0.33275800  0.85649800  1
  I  I2  1  0.39814900  0.32438900  0.14074300  1
  I  I3  1  0.11147700  0.70648600  0.50078500  1
  I  I4  1  0.89458700  0.70629800  0.49957900  1
  I  I5  1  0.89490100  0.29338400  0.49961200  1
  I  I6  1  0.11178500  0.29359100  0.50081800  1
  N  N1  1  0.50319200  0.27169100  0.49971200  1
  N  N2  1  0.50334400  0.72832100  0.50090200  1
  O  O1  1  0.38197900  0.57897900  0.50591200  1
  O  O2  1  0.62425100  0.57827100  0.50383200  1
  O  O3  1  0.38205500  0.42154700  0.49657600  1
  O  O4  1  0.62433800  0.42107100  0.49496100  1
  O  O5  1  0.49934700  0.57858200  0.32539000  1
  O  O6  1  0.50080800  0.57857900  0.67599200  1
  O  O7  1  0.50536800  0.42153600  0.32465800  1
  O  O8  1  0.50653300  0.42145800  0.67529700  1
