# generated using pymatgen
data_Cu3H20C44(NO3)4
_symmetry_space_group_name_H-M   'P 1'
_cell_length_a   29.78967700
_cell_length_b   29.78967700
_cell_length_c   28.72558100
_cell_angle_alpha   90.00000000
_cell_angle_beta   90.00000000
_cell_angle_gamma   90.00000000
_symmetry_Int_Tables_number   1
_chemical_formula_structural   Cu3H20C44(NO3)4
_chemical_formula_sum   'Cu12 H80 C176 N16 O48'
_cell_volume   25491.79457567
_cell_formula_units_Z   4
loop_
 _symmetry_equiv_pos_site_id
 _symmetry_equiv_pos_as_xyz
  1  'x, y, z'
loop_
 _atom_site_type_symbol
 _atom_site_label
 _atom_site_symmetry_multiplicity
 _atom_site_fract_x
 _atom_site_fract_y
 _atom_site_fract_z
 _atom_site_occupancy
  Cu  Cu1  1  0.54376800  0.00000000  0.00000000  1
  Cu  Cu2  1  0.00000000  0.54376800  0.00000000  1
  Cu  Cu3  1  0.45623200  0.00000000  0.00000000  1
  Cu  Cu4  1  0.00000000  0.45623200  0.00000000  1
  Cu  Cu5  1  0.04376900  0.50000000  0.50000000  1
  Cu  Cu6  1  0.50000000  0.04376800  0.50000000  1
  Cu  Cu7  1  0.95623200  0.50000000  0.50000000  1
  Cu  Cu8  1  0.50000000  0.95623200  0.50000000  1
  Cu  Cu9  1  0.50000000  0.50000000  0.04528500  1
  Cu  Cu10  1  0.50000000  0.50000000  0.95471500  1
  Cu  Cu11  1  0.00000000  0.00000000  0.54528500  1
  Cu  Cu12  1  0.00000000  0.00000000  0.45471500  1
  H  H1  1  0.44878600  0.63835400  0.94895200  1
  H  H2  1  0.36164600  0.44878600  0.94895200  1
  H  H3  1  0.55121400  0.36164600  0.94895200  1
  H  H4  1  0.63835400  0.55121400  0.94895200  1
  H  H5  1  0.55121400  0.63835400  0.05104800  1
  H  H6  1  0.63835400  0.44878600  0.05104800  1
  H  H7  1  0.44878600  0.36164600  0.05104800  1
  H  H8  1  0.36164600  0.55121400  0.05104800  1
  H  H9  1  0.94878600  0.13835400  0.44895200  1
  H  H10  1  0.86164600  0.94878600  0.44895200  1
  H  H11  1  0.05121400  0.86164600  0.44895200  1
  H  H12  1  0.13835400  0.05121400  0.44895200  1
  H  H13  1  0.05121400  0.13835400  0.55104800  1
  H  H14  1  0.13835400  0.94878600  0.55104800  1
  H  H15  1  0.94878600  0.86164600  0.55104800  1
  H  H16  1  0.86164600  0.05121400  0.55104800  1
  H  H17  1  0.58349000  0.79207300  0.07616200  1
  H  H18  1  0.20792700  0.58349000  0.07616200  1
  H  H19  1  0.41651000  0.20792700  0.07616200  1
  H  H20  1  0.79207300  0.41651000  0.07616200  1
  H  H21  1  0.41651000  0.79207300  0.92383800  1
  H  H22  1  0.79207300  0.58349000  0.92383800  1
  H  H23  1  0.58349000  0.20792700  0.92383800  1
  H  H24  1  0.20792700  0.41651000  0.92383800  1
  H  H25  1  0.08349000  0.29207300  0.57616200  1
  H  H26  1  0.70792700  0.08349000  0.57616200  1
  H  H27  1  0.91651000  0.70792700  0.57616200  1
  H  H28  1  0.29207300  0.91651000  0.57616200  1
  H  H29  1  0.91651000  0.29207300  0.42383800  1
  H  H30  1  0.29207300  0.08349000  0.42383800  1
  H  H31  1  0.08349000  0.70792700  0.42383800  1
  H  H32  1  0.70792700  0.91651000  0.42383800  1
  H  H33  1  0.55438100  0.86048600  0.04828100  1
  H  H34  1  0.13951500  0.55438100  0.04828100  1
  H  H35  1  0.44561900  0.13951400  0.04828100  1
  H  H36  1  0.86048600  0.44561900  0.04828100  1
  H  H37  1  0.44561900  0.86048600  0.95171900  1
  H  H38  1  0.86048600  0.55438100  0.95171900  1
  H  H39  1  0.55438100  0.13951400  0.95171900  1
  H  H40  1  0.13951400  0.44561900  0.95171900  1
  H  H41  1  0.05438100  0.36048600  0.54828100  1
  H  H42  1  0.63951500  0.05438100  0.54828100  1
  H  H43  1  0.94561900  0.63951400  0.54828100  1
  H  H44  1  0.36048600  0.94561900  0.54828100  1
  H  H45  1  0.94561900  0.36048600  0.45171900  1
  H  H46  1  0.36048600  0.05438100  0.45171900  1
  H  H47  1  0.05438100  0.63951400  0.45171900  1
  H  H48  1  0.63951500  0.94561900  0.45171900  1
  H  H49  1  0.61463000  0.68840900  0.06284600  1
  H  H50  1  0.60831600  0.72701500  0.10510900  1
  H  H51  1  0.31159100  0.61463000  0.06284600  1
  H  H52  1  0.27298600  0.60831600  0.10510900  1
  H  H53  1  0.38537000  0.31159100  0.06284600  1
  H  H54  1  0.39168400  0.27298500  0.10510900  1
  H  H55  1  0.68841000  0.38537000  0.06284600  1
  H  H56  1  0.72701500  0.39168400  0.10510900  1
  H  H57  1  0.38537000  0.68840900  0.93715400  1
  H  H58  1  0.39168400  0.72701500  0.89489100  1
  H  H59  1  0.68840900  0.61463000  0.93715400  1
  H  H60  1  0.72701500  0.60831600  0.89489100  1
  H  H61  1  0.61463000  0.31159100  0.93715400  1
  H  H62  1  0.60831600  0.27298500  0.89489100  1
  H  H63  1  0.31159100  0.38537000  0.93715400  1
  H  H64  1  0.27298600  0.39168400  0.89489100  1
  H  H65  1  0.11463000  0.18840900  0.56284600  1
  H  H66  1  0.10831600  0.22701500  0.60510900  1
  H  H67  1  0.81159100  0.11463000  0.56284600  1
  H  H68  1  0.77298600  0.10831600  0.60510900  1
  H  H69  1  0.88537000  0.81159100  0.56284600  1
  H  H70  1  0.89168400  0.77298500  0.60510900  1
  H  H71  1  0.18841000  0.88537000  0.56284600  1
  H  H72  1  0.22701500  0.89168400  0.60510900  1
  H  H73  1  0.88537000  0.18840900  0.43715400  1
  H  H74  1  0.89168400  0.22701500  0.39489100  1
  H  H75  1  0.18841000  0.11463000  0.43715400  1
  H  H76  1  0.22701500  0.10831600  0.39489100  1
  H  H77  1  0.11463000  0.81159100  0.43715400  1
  H  H78  1  0.10831600  0.77298500  0.39489100  1
  H  H79  1  0.81159100  0.88537000  0.43715400  1
  H  H80  1  0.77298600  0.89168400  0.39489100  1
  C  C1  1  0.50000000  0.91505900  0.00000000  1
  C  C2  1  0.08494100  0.50000000  0.00000000  1
  C  C3  1  0.50000000  0.08494100  0.00000000  1
  C  C4  1  0.91505900  0.50000000  0.00000000  1
  C  C5  1  0.00000000  0.41505900  0.50000000  1
  C  C6  1  0.58494100  0.00000000  0.50000000  1
  C  C7  1  0.00000000  0.58494100  0.50000000  1
  C  C8  1  0.41505900  0.00000000  0.50000000  1
  C  C9  1  0.50000000  0.00000000  0.08801500  1
  C  C10  1  0.00000000  0.50000000  0.08801500  1
  C  C11  1  0.50000000  0.00000000  0.91198500  1
  C  C12  1  0.00000000  0.50000000  0.91198500  1
  C  C13  1  0.00000000  0.50000000  0.58801500  1
  C  C14  1  0.50000000  0.00000000  0.58801500  1
  C  C15  1  0.00000000  0.50000000  0.41198500  1
  C  C16  1  0.50000000  0.00000000  0.41198500  1
  C  C17  1  0.50000000  0.00000000  0.13794300  1
  C  C18  1  0.00000000  0.50000000  0.13794400  1
  C  C19  1  0.50000000  0.00000000  0.86205700  1
  C  C20  1  0.00000000  0.50000000  0.86205700  1
  C  C21  1  0.00000000  0.50000000  0.63794400  1
  C  C22  1  0.50000000  0.00000000  0.63794300  1
  C  C23  1  0.00000000  0.50000000  0.36205700  1
  C  C24  1  0.50000000  0.00000000  0.36205700  1
  C  C25  1  0.50000000  0.00000000  0.17988400  1
  C  C26  1  0.00000000  0.50000000  0.17988400  1
  C  C27  1  0.50000000  0.00000000  0.82011600  1
  C  C28  1  0.00000000  0.50000000  0.82011700  1
  C  C29  1  0.00000000  0.50000000  0.67988400  1
  C  C30  1  0.50000000  0.00000000  0.67988400  1
  C  C31  1  0.00000000  0.50000000  0.32011700  1
  C  C32  1  0.50000000  0.00000000  0.32011600  1
  C  C33  1  0.50000000  0.00000000  0.22902800  1
  C  C34  1  0.00000000  0.50000000  0.22902800  1
  C  C35  1  0.50000000  0.00000000  0.77097200  1
  C  C36  1  0.00000000  0.50000000  0.77097200  1
  C  C37  1  0.00000000  0.50000000  0.72902800  1
  C  C38  1  0.50000000  0.00000000  0.72902800  1
  C  C39  1  0.00000000  0.50000000  0.27097200  1
  C  C40  1  0.50000000  0.00000000  0.27097200  1
  C  C41  1  0.47123800  0.65712200  0.97108900  1
  C  C42  1  0.34287800  0.47123800  0.97108900  1
  C  C43  1  0.52876200  0.34287800  0.97108900  1
  C  C44  1  0.65712200  0.52876200  0.97108900  1
  C  C45  1  0.52876200  0.65712200  0.02891100  1
  C  C46  1  0.65712200  0.47123800  0.02891100  1
  C  C47  1  0.47123800  0.34287800  0.02891100  1
  C  C48  1  0.34287800  0.52876200  0.02891100  1
  C  C49  1  0.97123800  0.15712200  0.47108900  1
  C  C50  1  0.84287900  0.97123800  0.47108900  1
  C  C51  1  0.02876200  0.84287800  0.47108900  1
  C  C52  1  0.15712200  0.02876200  0.47108900  1
  C  C53  1  0.02876200  0.15712200  0.52891100  1
  C  C54  1  0.15712200  0.97123800  0.52891100  1
  C  C55  1  0.97123800  0.84287800  0.52891100  1
  C  C56  1  0.84287800  0.02876200  0.52891100  1
  C  C57  1  0.50000000  0.63398500  0.00000000  1
  C  C58  1  0.36601500  0.50000000  0.00000000  1
  C  C59  1  0.50000000  0.36601500  0.00000000  1
  C  C60  1  0.63398500  0.50000000  0.00000000  1
  C  C61  1  0.00000000  0.13398500  0.50000000  1
  C  C62  1  0.86601500  0.00000000  0.50000000  1
  C  C63  1  0.00000000  0.86601500  0.50000000  1
  C  C64  1  0.13398500  0.00000000  0.50000000  1
  C  C65  1  0.52966700  0.70356900  0.02825100  1
  C  C66  1  0.29643100  0.52966700  0.02825100  1
  C  C67  1  0.47033300  0.29643100  0.02825100  1
  C  C68  1  0.70357000  0.47033300  0.02825100  1
  C  C69  1  0.47033300  0.70356900  0.97174900  1
  C  C70  1  0.70357000  0.52966700  0.97174900  1
  C  C71  1  0.52966700  0.29643100  0.97174900  1
  C  C72  1  0.29643100  0.47033300  0.97174900  1
  C  C73  1  0.02966700  0.20357000  0.52825100  1
  C  C74  1  0.79643100  0.02966700  0.52825100  1
  C  C75  1  0.97033300  0.79643100  0.52825100  1
  C  C76  1  0.20357000  0.97033300  0.52825100  1
  C  C77  1  0.97033300  0.20357000  0.47174900  1
  C  C78  1  0.20357000  0.02966700  0.47174900  1
  C  C79  1  0.02966700  0.79643100  0.47174900  1
  C  C80  1  0.79643100  0.97033300  0.47174900  1
  C  C81  1  0.50000000  0.72671700  0.00000000  1
  C  C82  1  0.27328300  0.50000000  0.00000000  1
  C  C83  1  0.50000000  0.27328300  0.00000000  1
  C  C84  1  0.72671700  0.50000000  0.00000000  1
  C  C85  1  0.00000000  0.22671700  0.50000000  1
  C  C86  1  0.77328300  0.00000000  0.50000000  1
  C  C87  1  0.00000000  0.77328300  0.50000000  1
  C  C88  1  0.22671700  0.00000000  0.50000000  1
  C  C89  1  0.55984700  0.72706300  0.05582700  1
  C  C90  1  0.27293700  0.55984700  0.05582700  1
  C  C91  1  0.44015300  0.27293700  0.05582700  1
  C  C92  1  0.72706400  0.44015300  0.05582700  1
  C  C93  1  0.44015300  0.72706300  0.94417300  1
  C  C94  1  0.72706400  0.55984700  0.94417300  1
  C  C95  1  0.55984700  0.27293700  0.94417300  1
  C  C96  1  0.27293700  0.44015300  0.94417300  1
  C  C97  1  0.05984700  0.22706300  0.55582700  1
  C  C98  1  0.77293700  0.05984700  0.55582700  1
  C  C99  1  0.94015300  0.77293700  0.55582700  1
  C  C100  1  0.22706400  0.94015300  0.55582700  1
  C  C101  1  0.94015300  0.22706300  0.44417300  1
  C  C102  1  0.22706400  0.05984700  0.44417300  1
  C  C103  1  0.05984700  0.77293700  0.44417300  1
  C  C104  1  0.77293700  0.94015300  0.44417300  1
  C  C105  1  0.55996200  0.77339300  0.05506500  1
  C  C106  1  0.22660700  0.55996200  0.05506500  1
  C  C107  1  0.44003800  0.22660700  0.05506500  1
  C  C108  1  0.77339300  0.44003800  0.05506500  1
  C  C109  1  0.44003800  0.77339300  0.94493500  1
  C  C110  1  0.77339300  0.55996200  0.94493500  1
  C  C111  1  0.55996200  0.22660700  0.94493500  1
  C  C112  1  0.22660700  0.44003800  0.94493500  1
  C  C113  1  0.05996200  0.27339300  0.55506500  1
  C  C114  1  0.72660700  0.05996200  0.55506500  1
  C  C115  1  0.94003800  0.72660700  0.55506500  1
  C  C116  1  0.27339300  0.94003800  0.55506500  1
  C  C117  1  0.94003800  0.27339300  0.44493500  1
  C  C118  1  0.27339300  0.05996200  0.44493500  1
  C  C119  1  0.05996200  0.72660700  0.44493500  1
  C  C120  1  0.72660700  0.94003800  0.44493500  1
  C  C121  1  0.53012100  0.79631800  0.02725600  1
  C  C122  1  0.20368200  0.53012100  0.02725600  1
  C  C123  1  0.46987900  0.20368200  0.02725600  1
  C  C124  1  0.79631900  0.46987900  0.02725600  1
  C  C125  1  0.46987900  0.79631800  0.97274400  1
  C  C126  1  0.79631900  0.53012100  0.97274400  1
  C  C127  1  0.53012100  0.20368200  0.97274400  1
  C  C128  1  0.20368200  0.46987900  0.97274400  1
  C  C129  1  0.03012100  0.29631800  0.52725600  1
  C  C130  1  0.70368200  0.03012100  0.52725600  1
  C  C131  1  0.96987900  0.70368200  0.52725600  1
  C  C132  1  0.29631900  0.96987900  0.52725600  1
  C  C133  1  0.96987900  0.29631800  0.47274400  1
  C  C134  1  0.29631900  0.03012100  0.47274400  1
  C  C135  1  0.03012100  0.70368200  0.47274400  1
  C  C136  1  0.70368200  0.96987900  0.47274400  1
  C  C137  1  0.50000000  0.77307300  0.00000000  1
  C  C138  1  0.22692700  0.50000000  0.00000000  1
  C  C139  1  0.50000000  0.22692700  0.00000000  1
  C  C140  1  0.77307400  0.50000000  0.00000000  1
  C  C141  1  0.00000000  0.27307400  0.50000000  1
  C  C142  1  0.72692700  0.00000000  0.50000000  1
  C  C143  1  0.00000000  0.72692700  0.50000000  1
  C  C144  1  0.27307400  0.00000000  0.50000000  1
  C  C145  1  0.53058100  0.84262600  0.02677700  1
  C  C146  1  0.15737500  0.53058100  0.02677700  1
  C  C147  1  0.46941900  0.15737400  0.02677700  1
  C  C148  1  0.84262600  0.46941900  0.02677700  1
  C  C149  1  0.46941900  0.84262500  0.97322300  1
  C  C150  1  0.84262600  0.53058100  0.97322300  1
  C  C151  1  0.53058100  0.15737400  0.97322300  1
  C  C152  1  0.15737500  0.46941900  0.97322300  1
  C  C153  1  0.03058100  0.34262600  0.52677700  1
  C  C154  1  0.65737500  0.03058100  0.52677700  1
  C  C155  1  0.96941900  0.65737500  0.52677700  1
  C  C156  1  0.34262600  0.96941900  0.52677700  1
  C  C157  1  0.96941900  0.34262600  0.47322300  1
  C  C158  1  0.34262600  0.03058100  0.47322300  1
  C  C159  1  0.03058100  0.65737500  0.47322300  1
  C  C160  1  0.65737500  0.96941900  0.47322300  1
  C  C161  1  0.50000000  0.86594200  0.00000000  1
  C  C162  1  0.13405800  0.50000000  0.00000000  1
  C  C163  1  0.50000000  0.13405700  0.00000000  1
  C  C164  1  0.86594300  0.50000000  0.00000000  1
  C  C165  1  0.00000000  0.36594300  0.50000000  1
  C  C166  1  0.63405800  0.00000000  0.50000000  1
  C  C167  1  0.00000000  0.63405800  0.50000000  1
  C  C168  1  0.36594300  0.00000000  0.50000000  1
  C  C169  1  0.41511100  0.50000000  0.00000000  1
  C  C170  1  0.50000000  0.41511100  0.00000000  1
  C  C171  1  0.58488900  0.50000000  0.00000000  1
  C  C172  1  0.50000000  0.58488900  0.00000000  1
  C  C173  1  0.91511100  0.00000000  0.50000000  1
  C  C174  1  0.00000000  0.91511100  0.50000000  1
  C  C175  1  0.08488900  0.00000000  0.50000000  1
  C  C176  1  0.00000000  0.08488900  0.50000000  1
  N  N1  1  0.59113400  0.70374100  0.08464900  1
  N  N2  1  0.29625900  0.59113400  0.08464900  1
  N  N3  1  0.40886600  0.29625900  0.08464900  1
  N  N4  1  0.70374100  0.40886600  0.08464900  1
  N  N5  1  0.40886600  0.70374100  0.91535100  1
  N  N6  1  0.70374100  0.59113400  0.91535100  1
  N  N7  1  0.59113400  0.29625900  0.91535100  1
  N  N8  1  0.29625900  0.40886600  0.91535100  1
  N  N9  1  0.09113400  0.20374100  0.58464900  1
  N  N10  1  0.79625900  0.09113400  0.58464900  1
  N  N11  1  0.90886600  0.79625900  0.58464900  1
  N  N12  1  0.20374100  0.90886600  0.58464900  1
  N  N13  1  0.90886600  0.20374100  0.41535100  1
  N  N14  1  0.20374100  0.09113400  0.41535100  1
  N  N15  1  0.09113400  0.79625900  0.41535100  1
  N  N16  1  0.79625900  0.90886600  0.41535100  1
  O  O1  1  0.53689100  0.93610600  0.01336200  1
  O  O2  1  0.06389400  0.53689000  0.01336200  1
  O  O3  1  0.46311000  0.06389400  0.01336200  1
  O  O4  1  0.93610600  0.46311000  0.01336200  1
  O  O5  1  0.46311000  0.93610600  0.98663800  1
  O  O6  1  0.93610600  0.53689000  0.98663800  1
  O  O7  1  0.53689100  0.06389400  0.98663800  1
  O  O8  1  0.06389400  0.46311000  0.98663800  1
  O  O9  1  0.03689100  0.43610600  0.51336200  1
  O  O10  1  0.56389400  0.03689000  0.51336200  1
  O  O11  1  0.96311000  0.56389400  0.51336200  1
  O  O12  1  0.43610600  0.96311000  0.51336200  1
  O  O13  1  0.96311000  0.43610600  0.48663800  1
  O  O14  1  0.43610600  0.03689000  0.48663800  1
  O  O15  1  0.03689100  0.56389400  0.48663800  1
  O  O16  1  0.56389400  0.96311000  0.48663800  1
  O  O17  1  0.53693300  0.01284800  0.06630600  1
  O  O18  1  0.98715200  0.53693200  0.06630600  1
  O  O19  1  0.46306800  0.98715200  0.06630600  1
  O  O20  1  0.01284800  0.46306800  0.06630600  1
  O  O21  1  0.46306800  0.01284800  0.93369400  1
  O  O22  1  0.01284800  0.53693200  0.93369400  1
  O  O23  1  0.53693300  0.98715200  0.93369400  1
  O  O24  1  0.98715200  0.46306800  0.93369400  1
  O  O25  1  0.03693300  0.51284800  0.56630600  1
  O  O26  1  0.48715200  0.03693200  0.56630600  1
  O  O27  1  0.96306800  0.48715200  0.56630600  1
  O  O28  1  0.51284800  0.96306800  0.56630600  1
  O  O29  1  0.96306800  0.51284800  0.43369400  1
  O  O30  1  0.51284800  0.03693200  0.43369400  1
  O  O31  1  0.03693300  0.48715200  0.43369400  1
  O  O32  1  0.48715200  0.96306800  0.43369400  1
  O  O33  1  0.43615100  0.51339600  0.03809900  1
  O  O34  1  0.48660400  0.43615000  0.03809900  1
  O  O35  1  0.56385000  0.48660400  0.03809900  1
  O  O36  1  0.51339600  0.56385000  0.03809900  1
  O  O37  1  0.56385000  0.51339600  0.96190100  1
  O  O38  1  0.51339600  0.43615000  0.96190100  1
  O  O39  1  0.43615000  0.48660400  0.96190100  1
  O  O40  1  0.48660400  0.56385000  0.96190100  1
  O  O41  1  0.93615100  0.01339600  0.53809900  1
  O  O42  1  0.98660400  0.93615000  0.53809900  1
  O  O43  1  0.06385000  0.98660400  0.53809900  1
  O  O44  1  0.01339600  0.06385000  0.53809900  1
  O  O45  1  0.06385000  0.01339600  0.46190100  1
  O  O46  1  0.01339600  0.93615000  0.46190100  1
  O  O47  1  0.93615100  0.98660400  0.46190100  1
  O  O48  1  0.98660400  0.06385000  0.46190100  1
