# generated using pymatgen
data_Zn2H28C47(NO4)2
_symmetry_space_group_name_H-M   'P 1'
_cell_length_a   13.43083000
_cell_length_b   8.53858100
_cell_length_c   19.36354000
_cell_angle_alpha   90.00000000
_cell_angle_beta   91.04016300
_cell_angle_gamma   90.00000000
_symmetry_Int_Tables_number   1
_chemical_formula_structural   Zn2H28C47(NO4)2
_chemical_formula_sum   'Zn2 H28 C47 N2 O8'
_cell_volume   2220.24929561
_cell_formula_units_Z   1
loop_
 _symmetry_equiv_pos_site_id
 _symmetry_equiv_pos_as_xyz
  1  'x, y, z'
loop_
 _atom_site_type_symbol
 _atom_site_label
 _atom_site_symmetry_multiplicity
 _atom_site_fract_x
 _atom_site_fract_y
 _atom_site_fract_z
 _atom_site_occupancy
  Zn  Zn1  1  0.88738400  0.48953400  0.39278200  1
  Zn  Zn2  1  0.10951400  0.49026900  0.39543600  1
  H  H1  1  0.03937400  0.98909700  0.44578500  1
  H  H2  1  0.95671400  0.24117300  0.62322900  1
  H  H3  1  0.97138900  0.73764500  0.62582400  1
  H  H4  1  0.04974400  0.76217300  0.93613500  1
  H  H5  1  0.92466600  0.22007100  0.94231500  1
  H  H6  1  0.07122200  0.76405000  0.06064900  1
  H  H7  1  0.93480300  0.21821700  0.06687100  1
  H  H8  1  0.02187200  0.24131600  0.16164300  1
  H  H9  1  0.00523500  0.73741700  0.16078400  1
  H  H10  1  0.97529100  0.99016300  0.34581800  1
  H  H11  1  0.03610200  0.22287600  0.84654200  1
  H  H12  1  0.91597100  0.76153000  0.84880100  1
  H  H13  1  0.03306700  0.22191900  0.72217200  1
  H  H14  1  0.90123100  0.76389200  0.72392700  1
  H  H15  1  0.73868600  0.47328700  0.28257400  1
  H  H16  1  0.57975200  0.45882200  0.22438700  1
  H  H17  1  0.39794800  0.45422300  0.22762300  1
  H  H18  1  0.43260400  0.54029600  0.50666800  1
  H  H19  1  0.58142700  0.49422700  0.50745300  1
  H  H20  1  0.24730000  0.46632000  0.29098400  1
  H  H21  1  0.75671400  0.49638400  0.49898400  1
  H  H22  1  0.29546300  0.47679400  0.56701600  1
  H  H23  1  0.17449100  0.48546900  0.53319500  1
  H  H24  1  0.19594400  0.65505600  0.64877400  1
  H  H25  1  0.18813000  0.93023500  0.68480500  1
  H  H26  1  0.23253200  0.13922800  0.60361500  1
  H  H27  1  0.28436900  0.07243400  0.48620100  1
  H  H28  1  0.29225700  0.80176300  0.44917800  1
  C  C1  1  0.99706200  0.12888900  0.53036700  1
  C  C2  1  0.99700800  0.85043600  0.53074200  1
  C  C3  1  0.97217500  0.13012100  0.59908800  1
  C  C4  1  0.97650000  0.84941100  0.60029000  1
  C  C5  1  0.96976300  0.99046900  0.63608300  1
  C  C6  1  0.01599500  0.98947200  0.49838500  1
  C  C7  1  0.02483600  0.86249900  0.96514900  1
  C  C8  1  0.95708300  0.11995400  0.96843400  1
  C  C9  1  0.03621200  0.86374700  0.03614800  1
  C  C10  1  0.96450000  0.11918500  0.03948900  1
  C  C11  1  0.00500900  0.99160000  0.07425400  1
  C  C12  1  0.98584100  0.99095400  0.93111800  1
  C  C13  1  0.01212100  0.13027400  0.18723600  1
  C  C14  1  0.00657700  0.84906800  0.18677300  1
  C  C15  1  0.00055600  0.12944100  0.25782000  1
  C  C16  1  0.99899500  0.85040300  0.25771200  1
  C  C17  1  0.98920900  0.99003700  0.29156700  1
  C  C18  1  0.00939100  0.98997500  0.15054100  1
  C  C19  1  0.00558100  0.12254000  0.81951500  1
  C  C20  1  0.94063500  0.86324300  0.82062400  1
  C  C21  1  0.00225600  0.12213300  0.74838800  1
  C  C22  1  0.93320100  0.86477300  0.74940200  1
  C  C23  1  0.96573100  0.99340600  0.71231700  1
  C  C24  1  0.97672100  0.99218000  0.85581300  1
  C  C25  1  0.99679400  0.70850100  0.48858900  1
  C  C26  1  0.99741700  0.27052400  0.48813700  1
  C  C27  1  0.99946900  0.70774700  0.29944300  1
  C  C28  1  0.00054800  0.27222700  0.29942100  1
  C  C29  1  0.28920700  0.47752800  0.33887500  1
  C  C30  1  0.29382200  0.51225200  0.45864800  1
  C  C31  1  0.39608900  0.51564600  0.45816700  1
  C  C32  1  0.44745700  0.49383600  0.39790000  1
  C  C33  1  0.39249900  0.47832600  0.33744800  1
  C  C34  1  0.61043300  0.49444600  0.45615900  1
  C  C35  1  0.55147400  0.49050400  0.39654700  1
  C  C36  1  0.59871100  0.47985800  0.33389500  1
  C  C37  1  0.54310200  0.46791600  0.27346800  1
  C  C38  1  0.44050700  0.46522200  0.27529700  1
  C  C39  1  0.71231200  0.49375100  0.45192100  1
  C  C40  1  0.70185400  0.48025000  0.33165500  1
  C  C41  1  0.24836700  0.53794000  0.52786200  1
  C  C42  1  0.24518500  0.70765700  0.54712300  1
  C  C43  1  0.21565700  0.74643100  0.61287600  1
  C  C44  1  0.21120000  0.90094700  0.63319300  1
  C  C45  1  0.23607000  0.01801200  0.58773800  1
  C  C46  1  0.26520500  0.98042900  0.52193200  1
  C  C47  1  0.26981600  0.82593900  0.50136500  1
  N  N1  1  0.24038500  0.49124400  0.39898300  1
  N  N2  1  0.75679800  0.48888000  0.39045300  1
  O  O1  1  0.08184900  0.65977100  0.46488500  1
  O  O2  1  0.08272800  0.31958600  0.46457500  1
  O  O3  1  0.91091300  0.65333000  0.46634600  1
  O  O4  1  0.91152200  0.32599300  0.46630100  1
  O  O5  1  0.91377800  0.65870400  0.32289900  1
  O  O6  1  0.91458800  0.32077400  0.32283800  1
  O  O7  1  0.08607800  0.65327000  0.32163900  1
  O  O8  1  0.08694000  0.32740400  0.32148300  1
