# generated using pymatgen
data_CuH28C31(NO)4
_symmetry_space_group_name_H-M   'P 1'
_cell_length_a   14.51251200
_cell_length_b   15.05779100
_cell_length_c   15.93345000
_cell_angle_alpha   76.55086600
_cell_angle_beta   103.78176600
_cell_angle_gamma   115.11207700
_symmetry_Int_Tables_number   1
_chemical_formula_structural   CuH28C31(NO)4
_chemical_formula_sum   'Cu2 H56 C62 N8 O8'
_cell_volume   3027.58494431
_cell_formula_units_Z   2
loop_
 _symmetry_equiv_pos_site_id
 _symmetry_equiv_pos_as_xyz
  1  'x, y, z'
loop_
 _atom_site_type_symbol
 _atom_site_label
 _atom_site_symmetry_multiplicity
 _atom_site_fract_x
 _atom_site_fract_y
 _atom_site_fract_z
 _atom_site_occupancy
  Cu  Cu1  1  0.08279300  0.47734700  0.52360800  1
  Cu  Cu2  1  0.91665400  0.52280100  0.47546000  1
  H  H1  1  0.84519500  0.36294600  0.94644500  1
  H  H2  1  0.15370700  0.63712000  0.05331600  1
  H  H3  1  0.84788900  0.52303200  0.01465200  1
  H  H4  1  0.15141800  0.47685800  0.98468600  1
  H  H5  1  0.64954200  0.85634300  0.53408800  1
  H  H6  1  0.34981700  0.14354300  0.46456700  1
  H  H7  1  0.31525900  0.76080800  0.50157200  1
  H  H8  1  0.68376600  0.23844500  0.49953700  1
  H  H9  1  0.81357700  0.97790500  0.53970100  1
  H  H10  1  0.18530400  0.02134800  0.45960900  1
  H  H11  1  0.47053100  0.80272300  0.51752800  1
  H  H12  1  0.52844800  0.19700900  0.48160200  1
  H  H13  1  0.27625200  0.54350300  0.45710500  1
  H  H14  1  0.72311200  0.45475600  0.54088400  1
  H  H15  1  0.14788600  0.33890400  0.66499800  1
  H  H16  1  0.85217700  0.66280600  0.33547200  1
  H  H17  1  0.70437400  0.70603600  0.29006900  1
  H  H18  1  0.29602700  0.29500300  0.70987500  1
  H  H19  1  0.39479100  0.60878100  0.38826500  1
  H  H20  1  0.60410300  0.39078800  0.60898200  1
  H  H21  1  0.08235400  0.30020500  0.02086700  1
  H  H22  1  0.94348900  0.23969100  0.99538600  1
  H  H23  1  0.01417600  0.19408700  0.09305500  1
  H  H24  1  0.93917900  0.26906400  0.21471400  1
  H  H25  1  0.86932100  0.19601600  0.12762900  1
  H  H26  1  0.85716000  0.31057100  0.12494500  1
  H  H27  1  0.91700700  0.69950100  0.97935500  1
  H  H28  1  0.98552100  0.80574500  0.90709200  1
  H  H29  1  0.05563400  0.75937400  0.00479900  1
  H  H30  1  0.14115100  0.68811200  0.87438800  1
  H  H31  1  0.13074300  0.80296500  0.87320300  1
  H  H32  1  0.06001800  0.73158000  0.78513300  1
  H  H33  1  0.02025000  0.87199000  0.32700500  1
  H  H34  1  0.02156900  0.96658100  0.38015800  1
  H  H35  1  0.91068300  0.85143000  0.37491600  1
  H  H36  1  0.04562800  0.82125800  0.59869600  1
  H  H37  1  0.92763300  0.82735000  0.53363600  1
  H  H38  1  0.04339500  0.93899600  0.54132700  1
  H  H39  1  0.95408200  0.17916600  0.40110000  1
  H  H40  1  0.95570100  0.06089900  0.45839600  1
  H  H41  1  0.07155600  0.17191600  0.46638400  1
  H  H42  1  0.97867200  0.12707400  0.67303800  1
  H  H43  1  0.08864400  0.14879900  0.62511500  1
  H  H44  1  0.97866000  0.03339700  0.61912300  1
  H  H45  1  0.44955900  0.59192100  0.21235000  1
  H  H46  1  0.46616500  0.71692700  0.16163400  1
  H  H47  1  0.37802000  0.65244300  0.23908600  1
  H  H48  1  0.60677500  0.81827100  0.36488200  1
  H  H49  1  0.46852800  0.77911000  0.33417300  1
  H  H50  1  0.55189500  0.84907100  0.25346600  1
  H  H51  1  0.39429000  0.18184000  0.63267700  1
  H  H52  1  0.44788300  0.15082600  0.74442900  1
  H  H53  1  0.53242200  0.22101500  0.66470900  1
  H  H54  1  0.54717100  0.40714300  0.78716800  1
  H  H55  1  0.62145600  0.34955800  0.76043300  1
  H  H56  1  0.53222900  0.28220900  0.83677300  1
  C  C1  1  0.88299400  0.31331500  0.51132800  1
  C  C2  1  0.11601300  0.68619900  0.48798000  1
  C  C3  1  0.99585900  0.49641000  0.66073200  1
  C  C4  1  0.00299800  0.50296900  0.33875800  1
  C  C5  1  0.99871800  0.41731400  0.04486600  1
  C  C6  1  0.00044200  0.58243100  0.95469300  1
  C  C7  1  0.91441600  0.42563900  0.97066200  1
  C  C8  1  0.08478400  0.57417900  0.02884600  1
  C  C9  1  0.99538600  0.49634100  0.75060700  1
  C  C10  1  0.00338900  0.50305600  0.24875300  1
  C  C11  1  0.08305000  0.48755200  0.99247700  1
  C  C12  1  0.91622500  0.51225700  0.00703800  1
  C  C13  1  0.99851200  0.49809100  0.91843600  1
  C  C14  1  0.00072000  0.50167900  0.08099700  1
  C  C15  1  0.99646500  0.49680800  0.82631400  1
  C  C16  1  0.00241600  0.50269100  0.17298200  1
  C  C17  1  0.81484700  0.20663000  0.51658000  1
  C  C18  1  0.18417600  0.79282500  0.48309900  1
  C  C19  1  0.78531100  0.03574900  0.53145400  1
  C  C20  1  0.21378800  0.96369500  0.46819700  1
  C  C21  1  0.85323500  0.13345700  0.52910300  1
  C  C22  1  0.14581700  0.86600500  0.47061000  1
  C  C23  1  0.70922300  0.17951800  0.50753700  1
  C  C24  1  0.28995200  0.81997800  0.49284400  1
  C  C25  1  0.63994000  0.08057200  0.50930900  1
  C  C26  1  0.35923000  0.91897400  0.49062200  1
  C  C27  1  0.68062800  0.00977500  0.52181700  1
  C  C28  1  0.31844400  0.98974100  0.47787400  1
  C  C29  1  0.53185800  0.05032800  0.49835300  1
  C  C30  1  0.46725700  0.94931600  0.50090100  1
  C  C31  1  0.51270000  0.88128400  0.51425300  1
  C  C32  1  0.48644200  0.11843500  0.48481500  1
  C  C33  1  0.61730300  0.91150900  0.52425000  1
  C  C34  1  0.38181100  0.08814100  0.47474900  1
  C  C35  1  0.70420000  0.65013500  0.34647500  1
  C  C36  1  0.29588400  0.35070000  0.65325100  1
  C  C37  1  0.78850600  0.62576100  0.37172400  1
  C  C38  1  0.21162400  0.37542000  0.62849500  1
  C  C39  1  0.71352900  0.50963700  0.48714900  1
  C  C40  1  0.28574800  0.48975800  0.51170300  1
  C  C41  1  0.62582500  0.53271800  0.46502300  1
  C  C42  1  0.37360100  0.46731300  0.53381200  1
  C  C43  1  0.62256100  0.60410200  0.39284600  1
  C  C44  1  0.37720500  0.39627400  0.60609900  1
  C  C45  1  0.54235100  0.48695700  0.51230100  1
  C  C46  1  0.45710600  0.51330100  0.48609300  1
  C  C47  1  0.45705600  0.58477700  0.41256600  1
  C  C48  1  0.54218400  0.41522100  0.58521300  1
  C  C49  1  0.53844300  0.62954000  0.36673400  1
  C  C50  1  0.46117700  0.37049600  0.63160400  1
  C  C51  1  0.00987200  0.26147000  0.04877200  1
  C  C52  1  0.91139600  0.27260500  0.14336100  1
  C  C53  1  0.98938600  0.73811600  0.95123600  1
  C  C54  1  0.08768800  0.72692200  0.85650800  1
  C  C55  1  0.99592900  0.88561800  0.38208700  1
  C  C56  1  0.01262400  0.85851700  0.53820300  1
  C  C57  1  0.98659400  0.14131600  0.46159600  1
  C  C58  1  0.00336600  0.11409500  0.61773400  1
  C  C59  1  0.45261500  0.66341400  0.22279100  1
  C  C60  1  0.54073000  0.79175600  0.31236500  1
  C  C61  1  0.45978600  0.20835200  0.68569200  1
  C  C62  1  0.54595800  0.33660100  0.77609700  1
  N  N1  1  0.79115500  0.55498800  0.44044100  1
  N  N2  1  0.20811000  0.44476100  0.55913500  1
  N  N3  1  0.99843400  0.32488800  0.09731400  1
  N  N4  1  0.00051300  0.67476500  0.90236000  1
  N  N5  1  0.03897200  0.84144300  0.46341500  1
  N  N6  1  0.96013500  0.15817400  0.53642800  1
  N  N7  1  0.53582000  0.70145300  0.29199000  1
  N  N8  1  0.46399800  0.29846500  0.70602000  1
  O  O1  1  0.98335000  0.34014800  0.53210000  1
  O  O2  1  0.01590000  0.65949000  0.46689300  1
  O  O3  1  0.84035700  0.37850800  0.48567300  1
  O  O4  1  0.15859200  0.62118400  0.51391300  1
  O  O5  1  0.06612300  0.47433100  0.64229600  1
  O  O6  1  0.93259300  0.52489600  0.35697000  1
  O  O7  1  0.92739600  0.51992300  0.60081400  1
  O  O8  1  0.07194600  0.47996900  0.39843800  1
