# generated using pymatgen
data_Fe2H17C44N3O22
_symmetry_space_group_name_H-M   'P 1'
_cell_length_a   13.44021500
_cell_length_b   9.38944300
_cell_length_c   24.10719500
_cell_angle_alpha   84.66542500
_cell_angle_beta   80.63890100
_cell_angle_gamma   107.81504600
_symmetry_Int_Tables_number   1
_chemical_formula_structural   Fe2H17C44N3O22
_chemical_formula_sum   'Fe2 H17 C44 N3 O22'
_cell_volume   2824.60240541
_cell_formula_units_Z   1
loop_
 _symmetry_equiv_pos_site_id
 _symmetry_equiv_pos_as_xyz
  1  'x, y, z'
loop_
 _atom_site_type_symbol
 _atom_site_label
 _atom_site_symmetry_multiplicity
 _atom_site_fract_x
 _atom_site_fract_y
 _atom_site_fract_z
 _atom_site_occupancy
  Fe  Fe1  1  0.49660100  0.98553700  0.11924300  1
  Fe  Fe2  1  0.51687800  0.00637500  0.88283500  1
  H  H1  1  0.04141200  0.13933800  0.07736800  1
  H  H2  1  0.12281200  0.93854700  0.93381200  1
  H  H3  1  0.03641000  0.10856600  0.90230500  1
  H  H4  1  0.86858000  0.10122300  0.87468100  1
  H  H5  1  0.50040200  0.53967500  0.86504400  1
  H  H6  1  0.49653400  0.28931500  0.72645600  1
  H  H7  1  0.52171900  0.75707800  0.69940800  1
  H  H8  1  0.33031300  0.52826700  0.47868900  1
  H  H9  1  0.32044600  0.51375700  0.37954500  1
  H  H10  1  0.61788000  0.43174000  0.35020300  1
  H  H11  1  0.63347900  0.45678600  0.44786900  1
  H  H12  1  0.46564600  0.42177700  0.14178900  1
  H  H13  1  0.44737600  0.67061600  0.28041100  1
  H  H14  1  0.57082200  0.33690800  0.53801000  1
  H  H15  1  0.58628900  0.35526400  0.63533000  1
  H  H16  1  0.41274200  0.66937800  0.63984400  1
  H  H17  1  0.40879000  0.66512600  0.54085200  1
  C  C1  1  0.18272300  0.07987500  0.07317300  1
  C  C2  1  0.09316900  0.08785900  0.05403700  1
  C  C3  1  0.06759400  0.02755200  0.00621400  1
  C  C4  1  0.14046600  0.97844300  0.97285300  1
  C  C5  1  0.23609700  0.98260800  0.98849400  1
  C  C6  1  0.25368700  0.02362300  0.04112300  1
  C  C7  1  0.96371400  0.06985600  0.93432200  1
  C  C8  1  0.86927800  0.06951500  0.91884700  1
  C  C9  1  0.77555900  0.02315500  0.95896400  1
  C  C10  1  0.77715100  0.98188300  0.01550900  1
  C  C11  1  0.87147100  0.97677200  0.03081400  1
  C  C12  1  0.96550800  0.02200700  0.99005000  1
  C  C13  1  0.68009700  0.95122900  0.05906400  1
  C  C14  1  0.45319200  0.68859200  0.16744900  1
  C  C15  1  0.35301500  0.03120700  0.05964200  1
  C  C16  1  0.46906400  0.17254400  0.19944700  1
  C  C17  1  0.51724800  0.80231900  0.80652900  1
  C  C18  1  0.67366500  0.99922300  0.94039000  1
  C  C19  1  0.50261100  0.27146700  0.83751800  1
  C  C20  1  0.32027000  0.96190000  0.94546600  1
  C  C21  1  0.50175900  0.40175600  0.79917800  1
  C  C22  1  0.50230100  0.39506900  0.74203800  1
  C  C23  1  0.50590500  0.52122300  0.70579600  1
  C  C24  1  0.51297700  0.65507400  0.72717900  1
  C  C25  1  0.50819200  0.66007800  0.78445500  1
  C  C26  1  0.50086000  0.53299200  0.82051600  1
  C  C27  1  0.39580700  0.51112400  0.45085400  1
  C  C28  1  0.38930700  0.50173600  0.39468500  1
  C  C29  1  0.46770700  0.46978000  0.35870900  1
  C  C30  1  0.55475200  0.45321200  0.37852900  1
  C  C31  1  0.56277300  0.46604300  0.43421900  1
  C  C32  1  0.48253200  0.49273900  0.47125900  1
  C  C33  1  0.46511500  0.31989400  0.27957900  1
  C  C34  1  0.46813300  0.31102000  0.22236400  1
  C  C35  1  0.46355100  0.43100000  0.18627300  1
  C  C36  1  0.45385900  0.55968400  0.20681500  1
  C  C37  1  0.45122500  0.56885200  0.26392200  1
  C  C38  1  0.45841800  0.45064100  0.30003800  1
  C  C39  1  0.53837600  0.41392100  0.55930300  1
  C  C40  1  0.54491000  0.42146800  0.61554800  1
  C  C41  1  0.50094500  0.51393800  0.64539500  1
  C  C42  1  0.45078100  0.59906400  0.61768800  1
  C  C43  1  0.44587800  0.59351700  0.56124500  1
  C  C44  1  0.48920800  0.50042000  0.53145400  1
  N  N1  1  0.20218700  0.13444600  0.12522400  1
  N  N2  1  0.47000800  0.19603500  0.31709000  1
  N  N3  1  0.87138900  0.92234100  0.08814900  1
  O  O1  1  0.61711200  0.03239500  0.05373500  1
  O  O2  1  0.44787900  0.67448800  0.11425300  1
  O  O3  1  0.65885600  0.84977300  0.10426100  1
  O  O4  1  0.47101700  0.82265700  0.18352800  1
  O  O5  1  0.36218000  0.91240200  0.08912300  1
  O  O6  1  0.42535700  0.16405800  0.05621400  1
  O  O7  1  0.53148800  0.18190900  0.15038100  1
  O  O8  1  0.40005400  0.04180400  0.22484200  1
  O  O9  1  0.47079300  0.80070800  0.85907300  1
  O  O10  1  0.57799200  0.93055400  0.77504000  1
  O  O11  1  0.66407100  0.09125400  0.89863500  1
  O  O12  1  0.59288900  0.87658700  0.96265500  1
  O  O13  1  0.30657100  0.95851000  0.89287400  1
  O  O14  1  0.52237500  0.15516000  0.81762500  1
  O  O15  1  0.41508300  0.97278700  0.95584700  1
  O  O16  1  0.48756300  0.27315700  0.89257700  1
  O  O17  1  0.15797900  0.23081100  0.14384200  1
  O  O18  1  0.24660900  0.06901300  0.15908700  1
  O  O19  1  0.41004800  0.15618500  0.36775800  1
  O  O20  1  0.53581900  0.12391700  0.30123600  1
  O  O21  1  0.84418200  0.99245500  0.12911200  1
  O  O22  1  0.91332400  0.81734800  0.09849100  1
