# generated using pymatgen
data_ZnH12C29NO4F
_symmetry_space_group_name_H-M   'P 1'
_cell_length_a   8.53268900
_cell_length_b   11.07535700
_cell_length_c   17.47956600
_cell_angle_alpha   90.84998100
_cell_angle_beta   90.08720500
_cell_angle_gamma   102.57312800
_symmetry_Int_Tables_number   1
_chemical_formula_structural   ZnH12C29NO4F
_chemical_formula_sum   'Zn2 H24 C58 N2 O8 F2'
_cell_volume   1612.05410875
_cell_formula_units_Z   2
loop_
 _symmetry_equiv_pos_site_id
 _symmetry_equiv_pos_as_xyz
  1  'x, y, z'
loop_
 _atom_site_type_symbol
 _atom_site_label
 _atom_site_symmetry_multiplicity
 _atom_site_fract_x
 _atom_site_fract_y
 _atom_site_fract_z
 _atom_site_occupancy
  Zn  Zn1  1  0.50271500  0.50824100  0.91482200  1
  Zn  Zn2  1  0.49471000  0.49145000  0.08485500  1
  H  H1  1  0.97443100  0.41288300  0.97075800  1
  H  H2  1  0.02299300  0.58680700  0.02891900  1
  H  H3  1  0.63111000  0.08082800  0.00859500  1
  H  H4  1  0.36631500  0.91886300  0.99108300  1
  H  H5  1  0.28121300  0.11049000  0.99042900  1
  H  H6  1  0.71621200  0.88920000  0.00924900  1
  H  H7  1  0.45029800  0.32160200  0.81122000  1
  H  H8  1  0.54713200  0.67808800  0.18845700  1
  H  H9  1  0.58781600  0.81428200  0.68737000  1
  H  H10  1  0.40960000  0.18540900  0.31230700  1
  H  H11  1  0.39596400  0.08168400  0.56841600  1
  H  H12  1  0.60144600  0.91800700  0.43126100  1
  H  H13  1  0.38803800  0.07961400  0.43081600  1
  H  H14  1  0.60937200  0.92007700  0.56886100  1
  H  H15  1  0.56133000  0.70803100  0.80668500  1
  H  H16  1  0.43609100  0.29165900  0.19299300  1
  H  H17  1  0.16804100  0.11715000  0.66785300  1
  H  H18  1  0.11587400  0.92340200  0.73973500  1
  H  H19  1  0.60162700  0.00317800  0.81729600  1
  H  H20  1  0.65405300  0.19691600  0.74538800  1
  H  H21  1  0.34337900  0.80276700  0.25427900  1
  H  H22  1  0.39580800  0.99650500  0.18237000  1
  H  H23  1  0.88154700  0.07629800  0.25995200  1
  H  H24  1  0.82937600  0.88255000  0.33183400  1
  C  C1  1  0.07016900  0.25456000  0.98769000  1
  C  C2  1  0.92725500  0.74513000  0.01198800  1
  C  C3  1  0.94704900  0.31529700  0.98079100  1
  C  C4  1  0.05037500  0.68439400  0.01888600  1
  C  C5  1  0.79055000  0.25532300  0.99146000  1
  C  C6  1  0.20687400  0.74436700  0.00821800  1
  C  C7  1  0.75454500  0.12903200  0.00138400  1
  C  C8  1  0.24287900  0.87065900  0.99829400  1
  C  C9  1  0.87685000  0.06446800  0.99980200  1
  C  C10  1  0.12057400  0.93522300  0.99987600  1
  C  C11  1  0.03560600  0.12735600  0.99483600  1
  C  C12  1  0.96181800  0.87233400  0.00484100  1
  C  C13  1  0.84034100  0.93714100  0.00460700  1
  C  C14  1  0.15708300  0.06255000  0.99507100  1
  C  C15  1  0.76459800  0.66897200  0.00772700  1
  C  C16  1  0.23282600  0.33071800  0.99195100  1
  C  C17  1  0.66953200  0.33061500  0.99488300  1
  C  C18  1  0.32789300  0.66907500  0.00479500  1
  C  C19  1  0.47680700  0.40413800  0.77748100  1
  C  C20  1  0.52061900  0.59555300  0.22219600  1
  C  C21  1  0.53760000  0.62060000  0.77582400  1
  C  C22  1  0.45982100  0.37909100  0.22385300  1
  C  C23  1  0.44522000  0.28449500  0.65948500  1
  C  C24  1  0.55220300  0.71519700  0.34019200  1
  C  C25  1  0.47706200  0.39762700  0.69826500  1
  C  C26  1  0.52036100  0.60206400  0.30141200  1
  C  C27  1  0.50565900  0.50589500  0.65778700  1
  C  C28  1  0.49176200  0.49379600  0.34189000  1
  C  C29  1  0.53628500  0.61775200  0.69681600  1
  C  C30  1  0.46113500  0.38193900  0.30286100  1
  C  C31  1  0.56424400  0.72652800  0.65686600  1
  C  C32  1  0.43317400  0.27316300  0.34281200  1
  C  C33  1  0.41383300  0.16936800  0.54000000  1
  C  C34  1  0.58358000  0.83032300  0.45967800  1
  C  C35  1  0.44190200  0.28113100  0.58003700  1
  C  C36  1  0.55551600  0.71856100  0.41964100  1
  C  C37  1  0.47012700  0.39051100  0.53997200  1
  C  C38  1  0.52729300  0.60918000  0.45970500  1
  C  C39  1  0.41036600  0.16737300  0.46129700  1
  C  C40  1  0.58704700  0.83231800  0.53838100  1
  C  C41  1  0.43636000  0.27628800  0.42168200  1
  C  C42  1  0.56105700  0.72340300  0.57799600  1
  C  C43  1  0.50219300  0.50261100  0.57883000  1
  C  C44  1  0.49522700  0.49708100  0.42084700  1
  C  C45  1  0.53035400  0.61170300  0.53878800  1
  C  C46  1  0.46706400  0.38798900  0.46089000  1
  C  C47  1  0.41427900  0.16902700  0.70216800  1
  C  C48  1  0.26341200  0.09212100  0.70062100  1
  C  C49  1  0.23411800  0.98350000  0.74095200  1
  C  C50  1  0.35557700  0.95156900  0.78287400  1
  C  C51  1  0.50639600  0.02823200  0.78444000  1
  C  C52  1  0.53576400  0.13688100  0.74412800  1
  C  C53  1  0.58314500  0.83066400  0.29750900  1
  C  C54  1  0.46166600  0.86280600  0.25554300  1
  C  C55  1  0.49103500  0.97145500  0.21523100  1
  C  C56  1  0.64185100  0.04812300  0.21680300  1
  C  C57  1  0.76330500  0.01619600  0.25873100  1
  C  C58  1  0.73400900  0.90757500  0.29906200  1
  N  N1  1  0.50726900  0.51419700  0.81464400  1
  N  N2  1  0.49015500  0.48549400  0.18503300  1
  O  O1  1  0.70036000  0.61869900  0.07089000  1
  O  O2  1  0.29706400  0.38099100  0.92878700  1
  O  O3  1  0.70225300  0.63786000  0.93959200  1
  O  O4  1  0.29517100  0.36183100  0.06008500  1
  O  O5  1  0.63569800  0.38107400  0.93127800  1
  O  O6  1  0.36172600  0.61861600  0.06840000  1
  O  O7  1  0.62219200  0.36173300  0.06247800  1
  O  O8  1  0.37523200  0.63795700  0.93720000  1
  F  F1  1  0.32670100  0.84488200  0.82255000  1
  F  F2  1  0.67072900  0.15481000  0.17712700  1
