# generated using pymatgen
data_Cu2H15C20NO8
_symmetry_space_group_name_H-M   'P 1'
_cell_length_a   18.76825700
_cell_length_b   18.61167200
_cell_length_c   18.71142000
_cell_angle_alpha   109.11077500
_cell_angle_beta   109.89405100
_cell_angle_gamma   109.34867100
_symmetry_Int_Tables_number   1
_chemical_formula_structural   Cu2H15C20NO8
_chemical_formula_sum   'Cu6 H45 C60 N3 O24'
_cell_volume   5035.00860201
_cell_formula_units_Z   3
loop_
 _symmetry_equiv_pos_site_id
 _symmetry_equiv_pos_as_xyz
  1  'x, y, z'
loop_
 _atom_site_type_symbol
 _atom_site_label
 _atom_site_symmetry_multiplicity
 _atom_site_fract_x
 _atom_site_fract_y
 _atom_site_fract_z
 _atom_site_occupancy
  Cu  Cu1  1  0.49766100  0.43418300  0.43828700  1
  Cu  Cu2  1  0.50051100  0.55984600  0.56162400  1
  Cu  Cu3  1  0.93308000  0.43073100  0.99024800  1
  Cu  Cu4  1  0.05708700  0.55537100  0.99229800  1
  Cu  Cu5  1  0.05280000  0.99172900  0.55330200  1
  Cu  Cu6  1  0.93690700  0.99356200  0.42985200  1
  H  H1  1  0.74549300  0.46482200  0.60372400  1
  H  H2  1  0.82871600  0.43707600  0.69765800  1
  H  H3  1  0.89946500  0.55418600  0.76524000  1
  H  H4  1  0.74173300  0.63534600  0.78141400  1
  H  H5  1  0.86142000  0.63676300  0.86804700  1
  H  H6  1  0.59345800  0.39520700  0.68508300  1
  H  H7  1  0.64122600  0.35927200  0.62168100  1
  H  H8  1  0.72681500  0.35526100  0.73714500  1
  H  H9  1  0.69765200  0.41674400  0.80800200  1
  H  H10  1  0.66982900  0.55406800  0.79383700  1
  H  H11  1  0.79295800  0.57994600  0.90189500  1
  H  H12  1  0.35954900  0.38608300  0.64175300  1
  H  H13  1  0.24602400  0.26930100  0.63895100  1
  H  H14  1  0.15240900  0.05198800  0.32021300  1
  H  H15  1  0.08202400  0.10290200  0.29542700  1
  H  H16  1  0.26798000  0.16490800  0.32377500  1
  H  H17  1  0.19783500  0.21626800  0.29986200  1
  H  H18  1  0.34418100  0.62930400  0.39103300  1
  H  H19  1  0.23164000  0.62684600  0.27257000  1
  H  H20  1  0.08980300  0.28516500  0.08943200  1
  H  H21  1  0.16663900  0.32450300  0.04938800  1
  H  H22  1  0.20452000  0.28920000  0.20407200  1
  H  H23  1  0.28113800  0.32782400  0.16380000  1
  H  H24  1  0.63087200  0.77020700  0.51454900  1
  H  H25  1  0.74078300  0.88111800  0.50834400  1
  H  H26  1  0.84434400  0.66044900  0.39638900  1
  H  H27  1  0.91485600  0.71139300  0.51837100  1
  H  H28  1  0.73182900  0.54776600  0.39612300  1
  H  H29  1  0.80251500  0.59885500  0.51807700  1
  H  H30  1  0.05542200  0.39337000  0.76214600  1
  H  H31  1  0.05166700  0.27868900  0.64649700  1
  H  H32  1  0.84838100  0.03875200  0.68009700  1
  H  H33  1  0.95736800  0.06440600  0.76409500  1
  H  H34  1  0.84759500  0.15006100  0.79573100  1
  H  H35  1  0.13561100  0.76790500  0.24309600  1
  H  H36  1  0.81607800  0.66506900  0.25814800  1
  H  H37  1  0.79607300  0.71471300  0.18537200  1
  H  H38  1  0.81434000  0.54987800  0.14685700  1
  H  H39  1  0.79493200  0.60001900  0.07436900  1
  H  H40  1  0.76893700  0.60876600  0.64031500  1
  H  H41  1  0.86252000  0.60629400  0.67056700  1
  H  H42  1  0.03386400  0.20316100  0.90615500  1
  H  H43  1  0.96983700  0.23112400  0.94048700  1
  H  H44  1  0.20245800  0.88552600  0.40554500  1
  H  H45  1  0.18090500  0.92919000  0.34005500  1
  C  C1  1  0.38289500  0.38037600  0.50461700  1
  C  C2  1  0.62079700  0.49836900  0.61839600  1
  C  C3  1  0.61448100  0.61352700  0.49455100  1
  C  C4  1  0.37824700  0.49632800  0.38168500  1
  C  C5  1  0.76848400  0.51315100  0.67155800  1
  C  C6  1  0.83219000  0.49971800  0.73435100  1
  C  C7  1  0.72285500  0.57066700  0.77799200  1
  C  C8  1  0.65500100  0.41115000  0.68325400  1
  C  C9  1  0.69157000  0.49916200  0.68731400  1
  C  C10  1  0.80859200  0.49655300  0.80374600  1
  C  C11  1  0.80125900  0.57668100  0.84519700  1
  C  C12  1  0.72091500  0.41484600  0.76062100  1
  C  C13  1  0.25313300  0.23461900  0.43063200  1
  C  C14  1  0.31562600  0.31325600  0.50524600  1
  C  C15  1  0.31162200  0.32555400  0.58078300  1
  C  C16  1  0.24748100  0.25898300  0.57927400  1
  C  C17  1  0.18425900  0.18123600  0.50138100  1
  C  C18  1  0.18971000  0.17322200  0.42831000  1
  C  C19  1  0.14753700  0.11224200  0.33337500  1
  C  C20  1  0.22187200  0.18481600  0.33596200  1
  C  C21  1  0.25344900  0.42378200  0.23245300  1
  C  C22  1  0.31027200  0.49628300  0.31394700  1
  C  C23  1  0.30073400  0.56978900  0.32831000  1
  C  C24  1  0.23720400  0.56862900  0.26102200  1
  C  C25  1  0.18003900  0.49285600  0.18009600  1
  C  C26  1  0.19052700  0.42147600  0.16998000  1
  C  C27  1  0.15619500  0.32949400  0.10528400  1
  C  C28  1  0.22992300  0.33195900  0.17891500  1
  C  C29  1  0.74212600  0.66926900  0.47568000  1
  C  C30  1  0.67893400  0.68016800  0.49074600  1
  C  C31  1  0.67953600  0.75818200  0.50305700  1
  C  C32  1  0.74155600  0.82094100  0.49885300  1
  C  C33  1  0.80605400  0.80806800  0.48634700  1
  C  C34  1  0.80363100  0.73078300  0.47603300  1
  C  C35  1  0.84896500  0.68042400  0.46119300  1
  C  C36  1  0.77672600  0.60810800  0.46102900  1
  C  C37  1  0.99465300  0.37485800  0.87161800  1
  C  C38  1  0.87722700  0.49493900  0.87233000  1
  C  C39  1  0.99629000  0.61110100  0.11147400  1
  C  C40  1  0.11292500  0.49022900  0.10916000  1
  C  C41  1  0.99139700  0.10864700  0.60513300  1
  C  C42  1  0.11508000  0.11150400  0.49735900  1
  C  C43  1  0.99905600  0.87736300  0.37775100  1
  C  C44  1  0.87467000  0.87470200  0.48671900  1
  C  C45  1  0.95828800  0.22186500  0.78402700  1
  C  C46  1  0.99336600  0.30757900  0.80239600  1
  C  C47  1  0.02760500  0.32737700  0.75170000  1
  C  C48  1  0.02506700  0.26214300  0.68546300  1
  C  C49  1  0.99149400  0.17715500  0.67140800  1
  C  C50  1  0.95926300  0.16087700  0.72327400  1
  C  C51  1  0.91445300  0.08898300  0.73723500  1
  C  C52  1  0.91346400  0.16050000  0.80882100  1
  C  C53  1  0.92531100  0.66989200  0.18585200  1
  C  C54  1  0.99857200  0.67898500  0.18075000  1
  C  C55  1  0.07576300  0.75724500  0.24398600  1
  C  C56  1  0.07758800  0.82201800  0.31000600  1
  C  C57  1  0.00099400  0.81039100  0.31144900  1
  C  C58  1  0.92611500  0.73287900  0.24622400  1
  C  C59  1  0.83086300  0.68367300  0.21224300  1
  C  C60  1  0.82988700  0.60981600  0.14090900  1
  N  N1  1  0.81280100  0.60124300  0.68532600  1
  N  N2  1  0.97052000  0.18020100  0.89606800  1
  N  N3  1  0.15790200  0.90159300  0.37351400  1
  O  O1  1  0.41129600  0.35451700  0.45161000  1
  O  O2  1  0.41111900  0.46318000  0.55592400  1
  O  O3  1  0.59101100  0.44463600  0.53605200  1
  O  O4  1  0.59081400  0.55072300  0.64278400  1
  O  O5  1  0.58950500  0.53094800  0.44662800  1
  O  O6  1  0.58407100  0.63932100  0.54554600  1
  O  O7  1  0.40976800  0.44567200  0.35713400  1
  O  O8  1  0.40502900  0.54710500  0.46393500  1
  O  O9  1  0.93979800  0.34978700  0.89845100  1
  O  O10  1  0.04493300  0.45749000  0.89838100  1
  O  O11  1  0.85219800  0.44247100  0.90232300  1
  O  O12  1  0.95950900  0.55215000  0.90604200  1
  O  O13  1  0.93854400  0.52864100  0.07768800  1
  O  O14  1  0.04789000  0.63650100  0.08142900  1
  O  O15  1  0.03075800  0.44037500  0.08294700  1
  O  O16  1  0.13789900  0.54642700  0.08310200  1
  O  O17  1  0.02103000  0.05968700  0.62797500  1
  O  O18  1  0.96293800  0.09979600  0.52597700  1
  O  O19  1  0.13343900  0.09980000  0.56605200  1
  O  O20  1  0.03739800  0.06367200  0.42533300  1
  O  O21  1  0.06606500  0.92412900  0.45890300  1
  O  O22  1  0.92949800  0.88712400  0.35338700  1
  O  O23  1  0.95365200  0.88402400  0.52097100  1
  O  O24  1  0.85498100  0.92329400  0.45421500  1
