# generated using pymatgen
data_Zn3H19C32O13
_symmetry_space_group_name_H-M   'P 1'
_cell_length_a   18.66974500
_cell_length_b   18.87320600
_cell_length_c   18.95049200
_cell_angle_alpha   109.49798900
_cell_angle_beta   109.67876000
_cell_angle_gamma   108.84651400
_symmetry_Int_Tables_number   1
_chemical_formula_structural   Zn3H19C32O13
_chemical_formula_sum   'Zn6 H38 C64 O26'
_cell_volume   5164.62266787
_cell_formula_units_Z   2
loop_
 _symmetry_equiv_pos_site_id
 _symmetry_equiv_pos_as_xyz
  1  'x, y, z'
loop_
 _atom_site_type_symbol
 _atom_site_label
 _atom_site_symmetry_multiplicity
 _atom_site_fract_x
 _atom_site_fract_y
 _atom_site_fract_z
 _atom_site_occupancy
  Zn  Zn1  1  0.50408800  0.43513700  0.43449200  1
  Zn  Zn2  1  0.49847500  0.57090700  0.57061700  1
  Zn  Zn3  1  0.93645900  0.43560100  0.00570500  1
  Zn  Zn4  1  0.07624100  0.57125700  0.00378000  1
  Zn  Zn5  1  0.07259200  0.00034100  0.57177600  1
  Zn  Zn6  1  0.93241300  0.00129900  0.43330700  1
  H  H1  1  0.18872500  0.58100400  0.31313300  1
  H  H2  1  0.36773300  0.65102500  0.36385900  1
  H  H3  1  0.32058100  0.57436400  0.18798700  1
  H  H4  1  0.32014200  0.42683900  0.19328500  1
  H  H5  1  0.14157900  0.35685800  0.14324000  1
  H  H6  1  0.18926600  0.43361900  0.31954700  1
  H  H7  1  0.76738400  0.76205300  0.64087700  1
  H  H8  1  0.88237000  0.87146700  0.64097600  1
  H  H9  1  0.73512300  0.74420900  0.36595600  1
  H  H10  1  0.62357800  0.63146700  0.36582800  1
  H  H11  1  0.62683000  0.50488700  0.76604300  1
  H  H12  1  0.73829400  0.50195700  0.87759600  1
  H  H13  1  0.88179400  0.50499400  0.74360300  1
  H  H14  1  0.76732500  0.50177400  0.62904300  1
  H  H15  1  0.23609200  0.37609500  0.50490200  1
  H  H16  1  0.12418100  0.26052300  0.50104200  1
  H  H17  1  0.37942200  0.24071100  0.49865500  1
  H  H18  1  0.99917800  0.76319400  0.12570400  1
  H  H19  1  0.99344300  0.87249600  0.23511300  1
  H  H20  1  0.01329200  0.74358600  0.38204700  1
  H  H21  1  0.01239100  0.63105200  0.26942600  1
  H  H22  1  0.14416400  0.37557200  0.87489200  1
  H  H23  1  0.14028800  0.25972100  0.76311200  1
  H  H24  1  0.86641300  0.24195900  0.74720300  1
  H  H25  1  0.39619400  0.18574400  0.61626800  1
  H  H26  1  0.42266100  0.06520000  0.60883200  1
  H  H27  1  0.30047800  0.78376900  0.43661700  1
  H  H28  1  0.26381400  0.81752100  0.35944400  1
  H  H29  1  0.20581000  0.79742000  0.41719700  1
  H  H30  1  0.18541500  0.89524600  0.36640400  1
  H  H31  1  0.15920000  0.01464900  0.37563700  1
  H  H32  1  0.79498900  0.18796100  0.57512500  1
  H  H33  1  0.64838400  0.06834000  0.46259700  1
  H  H34  1  0.48913500  0.78692800  0.35350000  1
  H  H35  1  0.55911400  0.81985500  0.46400800  1
  H  H36  1  0.59700000  0.79966800  0.38614200  1
  H  H37  1  0.71478900  0.89649000  0.53410200  1
  H  H38  1  0.86001300  0.01498900  0.64370100  1
  C  C1  1  0.62153200  0.62243300  0.50272700  1
  C  C2  1  0.38051100  0.50352900  0.38255100  1
  C  C3  1  0.38106100  0.38358300  0.50241900  1
  C  C4  1  0.62226300  0.50266400  0.62253300  1
  C  C5  1  0.31557900  0.58425900  0.31293000  1
  C  C6  1  0.21947900  0.54595000  0.28704900  1
  C  C7  1  0.19632700  0.50404900  0.19372000  1
  C  C8  1  0.29125600  0.54239600  0.21846900  1
  C  C9  1  0.28972100  0.46186600  0.22005400  1
  C  C10  1  0.19371500  0.42360400  0.19419500  1
  C  C11  1  0.21800100  0.46552600  0.28870100  1
  C  C12  1  0.31290400  0.50376500  0.31339000  1
  C  C13  1  0.76036000  0.75794300  0.58043100  1
  C  C14  1  0.82547200  0.81897400  0.58035100  1
  C  C15  1  0.81618400  0.81489900  0.50343000  1
  C  C16  1  0.74275700  0.74819900  0.42651200  1
  C  C17  1  0.68014700  0.68451000  0.42639000  1
  C  C18  1  0.68822600  0.68994400  0.50335600  1
  C  C19  1  0.68265900  0.50467800  0.76080000  1
  C  C20  1  0.74508600  0.50234500  0.82327100  1
  C  C21  1  0.81729500  0.50351200  0.81785100  1
  C  C22  1  0.82574400  0.50473900  0.74863700  1
  C  C23  1  0.76093700  0.50224200  0.68378400  1
  C  C24  1  0.68985600  0.50334600  0.69031500  1
  C  C25  1  0.24365800  0.32132700  0.50357000  1
  C  C26  1  0.18015400  0.25568500  0.50052200  1
  C  C27  1  0.18917200  0.18571500  0.49998500  1
  C  C28  1  0.26208600  0.18090100  0.50041500  1
  C  C29  1  0.32358100  0.24526600  0.49994100  1
  C  C30  1  0.31486900  0.31556500  0.50195000  1
  C  C31  1  0.00539600  0.62288900  0.12388200  1
  C  C32  1  0.12821800  0.50386800  0.12463600  1
  C  C33  1  0.00725400  0.38392800  0.88555300  1
  C  C34  1  0.88444500  0.50308800  0.88498600  1
  C  C35  1  0.00213200  0.88147700  0.38205200  1
  C  C36  1  0.88348000  0.88147100  0.50358100  1
  C  C37  1  0.00193600  0.11957600  0.62311800  1
  C  C38  1  0.12187600  0.11954700  0.50080500  1
  C  C39  1  0.00205000  0.75872600  0.18189600  1
  C  C40  1  0.99785800  0.81966600  0.24303400  1
  C  C41  1  0.00294000  0.81502800  0.31562000  1
  C  C42  1  0.00971900  0.74795700  0.32564400  1
  C  C43  1  0.00880800  0.68440500  0.26209000  1
  C  C44  1  0.00622300  0.69035600  0.19078100  1
  C  C45  1  0.08200900  0.32112700  0.82175800  1
  C  C46  1  0.07974800  0.25534700  0.75915100  1
  C  C47  1  0.00095100  0.18583700  0.69013300  1
  C  C48  1  0.92354800  0.18158400  0.68526400  1
  C  C49  1  0.92653900  0.24604200  0.75012600  1
  C  C50  1  0.00535200  0.31587300  0.81800600  1
  C  C51  1  0.27483300  0.10760500  0.49754200  1
  C  C52  1  0.34942500  0.12157100  0.56191800  1
  C  C53  1  0.36437900  0.05378200  0.55770500  1
  C  C54  1  0.30606700  0.97163800  0.48835500  1
  C  C55  1  0.27065100  0.82278800  0.42171700  1
  C  C56  1  0.23191400  0.95793100  0.42274700  1
  C  C57  1  0.21644600  0.02569000  0.42772100  1
  C  C58  1  0.83774100  0.10882200  0.61519300  1
  C  C59  1  0.77747900  0.12357600  0.56521900  1
  C  C60  1  0.69496500  0.05630800  0.50197100  1
  C  C61  1  0.67100700  0.97390700  0.48907700  1
  C  C62  1  0.55770900  0.82540900  0.40714700  1
  C  C63  1  0.73108600  0.95940600  0.54054200  1
  C  C64  1  0.81408600  0.02664400  0.60299800  1
  O  O1  1  0.59577700  0.54205300  0.45061000  1
  O  O2  1  0.59025400  0.64497700  0.55380700  1
  O  O3  1  0.41230200  0.45277600  0.35969000  1
  O  O4  1  0.40574600  0.55457200  0.46309900  1
  O  O5  1  0.41451300  0.36126500  0.45355100  1
  O  O6  1  0.40459600  0.46392400  0.55222200  1
  O  O7  1  0.59883500  0.45365600  0.54205200  1
  O  O8  1  0.58829100  0.55122200  0.64524800  1
  O  O9  1  0.95138000  0.54256700  0.09623700  1
  O  O10  1  0.05866400  0.64540000  0.09482000  1
  O  O11  1  0.04613500  0.45321700  0.09750800  1
  O  O12  1  0.15330700  0.55489000  0.09470700  1
  O  O13  1  0.95205700  0.36165800  0.91266600  1
  O  O14  1  0.06345400  0.46422000  0.91544000  1
  O  O15  1  0.85958900  0.45411500  0.91691300  1
  O  O16  1  0.96650000  0.55159300  0.91012100  1
  O  O17  1  0.05258300  0.90706000  0.46330500  1
  O  O18  1  0.95135900  0.91288900  0.35736500  1
  O  O19  1  0.96532900  0.91218500  0.55934700  1
  O  O20  1  0.85900800  0.90780700  0.44830600  1
  O  O21  1  0.05622400  0.09143500  0.64771400  1
  O  O22  1  0.94982000  0.09211700  0.54176100  1
  O  O23  1  0.14614300  0.09136000  0.55432800  1
  O  O24  1  0.03978700  0.09213600  0.44842900  1
  O  O25  1  0.32375700  0.90727800  0.48661600  1
  O  O26  1  0.58919500  0.91007700  0.42677900  1
