# generated using pymatgen
data_FeH16C29NO10
_symmetry_space_group_name_H-M   'P 1'
_cell_length_a   9.32719400
_cell_length_b   20.25649700
_cell_length_c   19.21615400
_cell_angle_alpha   108.85138400
_cell_angle_beta   85.64432400
_cell_angle_gamma   85.17227800
_symmetry_Int_Tables_number   1
_chemical_formula_structural   FeH16C29NO10
_chemical_formula_sum   'Fe2 H32 C58 N2 O20'
_cell_volume   3403.15128361
_cell_formula_units_Z   2
loop_
 _symmetry_equiv_pos_site_id
 _symmetry_equiv_pos_as_xyz
  1  'x, y, z'
loop_
 _atom_site_type_symbol
 _atom_site_label
 _atom_site_symmetry_multiplicity
 _atom_site_fract_x
 _atom_site_fract_y
 _atom_site_fract_z
 _atom_site_occupancy
  Fe  Fe1  1  0.47857100  0.97300600  0.36856400  1
  Fe  Fe2  1  0.46887200  0.99388500  0.63005300  1
  H  H1  1  0.92902600  0.01620700  0.66781300  1
  H  H2  1  0.73343800  0.98326100  0.85880500  1
  H  H3  1  0.11797000  0.90440000  0.88934900  1
  H  H4  1  0.80966900  0.05961800  0.10958100  1
  H  H5  1  0.79217700  0.07606400  0.98997000  1
  H  H6  1  0.21373900  0.98129000  0.13924200  1
  H  H7  1  0.02310700  0.95701500  0.33621300  1
  H  H8  1  0.76329400  0.96264300  0.16443200  1
  H  H9  1  0.67270700  0.54883500  0.62397400  1
  H  H10  1  0.80948200  0.45626700  0.65188500  1
  H  H11  1  0.16610200  0.51829100  0.34442300  1
  H  H12  1  0.24180500  0.22094800  0.45013400  1
  H  H13  1  0.40062500  0.26237900  0.69696100  1
  H  H14  1  0.29092000  0.35963900  0.66466900  1
  H  H15  1  0.72252600  0.74887400  0.54779600  1
  H  H16  1  0.56696500  0.70537000  0.30003200  1
  H  H17  1  0.68444200  0.60954400  0.33194300  1
  H  H18  1  0.47034700  0.50510000  0.39399700  1
  H  H19  1  0.47771800  0.44543400  0.44585600  1
  H  H20  1  0.57779900  0.42064000  0.35502200  1
  H  H21  1  0.36162600  0.35975600  0.33333333  1
  H  H22  1  0.34231300  0.43210200  0.30238200  1
  H  H23  1  0.05454100  0.13666500  0.93133800  1
  H  H24  1  0.13957700  0.08896100  0.98608000  1
  H  H25  1  0.24221800  0.14155100  0.94670900  1
  H  H26  1  0.25836600  0.00074400  0.88094000  1
  H  H27  1  0.28013800  0.06394000  0.83545800  1
  H  H28  1  0.33987800  0.86752500  0.92885900  1
  H  H29  1  0.34263500  0.92547900  0.02244800  1
  H  H30  1  0.38670000  0.83174300  0.99975100  1
  H  H31  1  0.14540400  0.85479000  0.05861500  1
  H  H32  1  0.13059800  0.81845000  0.96238600  1
  C  C1  1  0.06657500  0.02137300  0.75332100  1
  C  C2  1  0.07301100  0.02120400  0.82577800  1
  C  C3  1  0.95306300  0.00434900  0.86176900  1
  C  C4  1  0.82540900  0.99578500  0.82971900  1
  C  C5  1  0.81457600  0.00340000  0.76159700  1
  C  C6  1  0.93549000  0.01541800  0.72342500  1
  C  C7  1  0.05352000  0.93936300  0.93861200  1
  C  C8  1  0.06320300  0.92847700  0.00557000  1
  C  C9  1  0.97669300  0.97310300  0.06834800  1
  C  C10  1  0.87767000  0.02482600  0.06146400  1
  C  C11  1  0.86803500  0.03446200  0.99411600  1
  C  C12  1  0.95941000  0.99316700  0.93305600  1
  C  C13  1  0.12051600  0.97329500  0.17107400  1
  C  C14  1  0.13312300  0.96753400  0.23997100  1
  C  C15  1  0.01322400  0.95947900  0.28146300  1
  C  C16  1  0.87947500  0.95985500  0.25563200  1
  C  C17  1  0.86734000  0.96378500  0.18573800  1
  C  C18  1  0.98888600  0.96842600  0.14240100  1
  C  C19  1  0.75152000  0.95913100  0.30414000  1
  C  C20  1  0.52513300  0.84123600  0.37947400  1
  C  C21  1  0.27099500  0.97347500  0.27126800  1
  C  C22  1  0.36241500  0.10517400  0.46281700  1
  C  C23  1  0.91888000  0.58643600  0.41646200  1
  C  C24  1  0.74455800  0.59784400  0.51511900  1
  C  C25  1  0.82291500  0.54479200  0.53172600  1
  C  C26  1  0.95145800  0.51208200  0.48960500  1
  C  C27  1  0.99929800  0.53307900  0.43171000  1
  C  C28  1  0.77299300  0.52421900  0.59004900  1
  C  C29  1  0.85130100  0.47134200  0.60593200  1
  C  C30  1  0.98025100  0.43863800  0.56381100  1
  C  C31  1  0.03135000  0.45888700  0.50534700  1
  C  C32  1  0.16121300  0.42577700  0.46309900  1
  C  C33  1  0.20984000  0.44786900  0.40387900  1
  C  C34  1  0.12777400  0.50114400  0.38945800  1
  C  C35  1  0.05715000  0.38522700  0.57976500  1
  C  C36  1  0.23587000  0.37184100  0.48186100  1
  C  C37  1  0.27934700  0.22993600  0.50394000  1
  C  C38  1  0.34607200  0.17416200  0.52045700  1
  C  C39  1  0.38715200  0.18452200  0.59135900  1
  C  C40  1  0.36920800  0.25210400  0.64181600  1
  C  C41  1  0.30579800  0.30757700  0.62397300  1
  C  C42  1  0.25792000  0.29651200  0.55549600  1
  C  C43  1  0.68552900  0.73933800  0.49380800  1
  C  C44  1  0.61454500  0.79425700  0.47740900  1
  C  C45  1  0.57440400  0.78333800  0.40623400  1
  C  C46  1  0.59768000  0.71600500  0.35535000  1
  C  C47  1  0.66552500  0.66139500  0.37300000  1
  C  C48  1  0.71267900  0.67311900  0.44172000  1
  C  C49  1  0.67857700  0.99355600  0.72761700  1
  C  C50  1  0.59387500  0.86322900  0.53526400  1
  C  C51  1  0.19554900  0.02288500  0.70448100  1
  C  C52  1  0.43271500  0.12612800  0.61819400  1
  C  C53  1  0.34732600  0.41785000  0.35323400  1
  C  C54  1  0.47652600  0.44895700  0.38959600  1
  C  C55  1  0.20110000  0.04443300  0.86740400  1
  C  C56  1  0.15508400  0.10663300  0.93745000  1
  C  C57  1  0.15932800  0.86527300  0.00567300  1
  C  C58  1  0.31712200  0.87324800  0.98810800  1
  N  N1  1  0.79322300  0.61777400  0.45798200  1
  N  N2  1  0.18224500  0.35291300  0.53890000  1
  O  O1  1  0.62152000  0.97038700  0.28596600  1
  O  O2  1  0.52039600  0.82854200  0.30830500  1
  O  O3  1  0.76597200  0.95219700  0.36889900  1
  O  O4  1  0.50209300  0.90646200  0.42405300  1
  O  O5  1  0.29225300  0.94930100  0.32589700  1
  O  O6  1  0.36799200  0.00737700  0.24858400  1
  O  O7  1  0.49094700  0.06910600  0.44015900  1
  O  O8  1  0.24864800  0.08072800  0.43188900  1
  O  O9  1  0.96773400  0.60849800  0.36111300  1
  O  O10  1  0.61783000  0.62878800  0.55507400  1
  O  O11  1  0.00527300  0.36381500  0.63505500  1
  O  O12  1  0.36315800  0.33826000  0.44503900  1
  O  O13  1  0.65212500  0.02011600  0.67517000  1
  O  O14  1  0.58574200  0.95642400  0.74810700  1
  O  O15  1  0.46350100  0.89739000  0.55756600  1
  O  O16  1  0.70569500  0.88952900  0.56673700  1
  O  O17  1  0.44497500  0.13936800  0.68885100  1
  O  O18  1  0.32373900  0.99412900  0.71090200  1
  O  O19  1  0.44405500  0.06050700  0.57470900  1
  O  O20  1  0.17896300  0.04362500  0.64730700  1
