# generated using pymatgen
data_Cu3H16C35O22
_symmetry_space_group_name_H-M   'P 1'
_cell_length_a   18.63819400
_cell_length_b   18.64073900
_cell_length_c   18.73998900
_cell_angle_alpha   109.36131700
_cell_angle_beta   109.36563700
_cell_angle_gamma   109.46901900
_symmetry_Int_Tables_number   1
_chemical_formula_structural   Cu3H16C35O22
_chemical_formula_sum   'Cu6 H32 C70 O44'
_cell_volume   5025.45428802
_cell_formula_units_Z   2
loop_
 _symmetry_equiv_pos_site_id
 _symmetry_equiv_pos_as_xyz
  1  'x, y, z'
loop_
 _atom_site_type_symbol
 _atom_site_label
 _atom_site_symmetry_multiplicity
 _atom_site_fract_x
 _atom_site_fract_y
 _atom_site_fract_z
 _atom_site_occupancy
  Cu  Cu1  1  0.49583000  0.44166100  0.44768900  1
  Cu  Cu2  1  0.49238900  0.56508400  0.56264200  1
  Cu  Cu3  1  0.93587500  0.43367600  0.99700700  1
  Cu  Cu4  1  0.05519500  0.55800000  0.99329200  1
  Cu  Cu5  1  0.05579300  0.99660500  0.55597200  1
  Cu  Cu6  1  0.93160100  0.99296700  0.43543100  1
  H  H1  1  0.32709900  0.35171500  0.16808000  1
  H  H2  1  0.16843800  0.16995600  0.26170300  1
  H  H3  1  0.36612000  0.63632800  0.37825800  1
  H  H4  1  0.36734000  0.69780300  0.24290600  1
  H  H5  1  0.38644700  0.84315700  0.27581200  1
  H  H6  1  0.17850600  0.78652700  0.33538000  1
  H  H7  1  0.15843000  0.64014300  0.29930600  1
  H  H8  1  0.86285000  0.89256800  0.63627700  1
  H  H9  1  0.74687000  0.71619000  0.36640300  1
  H  H10  1  0.64048500  0.60571600  0.37590800  1
  H  H11  1  0.59301800  0.36798700  0.65500800  1
  H  H12  1  0.70674100  0.36561200  0.76508600  1
  H  H13  1  0.88325900  0.63263300  0.85612300  1
  H  H14  1  0.76784600  0.63617000  0.74990700  1
  H  H15  1  0.11825800  0.26719100  0.51895000  1
  H  H16  1  0.24792100  0.12070900  0.48016500  1
  H  H17  1  0.35531600  0.23668200  0.47765100  1
  H  H18  1  0.03198400  0.77261900  0.14030700  1
  H  H19  1  0.95929300  0.60220100  0.23855700  1
  H  H20  1  0.12870400  0.36953100  0.86768900  1
  H  H21  1  0.13087800  0.25475000  0.75931300  1
  H  H22  1  0.85176600  0.12037300  0.61060100  1
  H  H23  1  0.22100700  0.00596100  0.22178400  1
  H  H24  1  0.26361900  0.00278600  0.37292100  1
  H  H25  1  0.73394900  0.76411900  0.75521400  1
  H  H26  1  0.41224500  0.23212500  0.07753500  1
  H  H27  1  0.24412900  0.51092100  0.50997300  1
  H  H28  1  0.10489400  0.03800400  0.31391500  1
  H  H29  1  0.93781900  0.63083900  0.41975400  1
  H  H30  1  0.69551800  0.15806100  0.64910300  1
  H  H31  1  0.06603400  0.27463000  0.33390700  1
  H  H32  1  0.03130900  0.21089500  0.02221000  1
  C  C1  1  0.61860000  0.61969600  0.51037500  1
  C  C2  1  0.38035400  0.50117700  0.38223000  1
  C  C3  1  0.36971500  0.38814000  0.50095000  1
  C  C4  1  0.60563600  0.50248300  0.62710600  1
  C  C5  1  0.29554300  0.23579600  0.17850700  1
  C  C6  1  0.29140000  0.31062600  0.18749200  1
  C  C7  1  0.24619600  0.33738600  0.22528300  1
  C  C8  1  0.20163400  0.28693400  0.25320000  1
  C  C9  1  0.20446200  0.21102400  0.24256700  1
  C  C10  1  0.24977300  0.18421200  0.20471600  1
  C  C11  1  0.18623300  0.41896200  0.16792000  1
  C  C12  1  0.18848200  0.49708000  0.17758200  1
  C  C13  1  0.25435800  0.57520200  0.25332800  1
  C  C14  1  0.31548700  0.57508000  0.31931700  1
  C  C15  1  0.31325200  0.49809900  0.31073200  1
  C  C16  1  0.24831900  0.41953300  0.23493700  1
  C  C17  1  0.32483000  0.71693000  0.26166400  1
  C  C18  1  0.33558800  0.79906700  0.28058700  1
  C  C19  1  0.28306900  0.82476600  0.30704600  1
  C  C20  1  0.21931100  0.76721700  0.31356100  1
  C  C21  1  0.20767700  0.68448500  0.29308100  1
  C  C22  1  0.26039900  0.65924900  0.26701300  1
  C  C23  1  0.75090400  0.76896600  0.58493600  1
  C  C24  1  0.81324700  0.82933300  0.57939800  1
  C  C25  1  0.81245400  0.81097000  0.50161200  1
  C  C26  1  0.74901900  0.73108000  0.42816700  1
  C  C27  1  0.68947500  0.66845600  0.43378800  1
  C  C28  1  0.68902000  0.68657200  0.51130400  1
  C  C29  1  0.65643900  0.42658300  0.69986300  1
  C  C30  1  0.72063600  0.42537100  0.76220900  1
  C  C31  1  0.80299200  0.49879600  0.81771600  1
  C  C32  1  0.81936000  0.57442300  0.81280000  1
  C  C33  1  0.75376300  0.57685800  0.75345600  1
  C  C34  1  0.67251200  0.50257500  0.69579300  1
  C  C35  1  0.23423100  0.33002500  0.51355600  1
  C  C36  1  0.17132900  0.26179300  0.51085300  1
  C  C37  1  0.17553100  0.18649300  0.49849400  1
  C  C38  1  0.24326800  0.17896800  0.48902900  1
  C  C39  1  0.30347000  0.24420400  0.48688200  1
  C  C40  1  0.30032500  0.32017600  0.49972600  1
  C  C41  1  0.99694400  0.61363700  0.11614500  1
  C  C42  1  0.11844400  0.49628800  0.11071300  1
  C  C43  1  0.99194600  0.37791600  0.87202000  1
  C  C44  1  0.87281600  0.49677100  0.88119000  1
  C  C45  1  0.99567500  0.87858300  0.37902200  1
  C  C46  1  0.87896800  0.87689100  0.49819300  1
  C  C47  1  0.99168800  0.11087700  0.61186700  1
  C  C48  1  0.10858900  0.11519600  0.49599400  1
  C  C49  1  0.01556500  0.76032400  0.18677400  1
  C  C50  1  0.01564700  0.82501400  0.24976200  1
  C  C51  1  0.99551700  0.80995200  0.31085800  1
  C  C52  1  0.97463000  0.72830200  0.30576500  1
  C  C53  1  0.97579800  0.66517400  0.24240300  1
  C  C54  1  0.99622200  0.68094100  0.18317100  1
  C  C55  1  0.06756600  0.31514300  0.81097100  1
  C  C56  1  0.06865700  0.24959900  0.75030200  1
  C  C57  1  0.99102100  0.17926900  0.67823600  1
  C  C58  1  0.91247500  0.17477900  0.66766500  1
  C  C59  1  0.91057100  0.23959600  0.72875200  1
  C  C60  1  0.98919100  0.31025500  0.80164100  1
  C  C61  1  0.24207500  0.09840400  0.18878900  1
  C  C62  1  0.29594000  0.91308000  0.32954600  1
  C  C63  1  0.75517200  0.79523300  0.67022900  1
  C  C64  1  0.35326700  0.21767000  0.14642300  1
  C  C65  1  0.22534500  0.40855500  0.52745400  1
  C  C66  1  0.04027600  0.90867100  0.24976200  1
  C  C67  1  0.94600800  0.70289000  0.36220300  1
  C  C68  1  0.82470100  0.23275800  0.71118200  1
  C  C69  1  0.14781400  0.30839700  0.29016700  1
  C  C70  1  0.12120900  0.33644500  0.08505700  1
  O  O1  1  0.60412500  0.53828900  0.47640500  1
  O  O2  1  0.56981100  0.64278900  0.53935100  1
  O  O3  1  0.42869400  0.46762200  0.36504300  1
  O  O4  1  0.39119100  0.53961100  0.46127900  1
  O  O5  1  0.38703300  0.36424300  0.43681000  1
  O  O6  1  0.41549300  0.46844200  0.56830100  1
  O  O7  1  0.56201100  0.43432600  0.54793600  1
  O  O8  1  0.59405500  0.57121600  0.64609600  1
  O  O9  1  0.94879300  0.53126700  0.09200100  1
  O  O10  1  0.04525700  0.63863400  0.08246700  1
  O  O11  1  0.03676700  0.44387300  0.08570800  1
  O  O12  1  0.13982500  0.54757200  0.07855200  1
  O  O13  1  0.94422400  0.35302600  0.90626200  1
  O  O14  1  0.04360600  0.46049900  0.89930400  1
  O  O15  1  0.85122900  0.44538600  0.91320900  1
  O  O16  1  0.95424200  0.54675100  0.90362400  1
  O  O17  1  0.03047800  0.89126300  0.45931400  1
  O  O18  1  0.96017400  0.92409100  0.35699900  1
  O  O19  1  0.95957700  0.92472000  0.56560600  1
  O  O20  1  0.85547500  0.88618000  0.42854800  1
  O  O21  1  0.06175100  0.10153800  0.63362900  1
  O  O22  1  0.92240800  0.06223300  0.53273400  1
  O  O23  1  0.13258500  0.06831500  0.52766400  1
  O  O24  1  0.02714300  0.10046900  0.46155200  1
  O  O25  1  0.24006500  0.05133600  0.12400100  1
  O  O26  1  0.22869100  0.06692700  0.24365300  1
  O  O27  1  0.35123800  0.96331300  0.32247300  1
  O  O28  1  0.24577200  0.94037500  0.35988400  1
  O  O29  1  0.79095200  0.87285800  0.72294800  1
  O  O30  1  0.72392400  0.73366200  0.69413200  1
  O  O31  1  0.39312500  0.18366700  0.17342100  1
  O  O32  1  0.36902000  0.24689200  0.09093000  1
  O  O33  1  0.18373600  0.42445300  0.56262600  1
  O  O34  1  0.25853100  0.46198500  0.49629000  1
  O  O35  1  0.02033900  0.90860300  0.18084000  1
  O  O36  1  0.09285800  0.98825400  0.32720000  1
  O  O37  1  0.89971000  0.72664000  0.38430500  1
  O  O38  1  0.96472800  0.64414400  0.38365700  1
  O  O39  1  0.81858300  0.29814700  0.73959200  1
  O  O40  1  0.74870900  0.15123000  0.65631300  1
  O  O41  1  0.14322500  0.37472400  0.30228900  1
  O  O42  1  0.09960200  0.25101400  0.31004100  1
  O  O43  1  0.10958900  0.33392000  0.01608200  1
  O  O44  1  0.07229500  0.26092700  0.08431600  1
