# generated using pymatgen
data_CuH34C33NO8
_symmetry_space_group_name_H-M   'P 1'
_cell_length_a   19.29407000
_cell_length_b   18.01134800
_cell_length_c   15.84952100
_cell_angle_alpha   90.00000000
_cell_angle_beta   90.00584300
_cell_angle_gamma   90.00000000
_symmetry_Int_Tables_number   1
_chemical_formula_structural   CuH34C33NO8
_chemical_formula_sum   'Cu2 H68 C66 N2 O16'
_cell_volume   5507.90202735
_cell_formula_units_Z   2
loop_
 _symmetry_equiv_pos_site_id
 _symmetry_equiv_pos_as_xyz
  1  'x, y, z'
loop_
 _atom_site_type_symbol
 _atom_site_label
 _atom_site_symmetry_multiplicity
 _atom_site_fract_x
 _atom_site_fract_y
 _atom_site_fract_z
 _atom_site_occupancy
  Cu  Cu1  1  0.49735600  0.57156700  0.49572100  1
  Cu  Cu2  1  0.49818900  0.42282800  0.49501000  1
  H  H1  1  0.39096400  0.51333300  0.93735100  1
  H  H2  1  0.44747600  0.38974300  0.92042600  1
  H  H3  1  0.40093200  0.54683700  0.07540600  1
  H  H4  1  0.42643200  0.41316100  0.06003800  1
  H  H5  1  0.51244900  0.37769000  0.07604300  1
  H  H6  1  0.47001700  0.61151500  0.05465800  1
  H  H7  1  0.54005300  0.38578300  0.93532600  1
  H  H8  1  0.43920100  0.59733700  0.91619100  1
  H  H9  1  0.56289800  0.59085700  0.93166700  1
  H  H10  1  0.61070300  0.50590600  0.91135100  1
  H  H11  1  0.71616800  0.38758400  0.54542100  1
  H  H12  1  0.71490300  0.60912200  0.44876700  1
  H  H13  1  0.93375900  0.55615200  0.61268700  1
  H  H14  1  0.93417800  0.43806800  0.37953400  1
  H  H15  1  0.15347800  0.37717500  0.49431700  1
  H  H16  1  0.15324000  0.61402700  0.50028100  1
  H  H17  1  0.27938900  0.37687100  0.49391700  1
  H  H18  1  0.27891800  0.61465800  0.50018200  1
  H  H19  1  0.39674100  0.82889300  0.45593600  1
  H  H20  1  0.47275100  0.16734300  0.36652700  1
  H  H21  1  0.60509900  0.82011600  0.54696800  1
  H  H22  1  0.54002000  0.17262300  0.62380700  1
  H  H23  1  0.59624100  0.68741900  0.55194700  1
  H  H24  1  0.54216500  0.30530500  0.61689500  1
  H  H25  1  0.57855600  0.93024000  0.60017800  1
  H  H26  1  0.58395600  0.06329300  0.59393700  1
  H  H27  1  0.42631300  0.06292400  0.40352700  1
  H  H28  1  0.42972000  0.93154500  0.39914500  1
  H  H29  1  0.05954300  0.45268500  0.66534600  1
  H  H30  1  0.02773500  0.52196200  0.73851600  1
  H  H31  1  0.14797500  0.56628500  0.76210600  1
  H  H32  1  0.13951400  0.46848500  0.78665200  1
  H  H33  1  0.17990500  0.49724400  0.68884900  1
  H  H34  1  0.06391500  0.53954700  0.32885100  1
  H  H35  1  0.03120700  0.47168800  0.25475300  1
  H  H36  1  0.15169100  0.42347600  0.23572500  1
  H  H37  1  0.14425800  0.52076100  0.20852000  1
  H  H38  1  0.18321700  0.49387900  0.30774800  1
  H  H39  1  0.44497400  0.69375500  0.32477700  1
  H  H40  1  0.37178200  0.75680100  0.32837500  1
  H  H41  1  0.29116400  0.65103800  0.32006900  1
  H  H42  1  0.35103600  0.65032600  0.23192600  1
  H  H43  1  0.36311900  0.58691300  0.31949500  1
  H  H44  1  0.36377900  0.29696300  0.42393200  1
  H  H45  1  0.36926500  0.23967500  0.33036500  1
  H  H46  1  0.36259300  0.35092800  0.23928400  1
  H  H47  1  0.28912500  0.34550300  0.31002800  1
  H  H48  1  0.35855300  0.41006500  0.33130600  1
  H  H49  1  0.64670000  0.65258600  0.99676400  1
  H  H50  1  0.69090000  0.56431500  0.00923200  1
  H  H51  1  0.72397900  0.60194500  0.15458900  1
  H  H52  1  0.75488200  0.66587900  0.07482100  1
  H  H53  1  0.68026800  0.68976200  0.13851700  1
  H  H54  1  0.63334000  0.48799200  0.17685200  1
  H  H55  1  0.71105100  0.47144800  0.11731900  1
  H  H56  1  0.68019700  0.33780700  0.10939300  1
  H  H57  1  0.69214800  0.37174500  0.21597000  1
  H  H58  1  0.60562300  0.35587500  0.17591700  1
  H  H59  1  0.83998700  0.34914600  0.42395900  1
  H  H60  1  0.79748200  0.28654800  0.49697700  1
  H  H61  1  0.91152200  0.24358200  0.54889900  1
  H  H62  1  0.90441100  0.23075200  0.43594800  1
  H  H63  1  0.95476600  0.30705900  0.47802500  1
  H  H64  1  0.84127400  0.64655900  0.56777400  1
  H  H65  1  0.79869200  0.70931800  0.49492600  1
  H  H66  1  0.91243800  0.75188200  0.44237400  1
  H  H67  1  0.90562000  0.76470600  0.55538100  1
  H  H68  1  0.95597100  0.68841700  0.51318300  1
  C  C1  1  0.36446800  0.49619000  0.49563300  1
  C  C2  1  0.49839100  0.49813000  0.33371500  1
  C  C3  1  0.63092100  0.49790000  0.49598000  1
  C  C4  1  0.49777500  0.49656900  0.65744200  1
  C  C5  1  0.45122000  0.55430300  0.04275200  1
  C  C6  1  0.48194100  0.42168700  0.04438000  1
  C  C7  1  0.49249700  0.41789500  0.94981500  1
  C  C8  1  0.44041600  0.54292300  0.94905900  1
  C  C9  1  0.49791000  0.49655800  0.74798500  1
  C  C10  1  0.50366300  0.49784300  0.07509600  1
  C  C11  1  0.49960200  0.49642000  0.91621800  1
  C  C12  1  0.56676800  0.53092400  0.94646500  1
  C  C13  1  0.57638200  0.51666600  0.04103200  1
  C  C14  1  0.49837300  0.49616600  0.82394900  1
  C  C15  1  0.50122200  0.49836100  0.16736300  1
  C  C16  1  0.49953100  0.49823000  0.24336000  1
  C  C17  1  0.74307600  0.43617700  0.52265700  1
  C  C18  1  0.74279100  0.56062900  0.47040300  1
  C  C19  1  0.81451500  0.43563500  0.52129000  1
  C  C20  1  0.81442200  0.56070800  0.47054800  1
  C  C21  1  0.85027400  0.49805200  0.49545900  1
  C  C22  1  0.70691000  0.49827500  0.49629100  1
  C  C23  1  0.96170600  0.53065400  0.56112900  1
  C  C24  1  0.96181100  0.46430800  0.43079000  1
  C  C25  1  0.03319600  0.52985500  0.56195700  1
  C  C26  1  0.03327200  0.46376000  0.43100500  1
  C  C27  1  0.06923800  0.49662400  0.49658600  1
  C  C28  1  0.92594500  0.49813800  0.49545600  1
  C  C29  1  0.18096300  0.42955000  0.49469400  1
  C  C30  1  0.18101900  0.56192700  0.49898900  1
  C  C31  1  0.25243700  0.42951000  0.49471200  1
  C  C32  1  0.25232300  0.56205000  0.49848200  1
  C  C33  1  0.28851400  0.49583400  0.49606600  1
  C  C34  1  0.14507500  0.49590300  0.49674200  1
  C  C35  1  0.44302300  0.72346300  0.46637600  1
  C  C36  1  0.47888100  0.27194400  0.42597600  1
  C  C37  1  0.44336200  0.79960500  0.47303200  1
  C  C38  1  0.48440500  0.19555100  0.42497500  1
  C  C39  1  0.50143700  0.83707400  0.50074600  1
  C  C40  1  0.50486300  0.15723700  0.49625000  1
  C  C41  1  0.55703300  0.79489100  0.52738800  1
  C  C42  1  0.52430900  0.19856100  0.56572200  1
  C  C43  1  0.55265300  0.71834600  0.52774700  1
  C  C44  1  0.52401100  0.27510500  0.56248400  1
  C  C45  1  0.54607300  0.95859400  0.55487000  1
  C  C46  1  0.54774700  0.03540400  0.55278500  1
  C  C47  1  0.50516500  0.07489500  0.49829500  1
  C  C48  1  0.50352200  0.91929100  0.50037500  1
  C  C49  1  0.46202500  0.03530900  0.44523100  1
  C  C50  1  0.46232000  0.95893700  0.44489400  1
  C  C51  1  0.06876700  0.50887700  0.69182100  1
  C  C52  1  0.13868400  0.51025700  0.73527000  1
  C  C53  1  0.07182300  0.48319700  0.30241800  1
  C  C54  1  0.14246100  0.48003700  0.26094900  1
  C  C55  1  0.39056700  0.70061900  0.34553500  1
  C  C56  1  0.34600700  0.64339100  0.30122600  1
  C  C57  1  0.38191400  0.29476400  0.35764900  1
  C  C58  1  0.34578700  0.35431700  0.30617200  1
  C  C59  1  0.66120500  0.60827600  0.04194700  1
  C  C60  1  0.70819200  0.64367500  0.10691500  1
  C  C61  1  0.65671300  0.45342600  0.12713400  1
  C  C62  1  0.65869900  0.37436400  0.15922100  1
  C  C63  1  0.84406500  0.32149300  0.48627100  1
  C  C64  1  0.90787100  0.27247600  0.48726600  1
  C  C65  1  0.84513000  0.67432000  0.50551100  1
  C  C66  1  0.90908800  0.72305600  0.50405300  1
  N  N1  1  0.49660500  0.68277100  0.49617700  1
  N  N2  1  0.49906200  0.31154900  0.49443400  1
  O  O1  1  0.39673800  0.56005400  0.49480100  1
  O  O2  1  0.39750100  0.43274800  0.49594500  1
  O  O3  1  0.49373300  0.56168700  0.37313900  1
  O  O4  1  0.50261800  0.43432500  0.37269500  1
  O  O5  1  0.59808200  0.56147900  0.49135400  1
  O  O6  1  0.59892000  0.43384400  0.50019600  1
  O  O7  1  0.49638400  0.56048100  0.61833100  1
  O  O8  1  0.49882000  0.43284300  0.61778700  1
  O  O9  1  0.06807300  0.56202200  0.62762500  1
  O  O10  1  0.06823400  0.43005100  0.36638600  1
  O  O11  1  0.38575700  0.69016900  0.43269500  1
  O  O12  1  0.45344700  0.30622400  0.35535000  1
  O  O13  1  0.60179700  0.58052100  0.08275800  1
  O  O14  1  0.62114400  0.45470200  0.04951400  1
  O  O15  1  0.84973100  0.37471700  0.55008100  1
  O  O16  1  0.84992600  0.62133900  0.44150000  1
