# generated using pymatgen
data_ZnH15C22NO4
_symmetry_space_group_name_H-M   'P 1'
_cell_length_a   15.99058900
_cell_length_b   10.76715700
_cell_length_c   9.73289900
_cell_angle_alpha   90.00805400
_cell_angle_beta   89.99225100
_cell_angle_gamma   89.99420700
_symmetry_Int_Tables_number   1
_chemical_formula_structural   ZnH15C22NO4
_chemical_formula_sum   'Zn2 H30 C44 N2 O8'
_cell_volume   1675.74415324
_cell_formula_units_Z   2
loop_
 _symmetry_equiv_pos_site_id
 _symmetry_equiv_pos_as_xyz
  1  'x, y, z'
loop_
 _atom_site_type_symbol
 _atom_site_label
 _atom_site_symmetry_multiplicity
 _atom_site_fract_x
 _atom_site_fract_y
 _atom_site_fract_z
 _atom_site_occupancy
  Zn  Zn1  1  0.50222600  0.50057400  0.65616900  1
  Zn  Zn2  1  0.49857300  0.50109900  0.34299300  1
  H  H1  1  0.05544000  0.36830600  0.31886400  1
  H  H2  1  0.94535900  0.63337900  0.68016400  1
  H  H3  1  0.94753500  0.29139500  0.53225900  1
  H  H4  1  0.05325200  0.71028900  0.46671000  1
  H  H5  1  0.95200400  0.57807900  0.27879000  1
  H  H6  1  0.04879100  0.42360300  0.72023900  1
  H  H7  1  0.62122600  0.92381400  0.62460600  1
  H  H8  1  0.37957300  0.07785800  0.37455300  1
  H  H9  1  0.49457300  0.07754100  0.73394600  1
  H  H10  1  0.50622400  0.92413000  0.26521100  1
  H  H11  1  0.37416900  0.92415900  0.60948800  1
  H  H12  1  0.62663200  0.07751200  0.38967000  1
  H  H13  1  0.46666200  0.30216400  0.09160800  1
  H  H14  1  0.53414000  0.69950800  0.90755100  1
  H  H15  1  0.37245400  0.43822200  0.89686700  1
  H  H16  1  0.62833700  0.56346000  0.10230000  1
  H  H17  1  0.70731200  0.49344700  0.86555700  1
  H  H18  1  0.82152700  0.35772400  0.79282300  1
  H  H19  1  0.87776300  0.16066700  0.75538000  1
  H  H20  1  0.80118400  0.04745300  0.70094600  1
  H  H21  1  0.84037600  0.04521500  0.87529100  1
  H  H22  1  0.67099800  0.04020700  0.88003200  1
  H  H23  1  0.55659200  0.17576000  0.95211900  1
  H  H24  1  0.44415500  0.82589400  0.04683200  1
  H  H25  1  0.33045900  0.96150000  0.11908900  1
  H  H26  1  0.19555300  0.99268100  0.20318000  1
  H  H27  1  0.16190000  0.87371600  0.32187200  1
  H  H28  1  0.12195400  0.87550100  0.14797300  1
  H  H29  1  0.17936700  0.64484400  0.20751900  1
  H  H30  1  0.29354700  0.50822800  0.13399900  1
  C  C1  1  0.50062800  0.25816700  0.49860900  1
  C  C2  1  0.50017300  0.74350500  0.50055200  1
  C  C3  1  0.33705300  0.50037600  0.50590400  1
  C  C4  1  0.66374500  0.50129500  0.49325500  1
  C  C5  1  0.97274500  0.38641200  0.51757900  1
  C  C6  1  0.02805300  0.61527200  0.48144600  1
  C  C7  1  0.02922300  0.42846700  0.40072600  1
  C  C8  1  0.97157600  0.57321800  0.59830200  1
  C  C9  1  0.24731400  0.50038400  0.50745600  1
  C  C10  1  0.75348400  0.50129200  0.49167900  1
  C  C11  1  0.02562500  0.45861200  0.62007500  1
  C  C12  1  0.97517100  0.54307100  0.37895400  1
  C  C13  1  0.08048100  0.50067000  0.50317100  1
  C  C14  1  0.92031700  0.50101400  0.49586100  1
  C  C15  1  0.17195700  0.50048400  0.50643300  1
  C  C16  1  0.82884100  0.50119700  0.49265200  1
  C  C17  1  0.49750100  0.04165600  0.62734700  1
  C  C18  1  0.50329900  0.96001600  0.37181100  1
  C  C19  1  0.56637800  0.96041500  0.56784900  1
  C  C20  1  0.43442200  0.04125700  0.43130900  1
  C  C21  1  0.50033100  0.88162300  0.50008300  1
  C  C22  1  0.50046900  0.12004900  0.49907500  1
  C  C23  1  0.43147000  0.96061000  0.55954500  1
  C  C24  1  0.56933000  0.04106200  0.43961300  1
  C  C25  1  0.48294500  0.39419900  0.04814000  1
  C  C26  1  0.51785000  0.60747700  0.95102300  1
  C  C27  1  0.55544300  0.42795900  0.95866700  1
  C  C28  1  0.44535100  0.57371900  0.04049600  1
  C  C29  1  0.43226800  0.46689200  0.94493100  1
  C  C30  1  0.56852500  0.53478500  0.05423200  1
  C  C31  1  0.62401800  0.34396000  0.91205900  1
  C  C32  1  0.69884900  0.39387100  0.86795500  1
  C  C33  1  0.76335300  0.31718500  0.82729000  1
  C  C34  1  0.75341800  0.18986900  0.83128800  1
  C  C35  1  0.82254000  0.10587300  0.78799300  1
  C  C36  1  0.67892600  0.13985800  0.87631300  1
  C  C37  1  0.61445400  0.21654700  0.91702000  1
  C  C38  1  0.37679100  0.65771700  0.08717100  1
  C  C39  1  0.38633300  0.78514800  0.08216300  1
  C  C40  1  0.32197300  0.86197100  0.12315600  1
  C  C41  1  0.24752100  0.81174700  0.16865200  1
  C  C42  1  0.17753900  0.89366600  0.21308200  1
  C  C43  1  0.23769500  0.68458000  0.17257500  1
  C  C44  1  0.30203700  0.60779700  0.13155900  1
  N  N1  1  0.50543700  0.49955800  0.86171100  1
  N  N2  1  0.49535900  0.50211600  0.13745000  1
  O  O1  1  0.50169000  0.31573100  0.61737400  1
  O  O2  1  0.49910800  0.68594100  0.38178800  1
  O  O3  1  0.49954600  0.31585900  0.37976200  1
  O  O4  1  0.50125600  0.68581300  0.61939800  1
  O  O5  1  0.37706000  0.50054200  0.62364800  1
  O  O6  1  0.62373800  0.50113100  0.37551100  1
  O  O7  1  0.37466100  0.50041500  0.38616900  1
  O  O8  1  0.62614000  0.50125200  0.61299700  1
