# generated using pymatgen
data_ZnH17C25NO4F
_symmetry_space_group_name_H-M   'P 1'
_cell_length_a   15.20158700
_cell_length_b   14.02975800
_cell_length_c   15.97699900
_cell_angle_alpha   90.00000000
_cell_angle_beta   89.99501700
_cell_angle_gamma   90.00000000
_symmetry_Int_Tables_number   1
_chemical_formula_structural   ZnH17C25NO4F
_chemical_formula_sum   'Zn2 H34 C50 N2 O8 F2'
_cell_volume   3407.48784756
_cell_formula_units_Z   2
loop_
 _symmetry_equiv_pos_site_id
 _symmetry_equiv_pos_as_xyz
  1  'x, y, z'
loop_
 _atom_site_type_symbol
 _atom_site_label
 _atom_site_symmetry_multiplicity
 _atom_site_fract_x
 _atom_site_fract_y
 _atom_site_fract_z
 _atom_site_occupancy
  Zn  Zn1  1  0.49703900  0.60922100  0.49895300  1
  Zn  Zn2  1  0.49701900  0.39216700  0.49920200  1
  H  H1  1  0.39292100  0.61206300  0.91912500  1
  H  H2  1  0.36267100  0.43819300  0.93094600  1
  H  H3  1  0.48628000  0.35099200  0.05298400  1
  H  H4  1  0.49993500  0.64968000  0.06485700  1
  H  H5  1  0.45143400  0.35477300  0.91794600  1
  H  H6  1  0.50319600  0.65324200  0.93030700  1
  H  H7  1  0.61890700  0.55595900  0.06915700  1
  H  H8  1  0.61337500  0.42905900  0.07627600  1
  H  H9  1  0.62858600  0.54050800  0.92887700  1
  H  H10  1  0.60707300  0.41416700  0.93536000  1
  H  H11  1  0.05813900  0.64587300  0.54076000  1
  H  H12  1  0.05829800  0.35568500  0.45715800  1
  H  H13  1  0.21696100  0.64647100  0.53826800  1
  H  H14  1  0.21708000  0.35504000  0.46025600  1
  H  H15  1  0.93586000  0.35531900  0.53976100  1
  H  H16  1  0.93586300  0.64615700  0.45793100  1
  H  H17  1  0.77708700  0.35464600  0.53682100  1
  H  H18  1  0.77705800  0.64670100  0.46058000  1
  H  H19  1  0.42980400  0.06769900  0.38135900  1
  H  H20  1  0.36928500  0.93388200  0.44254800  1
  H  H21  1  0.42887800  0.24092100  0.38478500  1
  H  H22  1  0.37267600  0.76072600  0.44129700  1
  H  H23  1  0.56500800  0.24067800  0.61376200  1
  H  H24  1  0.62142500  0.76070600  0.55629300  1
  H  H25  1  0.56406400  0.06742000  0.61688200  1
  H  H26  1  0.62471600  0.93386300  0.55531300  1
  H  H27  1  0.27993500  0.55272300  0.99428100  1
  H  H28  1  0.14454000  0.61727100  0.05084800  1
  H  H29  1  0.28971500  0.77983600  0.22803600  1
  H  H30  1  0.42700000  0.71686900  0.17209400  1
  H  H31  1  0.32534300  0.48031200  0.17394000  1
  H  H32  1  0.19330600  0.40685500  0.22364200  1
  H  H33  1  0.22538300  0.17876300  0.05149300  1
  H  H34  1  0.36026200  0.25064300  0.99969100  1
  C  C1  1  0.32485200  0.50070300  0.49950100  1
  C  C2  1  0.49650100  0.50051400  0.33551900  1
  C  C3  1  0.66921200  0.50063200  0.49865600  1
  C  C4  1  0.49742500  0.50091400  0.66271100  1
  C  C5  1  0.45154500  0.59541600  0.04459700  1
  C  C6  1  0.43948600  0.41053000  0.04321600  1
  C  C7  1  0.43136700  0.42206100  0.94894200  1
  C  C8  1  0.45663100  0.59647800  0.94952600  1
  C  C9  1  0.49625000  0.50108400  0.75251000  1
  C  C10  1  0.48600500  0.49968000  0.07878000  1
  C  C11  1  0.49146100  0.50139900  0.91940100  1
  C  C12  1  0.58316000  0.48573700  0.95409900  1
  C  C13  1  0.58092800  0.49259200  0.04882300  1
  C  C14  1  0.49451600  0.50124100  0.82790300  1
  C  C15  1  0.49024100  0.49992600  0.17040100  1
  C  C16  1  0.49382400  0.50027100  0.24577400  1
  C  C17  1  0.09188200  0.58198000  0.52101300  1
  C  C18  1  0.09196100  0.41955100  0.47709000  1
  C  C19  1  0.18258300  0.58220500  0.52038000  1
  C  C20  1  0.18265100  0.41928800  0.47810900  1
  C  C21  1  0.22846300  0.50071800  0.49938800  1
  C  C22  1  0.04556900  0.50076300  0.49897800  1
  C  C23  1  0.90216000  0.41933400  0.52025900  1
  C  C24  1  0.90215500  0.58210000  0.47732000  1
  C  C25  1  0.81146800  0.41905700  0.51934700  1
  C  C26  1  0.81145500  0.58229500  0.47804200  1
  C  C27  1  0.76560800  0.50064900  0.49863600  1
  C  C28  1  0.94851100  0.50073500  0.49883800  1
  C  C29  1  0.45869700  0.10378100  0.43437200  1
  C  C30  1  0.42667400  0.89773300  0.46664900  1
  C  C31  1  0.45903100  0.20204500  0.43562400  1
  C  C32  1  0.42793700  0.79946200  0.46680600  1
  C  C33  1  0.53484300  0.20190800  0.56286700  1
  C  C34  1  0.56614900  0.79945200  0.53083000  1
  C  C35  1  0.53516400  0.10363300  0.56394100  1
  C  C36  1  0.56735200  0.89771900  0.53115100  1
  C  C37  1  0.49694300  0.05322400  0.49910100  1
  C  C38  1  0.49698600  0.94821100  0.49896900  1
  C  C39  1  0.36466700  0.62960600  0.07886700  1
  C  C40  1  0.28417200  0.60303400  0.04501600  1
  C  C41  1  0.20685100  0.63908800  0.07720200  1
  C  C42  1  0.20870400  0.70244800  0.14291600  1
  C  C43  1  0.28808100  0.72997100  0.17648300  1
  C  C44  1  0.36555400  0.69419100  0.14447700  1
  C  C45  1  0.35387700  0.37323500  0.07979300  1
  C  C46  1  0.30614500  0.41484700  0.14457300  1
  C  C47  1  0.22993700  0.37310700  0.17379200  1
  C  C48  1  0.20041500  0.28881200  0.14019400  1
  C  C49  1  0.24767800  0.24566200  0.07749400  1
  C  C50  1  0.32375300  0.28720300  0.04800900  1
  N  N1  1  0.49696300  0.24957800  0.49927200  1
  N  N2  1  0.49704600  0.75182000  0.49880800  1
  O  O1  1  0.36597900  0.58297300  0.49978900  1
  O  O2  1  0.36596200  0.41841900  0.49908500  1
  O  O3  1  0.49618500  0.58292300  0.37427000  1
  O  O4  1  0.49701500  0.41825500  0.37448500  1
  O  O5  1  0.62808300  0.58288500  0.49819300  1
  O  O6  1  0.62808200  0.41837300  0.49928600  1
  O  O7  1  0.49770900  0.58318500  0.62374100  1
  O  O8  1  0.49687200  0.41851600  0.62394800  1
  F  F1  1  0.13260100  0.73764200  0.17445000  1
  F  F2  1  0.12565300  0.24802000  0.16933800  1
