# generated using pymatgen
data_ZnH8C15S2NO4
_symmetry_space_group_name_H-M   'P 1'
_cell_length_a   16.14169300
_cell_length_b   14.98913000
_cell_length_c   11.91830600
_cell_angle_alpha   90.00000000
_cell_angle_beta   89.98630800
_cell_angle_gamma   90.00000000
_symmetry_Int_Tables_number   1
_chemical_formula_structural   ZnH8C15S2NO4
_chemical_formula_sum   'Zn2 H16 C30 S4 N2 O8'
_cell_volume   2883.63327725
_cell_formula_units_Z   2
loop_
 _symmetry_equiv_pos_site_id
 _symmetry_equiv_pos_as_xyz
  1  'x, y, z'
loop_
 _atom_site_type_symbol
 _atom_site_label
 _atom_site_symmetry_multiplicity
 _atom_site_fract_x
 _atom_site_fract_y
 _atom_site_fract_z
 _atom_site_occupancy
  Zn  Zn1  1  0.50000600  0.60162200  0.52309000  1
  Zn  Zn2  1  0.50000600  0.39833100  0.52309000  1
  H  H1  1  0.40653700  0.08203700  0.39692300  1
  H  H2  1  0.59347900  0.91791600  0.64925400  1
  H  H3  1  0.59347800  0.08203700  0.64925500  1
  H  H4  1  0.40653800  0.91791600  0.39692200  1
  H  H5  1  0.16921900  0.67088100  0.34301200  1
  H  H6  1  0.08611500  0.75251900  0.33871200  1
  H  H7  1  0.06245200  0.63507400  0.33309800  1
  H  H8  1  0.83090300  0.32895500  0.34313400  1
  H  H9  1  0.91399200  0.24729200  0.33896900  1
  H  H10  1  0.93768400  0.36472600  0.33322600  1
  H  H11  1  0.91392000  0.75265000  0.70715500  1
  H  H12  1  0.93753900  0.63519900  0.71290700  1
  H  H13  1  0.83078600  0.67104300  0.70295000  1
  H  H14  1  0.08599300  0.24743900  0.70749700  1
  H  H15  1  0.06235200  0.36489000  0.71309800  1
  H  H16  1  0.16911700  0.32905700  0.70323100  1
  C  C1  1  0.33811600  0.49997600  0.52313300  1
  C  C2  1  0.66189600  0.49997600  0.52304600  1
  C  C3  1  0.50002400  0.49997600  0.30383400  1
  C  C4  1  0.49998800  0.49997600  0.74234600  1
  C  C5  1  0.44761200  0.95397600  0.45236300  1
  C  C6  1  0.55240500  0.04597600  0.59381300  1
  C  C7  1  0.55240500  0.95397600  0.59381300  1
  C  C8  1  0.44761100  0.04597600  0.45236400  1
  C  C9  1  0.50000700  0.81224100  0.52308900  1
  C  C10  1  0.50000700  0.18771200  0.52309000  1
  C  C11  1  0.50001900  0.49997600  0.18343100  1
  C  C12  1  0.49999200  0.49997600  0.86274900  1
  C  C13  1  0.50001100  0.49997600  0.08232700  1
  C  C14  1  0.50000000  0.49997600  0.96385400  1
  C  C15  1  0.95724300  0.57971800  0.52392200  1
  C  C16  1  0.04276900  0.42023500  0.52403800  1
  C  C17  1  0.04276900  0.57971800  0.52215000  1
  C  C18  1  0.95724400  0.42023400  0.52222200  1
  C  C19  1  0.91446600  0.49997600  0.52306100  1
  C  C20  1  0.08554600  0.49997700  0.52310500  1
  C  C21  1  0.82548200  0.49997600  0.52304600  1
  C  C22  1  0.17453000  0.49997700  0.52312300  1
  C  C23  1  0.24921600  0.49997600  0.52313200  1
  C  C24  1  0.75079600  0.49997600  0.52304100  1
  C  C25  1  0.50000800  0.90797600  0.52308800  1
  C  C26  1  0.50000700  0.09197600  0.52308900  1
  C  C27  1  0.10478200  0.68564200  0.36944200  1
  C  C28  1  0.89532100  0.31419700  0.36961100  1
  C  C29  1  0.89522800  0.68575700  0.67650300  1
  C  C30  1  0.10469300  0.31431200  0.67677300  1
  S  S1  1  0.09801700  0.68313800  0.52155100  1
  S  S2  1  0.90199600  0.31681300  0.52172000  1
  S  S3  1  0.90199400  0.68313800  0.52439800  1
  S  S4  1  0.09801700  0.31681500  0.52466200  1
  N  N1  1  0.50000600  0.26490100  0.52309000  1
  N  N2  1  0.50000600  0.73505200  0.52309000  1
  O  O1  1  0.37657500  0.57708800  0.52312500  1
  O  O2  1  0.62343700  0.42286500  0.52305500  1
  O  O3  1  0.62343700  0.57708800  0.52305600  1
  O  O4  1  0.37657500  0.42286500  0.52312500  1
  O  O5  1  0.50002000  0.57709700  0.35591700  1
  O  O6  1  0.49999300  0.42285500  0.69026400  1
  O  O7  1  0.49999200  0.57709700  0.69026400  1
  O  O8  1  0.50001900  0.42285500  0.35591700  1
