# generated using pymatgen
data_Zn3H32C41O12
_symmetry_space_group_name_H-M   'P 1'
_cell_length_a   37.04314500
_cell_length_b   30.33270400
_cell_length_c   21.51393000
_cell_angle_alpha   90.00000000
_cell_angle_beta   54.98615600
_cell_angle_gamma   90.00000000
_symmetry_Int_Tables_number   1
_chemical_formula_structural   Zn3H32C41O12
_chemical_formula_sum   'Zn12 H128 C164 O48'
_cell_volume   19798.38447047
_cell_formula_units_Z   4
loop_
 _symmetry_equiv_pos_site_id
 _symmetry_equiv_pos_as_xyz
  1  'x, y, z'
loop_
 _atom_site_type_symbol
 _atom_site_label
 _atom_site_symmetry_multiplicity
 _atom_site_fract_x
 _atom_site_fract_y
 _atom_site_fract_z
 _atom_site_occupancy
  Zn  Zn1  1  0.00008000  0.54541200  0.49997300  1
  Zn  Zn2  1  0.50008000  0.04541200  0.49997300  1
  Zn  Zn3  1  0.99992300  0.44556700  0.50000800  1
  Zn  Zn4  1  0.49992300  0.94556700  0.50000800  1
  Zn  Zn5  1  0.95008300  0.49621400  0.04992400  1
  Zn  Zn6  1  0.04994200  0.49607900  0.95003200  1
  Zn  Zn7  1  0.45008300  0.99621400  0.04992400  1
  Zn  Zn8  1  0.54994200  0.99607900  0.95003200  1
  Zn  Zn9  1  0.49954200  0.49608100  0.93002000  1
  Zn  Zn10  1  0.50036600  0.49619400  0.06993800  1
  Zn  Zn11  1  0.99954200  0.99608100  0.93002000  1
  Zn  Zn12  1  0.00036600  0.99619400  0.06993800  1
  H  H1  1  0.96822000  0.56005800  0.33662300  1
  H  H2  1  0.02852800  0.56014000  0.66591500  1
  H  H3  1  0.46822000  0.06005800  0.33662300  1
  H  H4  1  0.52852800  0.06014000  0.66591500  1
  H  H5  1  0.93236400  0.51284600  0.36584700  1
  H  H6  1  0.06673900  0.51482900  0.63455000  1
  H  H7  1  0.43236400  0.01284600  0.36584700  1
  H  H8  1  0.56673900  0.01482900  0.63455000  1
  H  H9  1  0.93418300  0.52340000  0.26108000  1
  H  H10  1  0.06459500  0.52544500  0.73957100  1
  H  H11  1  0.43418300  0.02340000  0.26108000  1
  H  H12  1  0.56459500  0.02544500  0.73957100  1
  H  H13  1  0.97792100  0.56358800  0.22385400  1
  H  H14  1  0.01914700  0.56368300  0.77837900  1
  H  H15  1  0.47792100  0.06358800  0.22385400  1
  H  H16  1  0.51914700  0.06368300  0.77837900  1
  H  H17  1  0.04694600  0.54970400  0.24903800  1
  H  H18  1  0.95042300  0.54591400  0.75271800  1
  H  H19  1  0.54694600  0.04970400  0.24903800  1
  H  H20  1  0.45042300  0.04591400  0.75271800  1
  H  H21  1  0.05706700  0.54011200  0.13687500  1
  H  H22  1  0.94112200  0.53681300  0.86429200  1
  H  H23  1  0.55706700  0.04011200  0.13687500  1
  H  H24  1  0.44112200  0.03681300  0.86429200  1
  H  H25  1  0.01896700  0.42693600  0.27916800  1
  H  H26  1  0.98454700  0.42466600  0.71793300  1
  H  H27  1  0.51896700  0.92693600  0.27916800  1
  H  H28  1  0.48454700  0.92466600  0.71793300  1
  H  H29  1  0.96083600  0.43765800  0.34258300  1
  H  H30  1  0.04206900  0.43830200  0.65525900  1
  H  H31  1  0.46083600  0.93765800  0.34258300  1
  H  H32  1  0.54206900  0.93830200  0.65525900  1
  H  H33  1  0.95407600  0.44325200  0.24628400  1
  H  H34  1  0.04823900  0.44448500  0.75213300  1
  H  H35  1  0.45407600  0.94325200  0.24628400  1
  H  H36  1  0.54823900  0.94448500  0.75213300  1
  H  H37  1  0.01091000  0.42624300  0.18318600  1
  H  H38  1  0.99218000  0.42506600  0.81439000  1
  H  H39  1  0.51091000  0.92624300  0.18318600  1
  H  H40  1  0.49218000  0.92506600  0.81439000  1
  H  H41  1  0.06975100  0.48211700  0.13232800  1
  H  H42  1  0.93095600  0.47826700  0.86738100  1
  H  H43  1  0.56975100  0.98211700  0.13232800  1
  H  H44  1  0.43095600  0.97826700  0.86738100  1
  H  H45  1  0.77991900  0.43078100  0.75494400  1
  H  H46  1  0.22041300  0.42904900  0.24587500  1
  H  H47  1  0.27991900  0.93078100  0.75494400  1
  H  H48  1  0.72041300  0.92904900  0.24587500  1
  H  H49  1  0.86006600  0.43042300  0.67336600  1
  H  H50  1  0.14019700  0.42828200  0.32777300  1
  H  H51  1  0.36006600  0.93042300  0.67336600  1
  H  H52  1  0.64019700  0.92828200  0.32777300  1
  H  H53  1  0.85938000  0.56260200  0.60482200  1
  H  H54  1  0.14027500  0.56120600  0.39392100  1
  H  H55  1  0.35938000  0.06260200  0.60482200  1
  H  H56  1  0.64027500  0.06120600  0.39392100  1
  H  H57  1  0.77921500  0.56243000  0.68551000  1
  H  H58  1  0.22051200  0.56135500  0.31326100  1
  H  H59  1  0.27921500  0.06243000  0.68551000  1
  H  H60  1  0.72051200  0.06135500  0.31326100  1
  H  H61  1  0.71944000  0.52179000  0.68824900  1
  H  H62  1  0.28031700  0.51997000  0.31217400  1
  H  H63  1  0.21944000  0.02179000  0.68824900  1
  H  H64  1  0.78031700  0.01997000  0.31217400  1
  H  H65  1  0.63928300  0.52139500  0.76863300  1
  H  H66  1  0.36054800  0.51982100  0.23180100  1
  H  H67  1  0.13928300  0.02139500  0.76863300  1
  H  H68  1  0.86054800  0.01982100  0.23180100  1
  H  H69  1  0.64116500  0.47170300  0.95282200  1
  H  H70  1  0.35891100  0.47176400  0.04655700  1
  H  H71  1  0.14116500  0.97170300  0.95282200  1
  H  H72  1  0.85891100  0.97176400  0.04655700  1
  H  H73  1  0.72135900  0.47149300  0.87165300  1
  H  H74  1  0.27864400  0.47103500  0.12785300  1
  H  H75  1  0.22135900  0.97149300  0.87165300  1
  H  H76  1  0.77864400  0.97103500  0.12785300  1
  H  H77  1  0.06540600  0.71683100  0.89704500  1
  H  H78  1  0.93584700  0.71633600  0.10243600  1
  H  H79  1  0.56540600  0.21683100  0.89704500  1
  H  H80  1  0.43584700  0.21633600  0.10243600  1
  H  H81  1  0.06589800  0.63660700  0.89670500  1
  H  H82  1  0.93576900  0.63611900  0.10170800  1
  H  H83  1  0.56589800  0.13660700  0.89670500  1
  H  H84  1  0.43576900  0.13611900  0.10170800  1
  H  H85  1  0.47834100  0.27540900  0.11620300  1
  H  H86  1  0.52261300  0.27595600  0.88412700  1
  H  H87  1  0.97834100  0.77540900  0.11620300  1
  H  H88  1  0.02261300  0.77595600  0.88412700  1
  H  H89  1  0.47849600  0.35562100  0.11679000  1
  H  H90  1  0.52203800  0.35616100  0.88468600  1
  H  H91  1  0.97849600  0.85562100  0.11679000  1
  H  H92  1  0.02203800  0.85616100  0.88468600  1
  H  H93  1  0.06599700  0.27581700  0.96639600  1
  H  H94  1  0.93280700  0.27560700  0.03399300  1
  H  H95  1  0.56599700  0.77581700  0.96639600  1
  H  H96  1  0.43280700  0.77560700  0.03399300  1
  H  H97  1  0.06604000  0.35604200  0.96621900  1
  H  H98  1  0.93232700  0.35581700  0.03535100  1
  H  H99  1  0.56604000  0.85604200  0.96621900  1
  H  H100  1  0.43232700  0.85581700  0.03535100  1
  H  H101  1  0.47264900  0.71678700  0.93463900  1
  H  H102  1  0.52648800  0.71642500  0.06476700  1
  H  H103  1  0.97264900  0.21678700  0.93463900  1
  H  H104  1  0.02648800  0.21642500  0.06476700  1
  H  H105  1  0.47315500  0.63657600  0.93331600  1
  H  H106  1  0.52630600  0.63621500  0.06494500  1
  H  H107  1  0.97315500  0.13657600  0.93331600  1
  H  H108  1  0.02630600  0.13621500  0.06494500  1
  H  H109  1  0.08783700  0.45677200  0.21300700  1
  H  H110  1  0.08429300  0.49357500  0.28187700  1
  H  H111  1  0.12510200  0.54394600  0.14108500  1
  H  H112  1  0.16756000  0.47144300  0.17734500  1
  H  H113  1  0.19548800  0.51725200  0.10640300  1
  H  H114  1  0.91424500  0.45102200  0.78607900  1
  H  H115  1  0.91592300  0.48718500  0.71820500  1
  H  H116  1  0.87277000  0.53678200  0.86001300  1
  H  H117  1  0.83380600  0.46081900  0.82327000  1
  H  H118  1  0.80372000  0.50587500  0.89501800  1
  H  H119  1  0.58783700  0.95677200  0.21300700  1
  H  H120  1  0.58429300  0.99357500  0.28187700  1
  H  H121  1  0.62510200  0.04394600  0.14108500  1
  H  H122  1  0.66756000  0.97144300  0.17734500  1
  H  H123  1  0.69548800  0.01725200  0.10640300  1
  H  H124  1  0.41424500  0.95102200  0.78607900  1
  H  H125  1  0.41592300  0.98718500  0.71820500  1
  H  H126  1  0.37277000  0.03678200  0.86001300  1
  H  H127  1  0.33380600  0.96081900  0.82327000  1
  H  H128  1  0.30372000  0.00587500  0.89501800  1
  C  C1  1  0.91366800  0.49651400  0.58477500  1
  C  C2  1  0.08635000  0.49449800  0.41520700  1
  C  C3  1  0.41366800  0.99651400  0.58477500  1
  C  C4  1  0.58635000  0.99449800  0.41520700  1
  C  C5  1  0.00034200  0.49641800  0.37797800  1
  C  C6  1  0.99964400  0.49458800  0.62198800  1
  C  C7  1  0.50034200  0.99641800  0.37797800  1
  C  C8  1  0.49964400  0.99458800  0.62198800  1
  C  C9  1  0.96487900  0.52648400  0.32013500  1
  C  C10  1  0.03360600  0.52685700  0.68092700  1
  C  C11  1  0.46487900  0.02648400  0.32013500  1
  C  C12  1  0.53360600  0.02685700  0.68092700  1
  C  C13  1  0.96742900  0.52986500  0.24755200  1
  C  C14  1  0.03106000  0.53039400  0.75348700  1
  C  C15  1  0.46742900  0.02986500  0.24755200  1
  C  C16  1  0.53106000  0.03039400  0.75348700  1
  C  C17  1  0.04525900  0.51400500  0.23984600  1
  C  C18  1  0.95393100  0.51044700  0.76073700  1
  C  C19  1  0.54525900  0.01400500  0.23984600  1
  C  C20  1  0.45393100  0.01044700  0.76073700  1
  C  C21  1  0.99237400  0.45007300  0.29209000  1
  C  C22  1  0.00989600  0.44919200  0.70612600  1
  C  C23  1  0.49237400  0.95007300  0.29209000  1
  C  C24  1  0.50989600  0.94919200  0.70612600  1
  C  C25  1  0.00126500  0.49638800  0.30770200  1
  C  C26  1  0.99873400  0.49487100  0.69225300  1
  C  C27  1  0.50126500  0.99638800  0.30770200  1
  C  C28  1  0.49873400  0.99487100  0.69225300  1
  C  C29  1  0.00055200  0.49660800  0.19042400  1
  C  C30  1  0.99946800  0.49582800  0.80950300  1
  C  C31  1  0.50055200  0.99660800  0.19042400  1
  C  C32  1  0.49946800  0.99582800  0.80950300  1
  C  C33  1  0.04627100  0.50854200  0.16865500  1
  C  C34  1  0.95325400  0.50556500  0.83168800  1
  C  C35  1  0.54627100  0.00854200  0.16865500  1
  C  C36  1  0.45325400  0.00556500  0.83168800  1
  C  C37  1  0.98844700  0.45115300  0.22586700  1
  C  C38  1  0.01359300  0.45081900  0.77258300  1
  C  C39  1  0.48844700  0.95115300  0.22586700  1
  C  C40  1  0.51359300  0.95081900  0.77258300  1
  C  C41  1  0.79723400  0.45988300  0.72223000  1
  C  C42  1  0.20292400  0.45819400  0.27821600  1
  C  C43  1  0.29723400  0.95988300  0.72223000  1
  C  C44  1  0.70292400  0.95819400  0.27821600  1
  C  C45  1  0.84265300  0.45956400  0.67535600  1
  C  C46  1  0.15750800  0.45765400  0.32522000  1
  C  C47  1  0.34265300  0.95956400  0.67535600  1
  C  C48  1  0.65750800  0.95765400  0.32522000  1
  C  C49  1  0.86540200  0.49646600  0.63319000  1
  C  C50  1  0.13460200  0.49466700  0.36674300  1
  C  C51  1  0.36540200  0.99646600  0.63319000  1
  C  C52  1  0.63460200  0.99466700  0.36674300  1
  C  C53  1  0.84227300  0.53343500  0.63751400  1
  C  C54  1  0.15754700  0.53196700  0.36169400  1
  C  C55  1  0.34227300  0.03343500  0.63751400  1
  C  C56  1  0.65754700  0.03196700  0.36169400  1
  C  C57  1  0.79683300  0.53324900  0.68272500  1
  C  C58  1  0.20298600  0.53197800  0.31652400  1
  C  C59  1  0.29683300  0.03324900  0.68272500  1
  C  C60  1  0.70298600  0.03197800  0.31652400  1
  C  C61  1  0.77411600  0.49660100  0.72570600  1
  C  C62  1  0.22585100  0.49522300  0.27415400  1
  C  C63  1  0.27411600  0.99660100  0.72570600  1
  C  C64  1  0.72585100  0.99522300  0.27415400  1
  C  C65  1  0.70238900  0.51096100  0.74647500  1
  C  C66  1  0.29746000  0.50950100  0.25374600  1
  C  C67  1  0.20238900  0.01096100  0.74647500  1
  C  C68  1  0.79746000  0.00950100  0.25374600  1
  C  C69  1  0.65695300  0.51033300  0.79190000  1
  C  C70  1  0.34289800  0.50901900  0.20835700  1
  C  C71  1  0.15695300  0.01033300  0.79190000  1
  C  C72  1  0.84289800  0.00901900  0.20835700  1
  C  C73  1  0.63452800  0.49653300  0.86646000  1
  C  C74  1  0.36537700  0.49580200  0.13349800  1
  C  C75  1  0.13452800  0.99653300  0.86646000  1
  C  C76  1  0.86537700  0.99580200  0.13349800  1
  C  C77  1  0.65801100  0.48282500  0.89480000  1
  C  C78  1  0.34197600  0.48245200  0.10482400  1
  C  C79  1  0.15801100  0.98282500  0.89480000  1
  C  C80  1  0.84197600  0.98245200  0.10482400  1
  C  C81  1  0.70345400  0.48230300  0.84866600  1
  C  C82  1  0.29653700  0.48164500  0.15096700  1
  C  C83  1  0.20345400  0.98230300  0.84866600  1
  C  C84  1  0.79653700  0.98164500  0.15096700  1
  C  C85  1  0.72584100  0.49664000  0.77445900  1
  C  C86  1  0.27410000  0.49547600  0.22543800  1
  C  C87  1  0.22584100  0.99664000  0.77445900  1
  C  C88  1  0.77410000  0.99547600  0.22543800  1
  C  C89  1  0.00097700  0.58246200  0.99890900  1
  C  C90  1  0.50097700  0.08246200  0.99890900  1
  C  C91  1  0.00000300  0.49651300  0.12164000  1
  C  C92  1  0.00002300  0.49615000  0.87828100  1
  C  C93  1  0.50000300  0.99651300  0.12164000  1
  C  C94  1  0.50002300  0.99615000  0.87828100  1
  C  C95  1  0.99904600  0.40983900  0.00106800  1
  C  C96  1  0.49904600  0.90983900  0.00106800  1
  C  C97  1  0.50013000  0.40981900  0.00110700  1
  C  C98  1  0.00013000  0.90981900  0.00110700  1
  C  C99  1  0.58624100  0.49638800  0.91501100  1
  C  C100  1  0.41365100  0.49592100  0.08496000  1
  C  C101  1  0.08624100  0.99638800  0.91501100  1
  C  C102  1  0.91365100  0.99592100  0.08496000  1
  C  C103  1  0.49979800  0.58246600  0.99882800  1
  C  C104  1  0.99979800  0.08246600  0.99882800  1
  C  C105  1  0.03676200  0.69923100  0.94196700  1
  C  C106  1  0.96457800  0.69895400  0.05727100  1
  C  C107  1  0.53676200  0.19923100  0.94196700  1
  C  C108  1  0.46457800  0.19895400  0.05727100  1
  C  C109  1  0.03715800  0.65378900  0.94222300  1
  C  C110  1  0.96441400  0.65351700  0.05640200  1
  C  C111  1  0.53715800  0.15378900  0.94222300  1
  C  C112  1  0.46441400  0.15351700  0.05640200  1
  C  C113  1  0.00084500  0.63072200  0.99916200  1
  C  C114  1  0.50084500  0.13072200  0.99916200  1
  C  C115  1  0.00061300  0.72200100  0.99978000  1
  C  C116  1  0.50061300  0.22200100  0.99978000  1
  C  C117  1  0.48778900  0.29302100  0.06527900  1
  C  C118  1  0.51307300  0.29332700  0.93530100  1
  C  C119  1  0.98778900  0.79302100  0.06527900  1
  C  C120  1  0.01307300  0.79332700  0.93530100  1
  C  C121  1  0.48828100  0.33846200  0.06532700  1
  C  C122  1  0.51234000  0.33876500  0.93590700  1
  C  C123  1  0.98828100  0.83846200  0.06532700  1
  C  C124  1  0.01234000  0.83876500  0.93590700  1
  C  C125  1  0.50024800  0.36155100  0.00078200  1
  C  C126  1  0.00024800  0.86155100  0.00078200  1
  C  C127  1  0.50049200  0.27026500  0.00012500  1
  C  C128  1  0.00049200  0.77026500  0.00012500  1
  C  C129  1  0.03647900  0.29326100  0.98191400  1
  C  C130  1  0.96222900  0.29314300  0.01875100  1
  C  C131  1  0.53647900  0.79326100  0.98191400  1
  C  C132  1  0.46222900  0.79314300  0.01875100  1
  C  C133  1  0.03658800  0.33870600  0.98116000  1
  C  C134  1  0.96186700  0.33857900  0.02019000  1
  C  C135  1  0.53658800  0.83870600  0.98116000  1
  C  C136  1  0.46186700  0.83857900  0.02019000  1
  C  C137  1  0.99916500  0.36157600  0.00083800  1
  C  C138  1  0.49916500  0.86157600  0.00083800  1
  C  C139  1  0.99942000  0.27029200  0.00014400  1
  C  C140  1  0.49942000  0.77029200  0.00014400  1
  C  C141  1  0.48430100  0.69921400  0.96362300  1
  C  C142  1  0.51491600  0.69901700  0.03551500  1
  C  C143  1  0.98430100  0.19921400  0.96362300  1
  C  C144  1  0.01491600  0.19901700  0.03551500  1
  C  C145  1  0.48498800  0.65377500  0.96232400  1
  C  C146  1  0.51441400  0.65357400  0.03616600  1
  C  C147  1  0.98498800  0.15377500  0.96232400  1
  C  C148  1  0.01441400  0.15357400  0.03616600  1
  C  C149  1  0.49974100  0.63073600  0.99909400  1
  C  C150  1  0.99974100  0.13073600  0.99909400  1
  C  C151  1  0.49955400  0.72202500  0.99974400  1
  C  C152  1  0.99955400  0.22202500  0.99974400  1
  C  C153  1  0.08556200  0.49182700  0.22931400  1
  C  C154  1  0.12664000  0.51497400  0.16897500  1
  C  C155  1  0.16559700  0.50033400  0.14979500  1
  C  C156  1  0.91476900  0.48598000  0.77069600  1
  C  C157  1  0.87261800  0.50728900  0.83171700  1
  C  C158  1  0.83439300  0.49030400  0.85111500  1
  C  C159  1  0.58556200  0.99182700  0.22931400  1
  C  C160  1  0.62664000  0.01497400  0.16897500  1
  C  C161  1  0.66559700  0.00033400  0.14979500  1
  C  C162  1  0.41476900  0.98598000  0.77069600  1
  C  C163  1  0.37261800  0.00728900  0.83171700  1
  C  C164  1  0.33439300  0.99030400  0.85111500  1
  O  O1  1  0.93419600  0.53454500  0.56246600  1
  O  O2  1  0.06563400  0.53247600  0.43490600  1
  O  O3  1  0.43419600  0.03454500  0.56246600  1
  O  O4  1  0.56563400  0.03247600  0.43490600  1
  O  O5  1  0.93435100  0.45853900  0.56650400  1
  O  O6  1  0.06586700  0.45641100  0.43599300  1
  O  O7  1  0.43435100  0.95853900  0.56650400  1
  O  O8  1  0.56586700  0.95641100  0.43599300  1
  O  O9  1  0.99986800  0.53449800  0.40731100  1
  O  O10  1  0.99821800  0.53252500  0.59416900  1
  O  O11  1  0.49986800  0.03449800  0.40731100  1
  O  O12  1  0.49821800  0.03252500  0.59416900  1
  O  O13  1  0.00075600  0.45842200  0.40673500  1
  O  O14  1  0.00121300  0.45650100  0.59164100  1
  O  O15  1  0.50075600  0.95842200  0.40673500  1
  O  O16  1  0.50121300  0.95650100  0.59164100  1
  O  O17  1  0.96302300  0.56176700  0.03893600  1
  O  O18  1  0.03902000  0.56197700  0.95873400  1
  O  O19  1  0.46302300  0.06176700  0.03893600  1
  O  O20  1  0.53902000  0.06197700  0.95873400  1
  O  O21  1  0.96176300  0.49479400  0.13110000  1
  O  O22  1  0.03829600  0.49650800  0.86879500  1
  O  O23  1  0.46176300  0.99479400  0.13110000  1
  O  O24  1  0.53829600  0.99650800  0.86879500  1
  O  O25  1  0.03774900  0.49778100  0.05463400  1
  O  O26  1  0.96226200  0.49564200  0.94530500  1
  O  O27  1  0.53774900  0.99778100  0.05463400  1
  O  O28  1  0.46226200  0.99564200  0.94530500  1
  O  O29  1  0.96098400  0.43033300  0.03978500  1
  O  O30  1  0.03702000  0.43054300  0.96242700  1
  O  O31  1  0.46098400  0.93033300  0.03978500  1
  O  O32  1  0.53702000  0.93054300  0.96242700  1
  O  O33  1  0.49929100  0.43053300  0.94839500  1
  O  O34  1  0.50090300  0.43031300  0.05402500  1
  O  O35  1  0.99929100  0.93053300  0.94839500  1
  O  O36  1  0.00090300  0.93031300  0.05402500  1
  O  O37  1  0.56515600  0.49784200  0.88260800  1
  O  O38  1  0.43472600  0.49562300  0.11741600  1
  O  O39  1  0.06515600  0.99784200  0.88260800  1
  O  O40  1  0.93472600  0.99562300  0.11741600  1
  O  O41  1  0.56609400  0.49476100  0.98881800  1
  O  O42  1  0.43379300  0.49635300  0.01111000  1
  O  O43  1  0.06609400  0.99476100  0.98881800  1
  O  O44  1  0.93379300  0.99635300  0.01111000  1
  O  O45  1  0.49788100  0.56197200  0.94709600  1
  O  O46  1  0.50171600  0.56175600  0.05042400  1
  O  O47  1  0.99788100  0.06197200  0.94709600  1
  O  O48  1  0.00171600  0.06175600  0.05042400  1
