# generated using pymatgen
data_Cu3H29C58N4(ClO4)3
_symmetry_space_group_name_H-M   'P 1'
_cell_length_a   30.51527100
_cell_length_b   30.70905200
_cell_length_c   24.53404600
_cell_angle_alpha   90.00000000
_cell_angle_beta   128.44668400
_cell_angle_gamma   90.00000000
_symmetry_Int_Tables_number   1
_chemical_formula_structural   Cu3H29C58N4(ClO4)3
_chemical_formula_sum   'Cu12 H116 C232 N16 Cl12 O48'
_cell_volume   18006.04526663
_cell_formula_units_Z   4
loop_
 _symmetry_equiv_pos_site_id
 _symmetry_equiv_pos_as_xyz
  1  'x, y, z'
loop_
 _atom_site_type_symbol
 _atom_site_label
 _atom_site_symmetry_multiplicity
 _atom_site_fract_x
 _atom_site_fract_y
 _atom_site_fract_z
 _atom_site_occupancy
  Cu  Cu1  1  0.71632400  0.27328500  0.50003900  1
  Cu  Cu2  1  0.28367700  0.27328500  0.49996700  1
  Cu  Cu3  1  0.21632400  0.77328500  0.50003900  1
  Cu  Cu4  1  0.78367700  0.77328500  0.49996700  1
  Cu  Cu5  1  0.77708700  0.21091100  0.50038700  1
  Cu  Cu6  1  0.22291400  0.21091100  0.49961900  1
  Cu  Cu7  1  0.27708700  0.71091100  0.50038700  1
  Cu  Cu8  1  0.72291400  0.71091100  0.49961900  1
  Cu  Cu9  1  0.96646800  0.48808300  0.43195400  1
  Cu  Cu10  1  0.03353000  0.48808200  0.56804700  1
  Cu  Cu11  1  0.46646800  0.98808300  0.43195400  1
  Cu  Cu12  1  0.53352900  0.98808200  0.56804700  1
  H  H1  1  0.67552300  0.18450900  0.27930300  1
  H  H2  1  0.32447800  0.18450900  0.72070300  1
  H  H3  1  0.17552300  0.68450900  0.27930300  1
  H  H4  1  0.82447800  0.68450900  0.72070300  1
  H  H5  1  0.61109100  0.18546300  0.15320600  1
  H  H6  1  0.38891000  0.18546300  0.84680000  1
  H  H7  1  0.11109100  0.68546300  0.15320600  1
  H  H8  1  0.88891000  0.68546300  0.84680000  1
  H  H9  1  0.59900100  0.29961000  0.28343500  1
  H  H10  1  0.40100000  0.29961000  0.71657100  1
  H  H11  1  0.09900100  0.79961000  0.28343500  1
  H  H12  1  0.90099900  0.79961000  0.71657100  1
  H  H13  1  0.66554000  0.10585400  0.44732600  1
  H  H14  1  0.33446200  0.10585500  0.55268000  1
  H  H15  1  0.16554000  0.60585400  0.44732600  1
  H  H16  1  0.83446300  0.60585500  0.55268000  1
  H  H17  1  0.66592400  0.21806100  0.58677600  1
  H  H18  1  0.33408000  0.21806300  0.41323200  1
  H  H19  1  0.16592400  0.71806100  0.58677600  1
  H  H20  1  0.83408000  0.71806300  0.41323200  1
  H  H21  1  0.61457700  0.22780100  0.62934500  1
  H  H22  1  0.38542700  0.22780300  0.37066300  1
  H  H23  1  0.11457700  0.72780100  0.62934500  1
  H  H24  1  0.88542700  0.72780300  0.37066300  1
  H  H25  1  0.54380700  0.10282800  0.55905500  1
  H  H26  1  0.45619500  0.10282900  0.44094900  1
  H  H27  1  0.04380700  0.60282800  0.55905500  1
  H  H28  1  0.95619500  0.60282900  0.44095000  1
  H  H29  1  0.61120700  0.04726400  0.44548900  1
  H  H30  1  0.38879400  0.04726500  0.55451600  1
  H  H31  1  0.11120700  0.54726400  0.44548900  1
  H  H32  1  0.88879400  0.54726500  0.55451600  1
  H  H33  1  0.92051500  0.21555800  0.71792700  1
  H  H34  1  0.07948800  0.21555700  0.28207900  1
  H  H35  1  0.42051500  0.71555800  0.71792700  1
  H  H36  1  0.57948800  0.71555700  0.28207900  1
  H  H37  1  0.98508800  0.21690000  0.84424700  1
  H  H38  1  0.01491500  0.21689900  0.15575900  1
  H  H39  1  0.48508800  0.71690000  0.84424700  1
  H  H40  1  0.51491500  0.71689900  0.15575900  1
  H  H41  1  0.85741200  0.27203000  0.84629800  1
  H  H42  1  0.14259000  0.27203200  0.15370800  1
  H  H43  1  0.35741200  0.77203000  0.84629800  1
  H  H44  1  0.64259000  0.77203200  0.15370800  1
  H  H45  1  0.79338600  0.27189300  0.71980000  1
  H  H46  1  0.20661600  0.27189400  0.28020600  1
  H  H47  1  0.29338600  0.77189300  0.71980000  1
  H  H48  1  0.70661600  0.77189400  0.28020600  1
  H  H49  1  0.91513000  0.30367000  0.57729800  1
  H  H50  1  0.08487000  0.30367500  0.42269000  1
  H  H51  1  0.41513000  0.80366900  0.57729700  1
  H  H52  1  0.58487000  0.80367500  0.42268900  1
  H  H53  1  0.72849500  0.34332500  0.38785900  1
  H  H54  1  0.27150000  0.34331700  0.61215500  1
  H  H55  1  0.22849500  0.84332600  0.38785900  1
  H  H56  1  0.77150000  0.84331700  0.61215600  1
  H  H57  1  0.68624700  0.40407100  0.30907200  1
  H  H58  1  0.31374800  0.40405700  0.69095500  1
  H  H59  1  0.18624700  0.90407200  0.30907300  1
  H  H60  1  0.81374800  0.90405700  0.69095600  1
  H  H61  1  0.74411900  0.46377300  0.31875800  1
  H  H62  1  0.25587700  0.46376000  0.68126800  1
  H  H63  1  0.24411900  0.96377400  0.31875800  1
  H  H64  1  0.75587600  0.96376000  0.68126900  1
  H  H65  1  0.84399800  0.46210700  0.40578800  1
  H  H66  1  0.15599900  0.46210000  0.59422500  1
  H  H67  1  0.34399800  0.96210700  0.40578800  1
  H  H68  1  0.65599900  0.96210000  0.59422500  1
  H  H69  1  0.98684000  0.30267900  0.53553400  1
  H  H70  1  0.08916900  0.29444100  0.61080900  1
  H  H71  1  0.10685200  0.39700100  0.74005700  1
  H  H72  1  0.00469300  0.40549800  0.66410900  1
  H  H73  1  0.01314100  0.30267100  0.46441000  1
  H  H74  1  0.91081200  0.29443200  0.38910300  1
  H  H75  1  0.89316200  0.39701800  0.25991200  1
  H  H76  1  0.99532200  0.40551600  0.33589100  1
  H  H77  1  0.48684000  0.80267900  0.53553200  1
  H  H78  1  0.58916800  0.79444100  0.61080600  1
  H  H79  1  0.60685200  0.89700100  0.74005500  1
  H  H80  1  0.50469300  0.90549800  0.66410900  1
  H  H81  1  0.51314000  0.80267100  0.46440800  1
  H  H82  1  0.41081200  0.79443200  0.38910000  1
  H  H83  1  0.39316300  0.89701900  0.25991100  1
  H  H84  1  0.49532300  0.90551600  0.33589100  1
  H  H85  1  0.57851700  0.36163100  0.19663500  1
  H  H86  1  0.50491600  0.41726600  0.14275300  1
  H  H87  1  0.38046100  0.31803100  0.04410700  1
  H  H88  1  0.45380100  0.26217600  0.09849600  1
  H  H89  1  0.42148400  0.36163100  0.80337100  1
  H  H90  1  0.49508400  0.41726600  0.85725300  1
  H  H91  1  0.61954000  0.31803100  0.95589900  1
  H  H92  1  0.54619900  0.26217600  0.90151000  1
  H  H93  1  0.07851600  0.86163100  0.19663500  1
  H  H94  1  0.00491600  0.91726600  0.14275300  1
  H  H95  1  0.88046100  0.81803100  0.04410700  1
  H  H96  1  0.95380100  0.76217600  0.09849600  1
  H  H97  1  0.92148400  0.86163100  0.80337100  1
  H  H98  1  0.99508400  0.91726600  0.85725300  1
  H  H99  1  0.11954000  0.81803100  0.95589900  1
  H  H100  1  0.04619900  0.76217600  0.90151000  1
  H  H101  1  0.51317200  0.23455300  0.57876800  1
  H  H102  1  0.45616200  0.24055500  0.61745200  1
  H  H103  1  0.50742800  0.11363600  0.70571800  1
  H  H104  1  0.56539400  0.10750200  0.66911500  1
  H  H105  1  0.48683200  0.23455300  0.42123800  1
  H  H106  1  0.54384200  0.24055400  0.38255500  1
  H  H107  1  0.49257200  0.11363600  0.29428600  1
  H  H108  1  0.43460600  0.10750400  0.33088900  1
  H  H109  1  0.01317200  0.73455300  0.57876800  1
  H  H110  1  0.95616200  0.74055500  0.61745200  1
  H  H111  1  0.00742800  0.61363600  0.70571800  1
  H  H112  1  0.06539400  0.60750200  0.66911500  1
  H  H113  1  0.98683200  0.73455300  0.42123800  1
  H  H114  1  0.04384200  0.74055400  0.38255500  1
  H  H115  1  0.99257200  0.61363600  0.29428600  1
  H  H116  1  0.93460600  0.60750400  0.33088900  1
  C  C1  1  0.68786900  0.18364500  0.50370300  1
  C  C2  1  0.31213300  0.18364600  0.49630300  1
  C  C3  1  0.18786900  0.68364500  0.50370400  1
  C  C4  1  0.81213300  0.68364600  0.49630300  1
  C  C5  1  0.68024600  0.24176800  0.36651900  1
  C  C6  1  0.31975500  0.24176800  0.63348700  1
  C  C7  1  0.18024600  0.74176800  0.36651900  1
  C  C8  1  0.81975500  0.74176800  0.63348700  1
  C  C9  1  0.80552800  0.30032800  0.49728400  1
  C  C10  1  0.19447100  0.30032700  0.50272100  1
  C  C11  1  0.30552800  0.80032800  0.49728400  1
  C  C12  1  0.69447100  0.80032700  0.50272100  1
  C  C13  1  0.81385600  0.24316100  0.63395000  1
  C  C14  1  0.18614600  0.24316200  0.36605600  1
  C  C15  1  0.31385600  0.74316100  0.63395000  1
  C  C16  1  0.68614600  0.74316200  0.36605600  1
  C  C17  1  0.64490600  0.21031000  0.25303500  1
  C  C18  1  0.35509500  0.21031000  0.74697100  1
  C  C19  1  0.14490600  0.71031000  0.25303500  1
  C  C20  1  0.85509500  0.71031000  0.74697100  1
  C  C21  1  0.60778200  0.21055100  0.18135800  1
  C  C22  1  0.39221900  0.21055100  0.81864800  1
  C  C23  1  0.10778200  0.71055100  0.18135800  1
  C  C24  1  0.89221900  0.71055100  0.81864800  1
  C  C25  1  0.56804600  0.24303700  0.14586500  1
  C  C26  1  0.43195400  0.24303700  0.85414100  1
  C  C27  1  0.06804600  0.74303700  0.14586500  1
  C  C28  1  0.93195400  0.74303700  0.85414200  1
  C  C29  1  0.56502600  0.27517400  0.18339300  1
  C  C30  1  0.43497400  0.27517400  0.81661300  1
  C  C31  1  0.06502600  0.77517400  0.18339300  1
  C  C32  1  0.93497400  0.77517400  0.81661300  1
  C  C33  1  0.60251400  0.27481200  0.25512000  1
  C  C34  1  0.39748700  0.27481200  0.74488600  1
  C  C35  1  0.10251400  0.77481200  0.25512100  1
  C  C36  1  0.89748700  0.77481200  0.74488600  1
  C  C37  1  0.64241800  0.24248100  0.29027900  1
  C  C38  1  0.35758300  0.24248100  0.70972700  1
  C  C39  1  0.14241800  0.74248100  0.29027900  1
  C  C40  1  0.85758300  0.74248100  0.70972700  1
  C  C41  1  0.46811500  0.24332700  0.93051900  1
  C  C42  1  0.53188500  0.24332700  0.06948700  1
  C  C43  1  0.96811500  0.74332700  0.93051900  1
  C  C44  1  0.03188500  0.74332700  0.06948700  1
  C  C45  1  0.63726800  0.19256400  0.57548900  1
  C  C46  1  0.36273600  0.19256500  0.42451900  1
  C  C47  1  0.13726800  0.69256400  0.57548900  1
  C  C48  1  0.86273600  0.69256500  0.42451900  1
  C  C49  1  0.60876700  0.19817700  0.60175600  1
  C  C50  1  0.39123600  0.19817900  0.39825100  1
  C  C51  1  0.10876700  0.69817800  0.60175600  1
  C  C52  1  0.89123600  0.69817900  0.39825100  1
  C  C53  1  0.57488100  0.16565700  0.59510900  1
  C  C54  1  0.42512200  0.16565800  0.40489600  1
  C  C55  1  0.07488100  0.66565700  0.59511000  1
  C  C56  1  0.92512100  0.66565800  0.40489600  1
  C  C57  1  0.57075400  0.12737900  0.56351100  1
  C  C58  1  0.42924700  0.12738100  0.43649400  1
  C  C59  1  0.07075400  0.62737900  0.56351100  1
  C  C60  1  0.92924700  0.62738100  0.43649400  1
  C  C61  1  0.59762300  0.12164200  0.53492000  1
  C  C62  1  0.40237900  0.12164300  0.46508600  1
  C  C63  1  0.09762300  0.62164200  0.53492000  1
  C  C64  1  0.90237900  0.62164300  0.46508600  1
  C  C65  1  0.62979800  0.15519200  0.53822700  1
  C  C66  1  0.37020500  0.15519300  0.46177900  1
  C  C67  1  0.12979800  0.65519200  0.53822700  1
  C  C68  1  0.87020500  0.65519300  0.46178000  1
  C  C69  1  0.65460400  0.14977300  0.50596800  1
  C  C70  1  0.34539900  0.14977500  0.49403900  1
  C  C71  1  0.15460400  0.64977300  0.50596800  1
  C  C72  1  0.84539900  0.64977500  0.49403900  1
  C  C73  1  0.64745800  0.11067000  0.47324700  1
  C  C74  1  0.35254500  0.11067100  0.52675900  1
  C  C75  1  0.14745800  0.61067000  0.47324700  1
  C  C76  1  0.85254500  0.61067100  0.52675900  1
  C  C77  1  0.61626800  0.07749700  0.47141000  1
  C  C78  1  0.38373400  0.07749800  0.52859500  1
  C  C79  1  0.11626800  0.57749700  0.47141000  1
  C  C80  1  0.88373400  0.57749800  0.52859600  1
  C  C81  1  0.59171600  0.08254500  0.50260200  1
  C  C82  1  0.40828500  0.08254600  0.49740300  1
  C  C83  1  0.09171600  0.58254500  0.50260200  1
  C  C84  1  0.90828500  0.58254600  0.49740300  1
  C  C85  1  0.90630300  0.22801100  0.74573600  1
  C  C86  1  0.09370000  0.22801000  0.25427000  1
  C  C87  1  0.40630300  0.72801100  0.74573600  1
  C  C88  1  0.59370000  0.72801000  0.25427000  1
  C  C89  1  0.94308800  0.22911500  0.81743600  1
  C  C90  1  0.05691400  0.22911400  0.18257000  1
  C  C91  1  0.44308800  0.72911500  0.81743600  1
  C  C92  1  0.55691400  0.72911400  0.18257000  1
  C  C93  1  0.92581600  0.24454300  0.85422200  1
  C  C94  1  0.07418700  0.24454300  0.14578400  1
  C  C95  1  0.42581600  0.74454300  0.85422200  1
  C  C96  1  0.57418700  0.74454300  0.14578400  1
  C  C97  1  0.87167600  0.25954800  0.81856600  1
  C  C98  1  0.12832600  0.25954900  0.18144000  1
  C  C99  1  0.37167600  0.75954800  0.81856600  1
  C  C100  1  0.62832600  0.75954900  0.18144000  1
  C  C101  1  0.83546500  0.25979200  0.74679200  1
  C  C102  1  0.16453700  0.25979400  0.25321500  1
  C  C103  1  0.33546500  0.75979200  0.74679200  1
  C  C104  1  0.66453700  0.75979300  0.25321500  1
  C  C105  1  0.85248900  0.24367300  0.71009700  1
  C  C106  1  0.14751300  0.24367400  0.28990900  1
  C  C107  1  0.35248900  0.74367300  0.71009800  1
  C  C108  1  0.64751300  0.74367400  0.28990900  1
  C  C109  1  0.03540700  0.24482900  0.06956100  1
  C  C110  1  0.96459600  0.24482900  0.93044500  1
  C  C111  1  0.53540700  0.74482900  0.06956100  1
  C  C112  1  0.46459600  0.74482900  0.93044500  1
  C  C113  1  0.75574800  0.36895200  0.39489000  1
  C  C114  1  0.24424800  0.36894400  0.60512500  1
  C  C115  1  0.25574800  0.86895200  0.39489000  1
  C  C116  1  0.74424800  0.86894300  0.60512600  1
  C  C117  1  0.73115500  0.40321600  0.34896600  1
  C  C118  1  0.26884100  0.40320400  0.65105600  1
  C  C119  1  0.23115500  0.90321600  0.34896600  1
  C  C120  1  0.76884100  0.90320400  0.65105600  1
  C  C121  1  0.76355200  0.43647200  0.35414800  1
  C  C122  1  0.23644400  0.43646100  0.64587300  1
  C  C123  1  0.26355200  0.93647200  0.35414800  1
  C  C124  1  0.73644400  0.93646100  0.64587400  1
  C  C125  1  0.82078700  0.43490500  0.40377600  1
  C  C126  1  0.17921000  0.43489800  0.59623800  1
  C  C127  1  0.32078600  0.93490500  0.40377600  1
  C  C128  1  0.67921000  0.93489800  0.59623800  1
  C  C129  1  0.84655000  0.39982900  0.44929700  1
  C  C130  1  0.15344700  0.39982400  0.55071100  1
  C  C131  1  0.34655000  0.89982900  0.44929700  1
  C  C132  1  0.65344700  0.89982400  0.55071100  1
  C  C133  1  0.81343500  0.36748900  0.44663300  1
  C  C134  1  0.18656200  0.36748400  0.55337500  1
  C  C135  1  0.31343500  0.86748900  0.44663400  1
  C  C136  1  0.68656200  0.86748400  0.55337600  1
  C  C137  1  0.83844600  0.33340800  0.49422600  1
  C  C138  1  0.16155300  0.33340700  0.50577700  1
  C  C139  1  0.33844600  0.83340800  0.49422600  1
  C  C140  1  0.66155200  0.83340700  0.50577700  1
  C  C141  1  0.89580800  0.33060400  0.54113600  1
  C  C142  1  0.10419100  0.33060700  0.45885800  1
  C  C143  1  0.39580800  0.83060400  0.54113500  1
  C  C144  1  0.60419100  0.83060700  0.45885800  1
  C  C145  1  0.92897600  0.36240900  0.54416500  1
  C  C146  1  0.07102200  0.36241200  0.45582600  1
  C  C147  1  0.42897500  0.86240900  0.54416500  1
  C  C148  1  0.57102200  0.86241200  0.45582500  1
  C  C149  1  0.90470900  0.39716700  0.49800000  1
  C  C150  1  0.09528800  0.39716600  0.50199800  1
  C  C151  1  0.40470900  0.89716700  0.49800000  1
  C  C152  1  0.59528800  0.89716600  0.50199800  1
  C  C153  1  0.05937100  0.42967500  0.50086400  1
  C  C154  1  0.94062500  0.42967600  0.49913500  1
  C  C155  1  0.55937100  0.92967500  0.50086400  1
  C  C156  1  0.44062500  0.92967600  0.49913400  1
  C  C157  1  0.55931800  0.04639200  0.50061600  1
  C  C158  1  0.44068300  0.04639300  0.49938800  1
  C  C159  1  0.05931800  0.54639200  0.50061600  1
  C  C160  1  0.94068300  0.54639200  0.49938800  1
  C  C161  1  0.98967600  0.35638200  0.59245100  1
  C  C162  1  0.01337000  0.32392300  0.57970600  1
  C  C163  1  0.07066100  0.31909200  0.62226100  1
  C  C164  1  0.10432700  0.34591400  0.67912600  1
  C  C165  1  0.08053900  0.37654800  0.69464400  1
  C  C166  1  0.02320500  0.38143900  0.65180400  1
  C  C167  1  0.01032100  0.35638800  0.40752500  1
  C  C168  1  0.98661900  0.32392100  0.42024500  1
  C  C169  1  0.92932700  0.31909000  0.37767100  1
  C  C170  1  0.89567000  0.34591900  0.32081300  1
  C  C171  1  0.91946800  0.37656000  0.30532000  1
  C  C172  1  0.97680300  0.38145200  0.34817900  1
  C  C173  1  0.48967600  0.85638200  0.59245000  1
  C  C174  1  0.51336900  0.82392300  0.57970400  1
  C  C175  1  0.57066100  0.81909200  0.62225900  1
  C  C176  1  0.60432700  0.84591400  0.67912400  1
  C  C177  1  0.58053900  0.87654700  0.69464300  1
  C  C178  1  0.52320500  0.88143900  0.65180300  1
  C  C179  1  0.51032100  0.85638800  0.40752500  1
  C  C180  1  0.48661800  0.82392100  0.42024300  1
  C  C181  1  0.42932700  0.81909000  0.37766900  1
  C  C182  1  0.39567000  0.84591900  0.32081100  1
  C  C183  1  0.41946800  0.87656000  0.30531900  1
  C  C184  1  0.47680300  0.88145200  0.34817800  1
  C  C185  1  0.52093700  0.30831800  0.14989800  1
  C  C186  1  0.53505100  0.35187800  0.16314200  1
  C  C187  1  0.49374600  0.38317700  0.13278300  1
  C  C188  1  0.43822800  0.37104100  0.08973400  1
  C  C189  1  0.42399100  0.32756800  0.07738900  1
  C  C190  1  0.46523800  0.29622900  0.10770400  1
  C  C191  1  0.47906400  0.30831800  0.85010800  1
  C  C192  1  0.46495000  0.35187800  0.83686400  1
  C  C193  1  0.50625500  0.38317800  0.86722300  1
  C  C194  1  0.56177200  0.37104100  0.91027200  1
  C  C195  1  0.57600900  0.32756800  0.92261700  1
  C  C196  1  0.53476200  0.29622900  0.89230200  1
  C  C197  1  0.02093600  0.80831800  0.14989800  1
  C  C198  1  0.03505100  0.85187800  0.16314200  1
  C  C199  1  0.99374600  0.88317800  0.13278300  1
  C  C200  1  0.93822800  0.87104100  0.08973400  1
  C  C201  1  0.92399100  0.82756800  0.07738900  1
  C  C202  1  0.96523800  0.79622900  0.10770400  1
  C  C203  1  0.97906400  0.80831800  0.85010800  1
  C  C204  1  0.96495000  0.85187800  0.83686400  1
  C  C205  1  0.00625400  0.88317700  0.86722300  1
  C  C206  1  0.06177200  0.87104100  0.91027200  1
  C  C207  1  0.07600900  0.82756800  0.92261800  1
  C  C208  1  0.03476200  0.79622900  0.89230200  1
  C  C209  1  0.54341900  0.17073500  0.62157700  1
  C  C210  1  0.51307600  0.20821600  0.60791300  1
  C  C211  1  0.48055200  0.21149300  0.62902300  1
  C  C212  1  0.47856000  0.17747200  0.66407700  1
  C  C213  1  0.50905000  0.14027100  0.67822500  1
  C  C214  1  0.54140200  0.13686700  0.65710700  1
  C  C215  1  0.45658300  0.17073600  0.37842800  1
  C  C216  1  0.48692700  0.20821600  0.39209400  1
  C  C217  1  0.51945100  0.21149200  0.37098300  1
  C  C218  1  0.52144200  0.17747200  0.33592800  1
  C  C219  1  0.49095100  0.14027200  0.32178000  1
  C  C220  1  0.45859800  0.13686800  0.34289700  1
  C  C221  1  0.04341900  0.67073500  0.62157800  1
  C  C222  1  0.01307600  0.70821600  0.60791300  1
  C  C223  1  0.98055200  0.71149300  0.62902300  1
  C  C224  1  0.97856000  0.67747200  0.66407700  1
  C  C225  1  0.00905000  0.64027100  0.67822500  1
  C  C226  1  0.04140200  0.63686700  0.65710700  1
  C  C227  1  0.95658300  0.67073600  0.37842800  1
  C  C228  1  0.98692700  0.70821600  0.39209400  1
  C  C229  1  0.01945100  0.71149200  0.37098300  1
  C  C230  1  0.02144200  0.67747200  0.33592800  1
  C  C231  1  0.99095100  0.64027200  0.32178000  1
  C  C232  1  0.95859800  0.63686800  0.34289800  1
  N  N1  1  0.51590100  0.28117100  0.03431000  1
  N  N2  1  0.48409900  0.28117100  0.96569600  1
  N  N3  1  0.01590100  0.78117100  0.03431000  1
  N  N4  1  0.98409900  0.78117100  0.96569600  1
  N  N5  1  0.48407700  0.20546800  0.96565800  1
  N  N6  1  0.51592400  0.20546800  0.03434800  1
  N  N7  1  0.98407700  0.70546800  0.96565800  1
  N  N8  1  0.01592400  0.70546800  0.03434800  1
  N  N9  1  0.94480800  0.24498700  0.96647100  1
  N  N10  1  0.05519500  0.24498800  0.03353500  1
  N  N11  1  0.44480800  0.74498700  0.96647200  1
  N  N12  1  0.55519500  0.74498800  0.03353500  1
  N  N13  1  0.97982300  0.24471800  0.03525700  1
  N  N14  1  0.02018000  0.24471900  0.96474900  1
  N  N15  1  0.47982300  0.74471800  0.03525700  1
  N  N16  1  0.52018000  0.74471900  0.96474900  1
  Cl  Cl1  1  0.17718300  0.34064000  0.73209900  1
  Cl  Cl2  1  0.82281300  0.34064200  0.26781500  1
  Cl  Cl3  1  0.67718300  0.84064000  0.73209600  1
  Cl  Cl4  1  0.32281300  0.84064200  0.26781300  1
  Cl  Cl5  1  0.38580900  0.41082800  0.05123000  1
  Cl  Cl6  1  0.61419200  0.41082800  0.94877600  1
  Cl  Cl7  1  0.88580800  0.91082800  0.05123000  1
  Cl  Cl8  1  0.11419200  0.91082800  0.94877600  1
  Cl  Cl9  1  0.43727800  0.18109300  0.69066800  1
  Cl  Cl10  1  0.56272400  0.18109200  0.30933700  1
  Cl  Cl11  1  0.93727800  0.68109300  0.69066800  1
  Cl  Cl12  1  0.06272400  0.68109200  0.30933700  1
  O  O1  1  0.67602100  0.22488100  0.50228700  1
  O  O2  1  0.32398000  0.22488300  0.49771900  1
  O  O3  1  0.17602100  0.72488100  0.50228700  1
  O  O4  1  0.82398000  0.72488300  0.49771900  1
  O  O5  1  0.72708400  0.17097000  0.50004000  1
  O  O6  1  0.27291900  0.17097000  0.49996600  1
  O  O7  1  0.22708400  0.67097000  0.50004000  1
  O  O8  1  0.77291900  0.67097000  0.49996600  1
  O  O9  1  0.67189300  0.27022600  0.39902000  1
  O  O10  1  0.32810800  0.27022600  0.60098700  1
  O  O11  1  0.17189300  0.77022600  0.39902000  1
  O  O12  1  0.82810800  0.77022600  0.60098700  1
  O  O13  1  0.72037100  0.21262400  0.39923000  1
  O  O14  1  0.27963000  0.21262400  0.60077600  1
  O  O15  1  0.22037100  0.71262400  0.39923000  1
  O  O16  1  0.77963000  0.71262400  0.60077600  1
  O  O17  1  0.76770600  0.31320900  0.50329900  1
  O  O18  1  0.23229500  0.31320900  0.49670800  1
  O  O19  1  0.26770600  0.81320900  0.50329900  1
  O  O20  1  0.73229500  0.81320900  0.49670800  1
  O  O21  1  0.81593200  0.25918300  0.49507500  1
  O  O22  1  0.18406800  0.25918200  0.50492900  1
  O  O23  1  0.31593200  0.75918300  0.49507500  1
  O  O24  1  0.68406800  0.75918200  0.50492900  1
  O  O25  1  0.77168800  0.27050700  0.60130000  1
  O  O26  1  0.22831400  0.27050800  0.39870600  1
  O  O27  1  0.27168800  0.77050700  0.60130000  1
  O  O28  1  0.72831400  0.77050800  0.39870600  1
  O  O29  1  0.82307900  0.21534500  0.60151700  1
  O  O30  1  0.17692300  0.21534500  0.39848900  1
  O  O31  1  0.32307900  0.71534500  0.60151700  1
  O  O32  1  0.67692300  0.71534500  0.39848900  1
  O  O33  1  0.02467700  0.45240100  0.44342400  1
  O  O34  1  0.97531900  0.45240100  0.55657600  1
  O  O35  1  0.52467700  0.95240100  0.44342300  1
  O  O36  1  0.47531900  0.95240100  0.55657600  1
  O  O37  1  0.06458000  0.43584600  0.55797700  1
  O  O38  1  0.93541600  0.43584800  0.44202200  1
  O  O39  1  0.56458000  0.93584600  0.55797700  1
  O  O40  1  0.43541500  0.93584800  0.44202100  1
  O  O41  1  0.50790400  0.04023200  0.44283100  1
  O  O42  1  0.49209600  0.04023200  0.55717200  1
  O  O43  1  0.00790400  0.54023200  0.44283200  1
  O  O44  1  0.99209600  0.54023200  0.55717200  1
  O  O45  1  0.58130900  0.02389300  0.55833000  1
  O  O46  1  0.41869000  0.02389500  0.44167200  1
  O  O47  1  0.08130900  0.52389300  0.55833000  1
  O  O48  1  0.91869000  0.52389400  0.44167200  1
