# generated using pymatgen
data_CuH15C22NO6
_symmetry_space_group_name_H-M   'P 1'
_cell_length_a   17.36218800
_cell_length_b   13.01506500
_cell_length_c   11.71599100
_cell_angle_alpha   99.58484900
_cell_angle_beta   90.41364300
_cell_angle_gamma   90.36053400
_symmetry_Int_Tables_number   1
_chemical_formula_structural   CuH15C22NO6
_chemical_formula_sum   'Cu2 H30 C44 N2 O12'
_cell_volume   2610.36080507
_cell_formula_units_Z   2
loop_
 _symmetry_equiv_pos_site_id
 _symmetry_equiv_pos_as_xyz
  1  'x, y, z'
loop_
 _atom_site_type_symbol
 _atom_site_label
 _atom_site_symmetry_multiplicity
 _atom_site_fract_x
 _atom_site_fract_y
 _atom_site_fract_z
 _atom_site_occupancy
  Cu  Cu1  1  0.50278600  0.51202600  0.61619200  1
  Cu  Cu2  1  0.49458500  0.49344100  0.38462100  1
  H  H1  1  0.24938800  0.46652600  0.33404700  1
  H  H2  1  0.74829600  0.52364300  0.66463000  1
  H  H3  1  0.73268400  0.41205400  0.30286000  1
  H  H4  1  0.26235100  0.58161500  0.69697600  1
  H  H5  1  0.99791100  0.41160500  0.38716500  1
  H  H6  1  0.99854400  0.57235400  0.61060000  1
  H  H7  1  0.12254800  0.58099100  0.70591400  1
  H  H8  1  0.87254600  0.40489300  0.29271900  1
  H  H9  1  0.88621800  0.51376600  0.65716700  1
  H  H10  1  0.11131500  0.46901900  0.34181000  1
  H  H11  1  0.47783500  0.82039900  0.35130900  1
  H  H12  1  0.52642600  0.18504900  0.64855700  1
  H  H13  1  0.52613900  0.84187800  0.71292000  1
  H  H14  1  0.47898600  0.16338300  0.28816300  1
  H  H15  1  0.47413100  0.97500500  0.26724100  1
  H  H16  1  0.53192200  0.03015500  0.73274400  1
  H  H17  1  0.37671200  0.37068800  0.99029100  1
  H  H18  1  0.60468200  0.65701500  0.01730600  1
  H  H19  1  0.72597100  0.57373800  0.88307900  1
  H  H20  1  0.70894400  0.71047500  0.94087800  1
  H  H21  1  0.75072700  0.67590400  0.80197700  1
  H  H22  1  0.44963700  0.19576800  0.08383400  1
  H  H23  1  0.35152400  0.21907300  0.04019900  1
  H  H24  1  0.36818500  0.16349700  0.16705400  1
  H  H25  1  0.45435000  0.26841700  0.79386500  1
  H  H26  1  0.38637700  0.26866400  0.67373300  1
  H  H27  1  0.35192400  0.26160300  0.81555500  1
  H  H28  1  0.67706600  0.49639400  0.16259200  1
  H  H29  1  0.70256800  0.59826700  0.28451100  1
  H  H30  1  0.70378200  0.62579300  0.14034200  1
  C  C1  1  0.49562000  0.30303500  0.48363300  1
  C  C2  1  0.50267200  0.70238100  0.51729100  1
  C  C3  1  0.35088900  0.51187200  0.51152600  1
  C  C4  1  0.64639800  0.49138500  0.48876900  1
  C  C5  1  0.26639400  0.51789400  0.51635400  1
  C  C6  1  0.73050600  0.47792400  0.48292700  1
  C  C7  1  0.22253500  0.48999300  0.41691200  1
  C  C8  1  0.77489700  0.50078800  0.58204500  1
  C  C9  1  0.14320500  0.49037000  0.42171300  1
  C  C10  1  0.85404500  0.49539600  0.57714700  1
  C  C11  1  0.10642900  0.52009700  0.52632300  1
  C  C12  1  0.89018900  0.46510900  0.47219100  1
  C  C13  1  0.15031900  0.55421600  0.62418200  1
  C  C14  1  0.84547900  0.43297100  0.37468600  1
  C  C15  1  0.22966000  0.55299800  0.61945400  1
  C  C16  1  0.76619900  0.43878900  0.38002700  1
  C  C17  1  0.02187800  0.52137500  0.53683600  1
  C  C18  1  0.97473300  0.46232200  0.46127700  1
  C  C19  1  0.50422400  0.81674600  0.52939200  1
  C  C20  1  0.49757800  0.18855100  0.47148400  1
  C  C21  1  0.48419600  0.02088800  0.35183700  1
  C  C22  1  0.52094000  0.98424200  0.64842300  1
  C  C23  1  0.48628600  0.12798200  0.36401800  1
  C  C24  1  0.51765800  0.87713700  0.63672700  1
  C  C25  1  0.51222600  0.13979200  0.56547000  1
  C  C26  1  0.49161400  0.86549800  0.43483400  1
  C  C27  1  0.50968100  0.03234800  0.55345300  1
  C  C28  1  0.49487000  0.97283600  0.44687100  1
  C  C29  1  0.42355000  0.41683400  0.03123600  1
  C  C30  1  0.56714300  0.59814700  0.97242200  1
  C  C31  1  0.43602800  0.41288000  0.14694200  1
  C  C32  1  0.56592900  0.58646200  0.85314100  1
  C  C33  1  0.53080600  0.54243000  0.15254500  1
  C  C34  1  0.46078000  0.47201400  0.85036300  1
  C  C35  1  0.52250000  0.53827900  0.03242300  1
  C  C36  1  0.46903800  0.47551900  0.97055600  1
  C  C37  1  0.63048400  0.64133200  0.80482500  1
  C  C38  1  0.70837000  0.65023300  0.86195300  1
  C  C39  1  0.39529400  0.32576000  0.18864000  1
  C  C40  1  0.39125800  0.22012500  0.11476900  1
  C  C41  1  0.39492800  0.41135700  0.79420400  1
  C  C42  1  0.39766300  0.29524500  0.76713700  1
  C  C43  1  0.59139200  0.61230400  0.21066900  1
  C  C44  1  0.67373500  0.58046100  0.19894100  1
  N  N1  1  0.50946100  0.52697900  0.78983500  1
  N  N2  1  0.48774800  0.47948600  0.21117000  1
  O  O1  1  0.49694800  0.35988100  0.58756800  1
  O  O2  1  0.50268100  0.64541100  0.41379600  1
  O  O3  1  0.49292100  0.34408200  0.38882900  1
  O  O4  1  0.50189300  0.66127400  0.61167700  1
  O  O5  1  0.39035300  0.51164400  0.60734600  1
  O  O6  1  0.60698000  0.49063500  0.39261400  1
  O  O7  1  0.38382600  0.50580800  0.41064800  1
  O  O8  1  0.61374700  0.50280700  0.59055900  1
  O  O9  1  0.62102300  0.68840600  0.72492300  1
  O  O10  1  0.35955700  0.33867300  0.27845100  1
  O  O11  1  0.33213700  0.45280300  0.79636800  1
  O  O12  1  0.57745400  0.70436100  0.24102400  1
