# generated using pymatgen
data_Cu3H16(C17O8)2
_symmetry_space_group_name_H-M   'P 1'
_cell_length_a   18.34158900
_cell_length_b   18.34243500
_cell_length_c   29.86789800
_cell_angle_alpha   90.00000000
_cell_angle_beta   90.00000000
_cell_angle_gamma   90.00000000
_symmetry_Int_Tables_number   1
_chemical_formula_structural   Cu3H16(C17O8)2
_chemical_formula_sum   'Cu12 H64 C136 O64'
_cell_volume   10048.43912375
_cell_formula_units_Z   4
loop_
 _symmetry_equiv_pos_site_id
 _symmetry_equiv_pos_as_xyz
  1  'x, y, z'
loop_
 _atom_site_type_symbol
 _atom_site_label
 _atom_site_symmetry_multiplicity
 _atom_site_fract_x
 _atom_site_fract_y
 _atom_site_fract_z
 _atom_site_occupancy
  Cu  Cu1  1  0.99997700  0.57127300  0.00000000  1
  Cu  Cu2  1  0.42875500  0.00001000  0.99998000  1
  Cu  Cu3  1  0.00001300  0.42875100  0.00000100  1
  Cu  Cu4  1  0.57128400  0.99997400  0.00001900  1
  Cu  Cu5  1  0.49998900  0.07109200  0.49998900  1
  Cu  Cu6  1  0.92872600  0.50029300  0.50001300  1
  Cu  Cu7  1  0.49998900  0.92856900  0.50000900  1
  Cu  Cu8  1  0.07125500  0.50029400  0.49998900  1
  Cu  Cu9  1  0.49992800  0.49992400  0.04461700  1
  Cu  Cu10  1  0.50006200  0.50006600  0.95538300  1
  Cu  Cu11  1  0.00005700  0.00027900  0.54462900  1
  Cu  Cu12  1  0.99992100  0.00028000  0.45537100  1
  H  H1  1  0.87051700  0.62893500  0.28933600  1
  H  H2  1  0.37105200  0.87049400  0.28933400  1
  H  H3  1  0.12929100  0.37138300  0.28939900  1
  H  H4  1  0.62867200  0.12920000  0.28939800  1
  H  H5  1  0.87072200  0.37135600  0.71060400  1
  H  H6  1  0.37139400  0.12937600  0.71059500  1
  H  H7  1  0.12943900  0.62896400  0.71066400  1
  H  H8  1  0.62895700  0.87061200  0.71067000  1
  H  H9  1  0.37080500  0.12884900  0.78932800  1
  H  H10  1  0.87134200  0.37068600  0.78933700  1
  H  H11  1  0.62953200  0.87125000  0.78940500  1
  H  H12  1  0.12889300  0.62946000  0.78939900  1
  H  H13  1  0.37050200  0.87109800  0.21059800  1
  H  H14  1  0.87106500  0.62943100  0.21060200  1
  H  H15  1  0.62928700  0.12863800  0.21066600  1
  H  H16  1  0.12867400  0.37071500  0.21066500  1
  H  H17  1  0.18772100  0.47563800  0.35349200  1
  H  H18  1  0.20816100  0.37941800  0.35919500  1
  H  H19  1  0.18940100  0.43384600  0.40837600  1
  H  H20  1  0.52446300  0.18758000  0.35357500  1
  H  H21  1  0.62069800  0.20800800  0.35922600  1
  H  H22  1  0.56634900  0.18919000  0.40843200  1
  H  H23  1  0.81213000  0.52485200  0.35347800  1
  H  H24  1  0.79171400  0.62108100  0.35915500  1
  H  H25  1  0.81046900  0.56668400  0.40834900  1
  H  H26  1  0.47517200  0.81201800  0.35339300  1
  H  H27  1  0.37894000  0.79163000  0.35912200  1
  H  H28  1  0.43343000  0.81030400  0.40829000  1
  H  H29  1  0.18784600  0.52489000  0.64652100  1
  H  H30  1  0.20824300  0.62112300  0.64084400  1
  H  H31  1  0.18949700  0.56672300  0.59165000  1
  H  H32  1  0.52479400  0.81212000  0.64663000  1
  H  H33  1  0.62102100  0.79170900  0.64090100  1
  H  H34  1  0.56653000  0.81037400  0.59173200  1
  H  H35  1  0.81226700  0.47560200  0.64651000  1
  H  H36  1  0.79184600  0.37937800  0.64080800  1
  H  H37  1  0.81059500  0.43381000  0.59162700  1
  H  H38  1  0.47557700  0.18769500  0.64640000  1
  H  H39  1  0.37934600  0.20813700  0.64075000  1
  H  H40  1  0.43368600  0.18929000  0.59154400  1
  H  H41  1  0.68791100  0.97545000  0.85355700  1
  H  H42  1  0.70833600  0.87922300  0.85923400  1
  H  H43  1  0.68953100  0.93360800  0.90842700  1
  H  H44  1  0.02473900  0.68782500  0.85350200  1
  H  H45  1  0.12096700  0.70824000  0.85922000  1
  H  H46  1  0.06651400  0.68947600  0.90839100  1
  H  H47  1  0.31232900  0.02473500  0.85341100  1
  H  H48  1  0.29193500  0.12096500  0.85911300  1
  H  H49  1  0.31062300  0.06651800  0.90829600  1
  H  H50  1  0.97555000  0.31225100  0.85347300  1
  H  H51  1  0.87932300  0.29179700  0.85913300  1
  H  H52  1  0.93369500  0.31055800  0.90833800  1
  H  H53  1  0.68771300  0.02447300  0.14652400  1
  H  H54  1  0.70815600  0.12069900  0.14086700  1
  H  H55  1  0.68939700  0.06633300  0.09166100  1
  H  H56  1  0.02448700  0.31225600  0.14653000  1
  H  H57  1  0.12072000  0.29182800  0.14087100  1
  H  H58  1  0.06634400  0.31057300  0.09166500  1
  H  H59  1  0.31212200  0.97528200  0.14650200  1
  H  H60  1  0.29169500  0.87906300  0.14078000  1
  H  H61  1  0.31046100  0.93351800  0.09161100  1
  H  H62  1  0.97520400  0.68782100  0.14650000  1
  H  H63  1  0.87897100  0.70821200  0.14078200  1
  H  H64  1  0.93343000  0.68946300  0.09161200  1
  C  C1  1  0.13803600  0.50004800  0.00006300  1
  C  C2  1  0.50005300  0.13803200  0.00005300  1
  C  C3  1  0.86195400  0.49997600  0.99993900  1
  C  C4  1  0.49998300  0.86195400  0.99994500  1
  C  C5  1  0.63804000  0.99983400  0.49990100  1
  C  C6  1  0.99999000  0.63833400  0.50000100  1
  C  C7  1  0.36193900  0.99983500  0.50009700  1
  C  C8  1  0.99999100  0.36225400  0.50000100  1
  C  C9  1  0.99989900  0.50001300  0.08489100  1
  C  C10  1  0.49995700  0.99991000  0.08489000  1
  C  C11  1  0.00009100  0.50001200  0.91511000  1
  C  C12  1  0.50008600  0.00006400  0.91510900  1
  C  C13  1  0.50013200  0.99986900  0.58489000  1
  C  C14  1  0.00002500  0.50028400  0.58489200  1
  C  C15  1  0.49985000  0.99980400  0.41510800  1
  C  C16  1  0.99995600  0.50028300  0.41511000  1
  C  C17  1  0.28190200  0.50006700  0.00016700  1
  C  C18  1  0.50005800  0.28190000  0.00016100  1
  C  C19  1  0.71808900  0.49995200  0.99983300  1
  C  C20  1  0.49994300  0.71808700  0.99983900  1
  C  C21  1  0.78192400  0.00022200  0.49983200  1
  C  C22  1  0.99999000  0.78220400  0.50000000  1
  C  C23  1  0.21805400  0.00022300  0.50016800  1
  C  C24  1  0.99999000  0.21838500  0.50000000  1
  C  C25  1  0.50004400  0.36010400  0.00023400  1
  C  C26  1  0.63988800  0.49995100  0.99976100  1
  C  C27  1  0.49994700  0.63988500  0.99976500  1
  C  C28  1  0.36010200  0.50004800  0.00023800  1
  C  C29  1  0.99998900  0.86040700  0.50000000  1
  C  C30  1  0.13984400  0.00086000  0.50023800  1
  C  C31  1  0.99998900  0.14018200  0.50000000  1
  C  C32  1  0.86013400  0.00086000  0.49976200  1
  C  C33  1  0.04779200  0.45592900  0.34305800  1
  C  C34  1  0.54415500  0.04767200  0.34305600  1
  C  C35  1  0.95206800  0.54451000  0.34303900  1
  C  C36  1  0.45554900  0.95197200  0.34303800  1
  C  C37  1  0.04790500  0.54452200  0.65696200  1
  C  C38  1  0.54445000  0.95207400  0.65696400  1
  C  C39  1  0.95220000  0.45592000  0.65694400  1
  C  C40  1  0.45586500  0.04779400  0.65693900  1
  C  C41  1  0.54799200  0.95576400  0.84306100  1
  C  C42  1  0.04441400  0.54789400  0.84306100  1
  C  C43  1  0.45228500  0.04436300  0.84303400  1
  C  C44  1  0.95583300  0.45217100  0.84303700  1
  C  C45  1  0.54778300  0.04417100  0.15696400  1
  C  C46  1  0.04416700  0.45218200  0.15696500  1
  C  C47  1  0.45205500  0.95559400  0.15693800  1
  C  C48  1  0.95556400  0.54788500  0.15694000  1
  C  C49  1  0.99994300  0.50024700  0.36607600  1
  C  C50  1  0.49984300  0.99981900  0.36607400  1
  C  C51  1  0.00003800  0.50024800  0.63392600  1
  C  C52  1  0.50015500  0.99991500  0.63392500  1
  C  C53  1  0.50013000  0.00007300  0.86607400  1
  C  C54  1  0.00012600  0.50001400  0.86607600  1
  C  C55  1  0.49993200  0.99988800  0.13392400  1
  C  C56  1  0.99986400  0.50001500  0.13392500  1
  C  C57  1  0.95279900  0.54540100  0.29652900  1
  C  C58  1  0.45462100  0.95273900  0.29652700  1
  C  C59  1  0.04701800  0.45493700  0.29654900  1
  C  C60  1  0.54511100  0.04693400  0.29654800  1
  C  C61  1  0.95297600  0.45492700  0.70345300  1
  C  C62  1  0.45492800  0.04708100  0.70344800  1
  C  C63  1  0.04717500  0.54541200  0.70347200  1
  C  C64  1  0.54539600  0.95286600  0.70347400  1
  C  C65  1  0.45305200  0.04528200  0.79652400  1
  C  C66  1  0.95488200  0.45296400  0.79652800  1
  C  C67  1  0.54725400  0.95480000  0.79655100  1
  C  C68  1  0.04534600  0.54718200  0.79655100  1
  C  C69  1  0.45278800  0.95463800  0.20344800  1
  C  C70  1  0.95463100  0.54717200  0.20345000  1
  C  C71  1  0.54701100  0.04509800  0.20347300  1
  C  C72  1  0.04511700  0.45297400  0.20347400  1
  C  C73  1  0.99989900  0.50014400  0.27327800  1
  C  C74  1  0.49987300  0.99984500  0.27327700  1
  C  C75  1  0.00008600  0.50014500  0.72672300  1
  C  C76  1  0.50016100  0.99999200  0.72672200  1
  C  C77  1  0.50015700  0.00002500  0.77327700  1
  C  C78  1  0.00010600  0.50009600  0.77327900  1
  C  C79  1  0.49989100  0.99986000  0.22672100  1
  C  C80  1  0.99988100  0.50009600  0.22672300  1
  C  C81  1  0.90741200  0.59177400  0.27293800  1
  C  C82  1  0.40821500  0.90738700  0.27293600  1
  C  C83  1  0.09238300  0.40851000  0.27298200  1
  C  C84  1  0.59152800  0.09230900  0.27298200  1
  C  C85  1  0.90762300  0.40849000  0.72702000  1
  C  C86  1  0.40853200  0.09248000  0.72701300  1
  C  C87  1  0.09255300  0.59179500  0.72706300  1
  C  C88  1  0.59180300  0.90751700  0.72706700  1
  C  C89  1  0.40769500  0.09168100  0.77293200  1
  C  C90  1  0.90847600  0.40760800  0.77293900  1
  C  C91  1  0.59263200  0.90838300  0.77298600  1
  C  C92  1  0.09174000  0.59257900  0.77298300  1
  C  C93  1  0.40740000  0.90823400  0.22701600  1
  C  C94  1  0.90822600  0.59255800  0.22701800  1
  C  C95  1  0.59237800  0.09149000  0.22706300  1
  C  C96  1  0.09153200  0.40762900  0.22706400  1
  C  C97  1  0.21622200  0.50006800  0.00011500  1
  C  C98  1  0.50006000  0.21622100  0.00010600  1
  C  C99  1  0.78376800  0.49996200  0.99988600  1
  C  C100  1  0.49995500  0.78376600  0.99989300  1
  C  C101  1  0.71623800  0.99992000  0.49987400  1
  C  C102  1  0.99999000  0.71652400  0.50000000  1
  C  C103  1  0.28374000  0.99992100  0.50012500  1
  C  C104  1  0.99999100  0.28406500  0.50000100  1
  C  C105  1  0.09630200  0.40792400  0.36865700  1
  C  C106  1  0.17545500  0.42530600  0.37263500  1
  C  C107  1  0.59220200  0.09614400  0.36865300  1
  C  C108  1  0.57482900  0.17528800  0.37268000  1
  C  C109  1  0.90356800  0.59255500  0.36861900  1
  C  C110  1  0.82441200  0.57519500  0.37260500  1
  C  C111  1  0.40752200  0.90345700  0.36862000  1
  C  C112  1  0.42486300  0.82429300  0.37255800  1
  C  C113  1  0.09639400  0.59257600  0.63138200  1
  C  C114  1  0.17555400  0.57523100  0.62739400  1
  C  C115  1  0.59246200  0.90353800  0.63138600  1
  C  C116  1  0.57510400  0.82437700  0.62746100  1
  C  C117  1  0.90369900  0.40790600  0.63134500  1
  C  C118  1  0.82454300  0.42527300  0.62736800  1
  C  C119  1  0.40782200  0.09626400  0.63133900  1
  C  C120  1  0.42520800  0.17540400  0.62730000  1
  C  C121  1  0.59647100  0.90773100  0.86866200  1
  C  C122  1  0.67562100  0.92510200  0.87267700  1
  C  C123  1  0.09243100  0.59638900  0.86866400  1
  C  C124  1  0.07506400  0.67554100  0.87264900  1
  C  C125  1  0.40377100  0.09239900  0.86861100  1
  C  C126  1  0.32460600  0.07505700  0.87256000  1
  C  C127  1  0.90780300  0.40365400  0.86861300  1
  C  C128  1  0.92519300  0.32450700  0.87259400  1
  C  C129  1  0.59629600  0.09220800  0.13139000  1
  C  C130  1  0.67544900  0.07482800  0.12740500  1
  C  C131  1  0.09221100  0.40367600  0.13139000  1
  C  C132  1  0.07484200  0.32452500  0.12740900  1
  C  C133  1  0.40355300  0.90758700  0.13133400  1
  C  C134  1  0.32439900  0.92496100  0.12735200  1
  C  C135  1  0.90753500  0.59636800  0.13133700  1
  C  C136  1  0.92488300  0.67552500  0.12735300  1
  O  O1  1  0.10403700  0.56027300  0.98783800  1
  O  O2  1  0.43981700  0.10405800  0.98781500  1
  O  O3  1  0.89598200  0.43975100  0.98774700  1
  O  O4  1  0.56023900  0.89595000  0.98777100  1
  O  O5  1  0.10403800  0.43980400  0.01225400  1
  O  O6  1  0.43974600  0.89595600  0.01215100  1
  O  O7  1  0.89592300  0.56022000  0.01216300  1
  O  O8  1  0.56027400  0.10400400  0.01226100  1
  O  O9  1  0.60400900  0.06006000  0.48771400  1
  O  O10  1  0.93974700  0.60433300  0.48780500  1
  O  O11  1  0.39591900  0.93959100  0.48787600  1
  O  O12  1  0.06022300  0.39625500  0.48778500  1
  O  O13  1  0.60405900  0.93959900  0.51214000  1
  O  O14  1  0.93975900  0.39625400  0.51221700  1
  O  O15  1  0.39596900  0.06007000  0.51226700  1
  O  O16  1  0.06023300  0.60433300  0.51219700  1
  O  O17  1  0.01974500  0.56024500  0.06390800  1
  O  O18  1  0.43974500  0.01978000  0.06389000  1
  O  O19  1  0.98009800  0.43978000  0.06389200  1
  O  O20  1  0.56019700  0.98008000  0.06390900  1
  O  O21  1  0.01992300  0.43978900  0.93610900  1
  O  O22  1  0.43983200  0.98023300  0.93607600  1
  O  O23  1  0.98021500  0.56023500  0.93609300  1
  O  O24  1  0.56030300  0.01987400  0.93612300  1
  O  O25  1  0.51993900  0.06008400  0.56387700  1
  O  O26  1  0.93978700  0.52012700  0.56391100  1
  O  O27  1  0.48027200  0.93962700  0.56392200  1
  O  O28  1  0.06025000  0.48045800  0.56389100  1
  O  O29  1  0.51970600  0.93957700  0.43609400  1
  O  O30  1  0.93973200  0.48045700  0.43611100  1
  O  O31  1  0.48004000  0.06003500  0.43610400  1
  O  O32  1  0.06019400  0.52012700  0.43609100  1
  O  O33  1  0.49693700  0.39391100  0.03886600  1
  O  O34  1  0.60587900  0.49693100  0.03834100  1
  O  O35  1  0.49691900  0.60587200  0.03834400  1
  O  O36  1  0.39391000  0.49692000  0.03886900  1
  O  O37  1  0.50306700  0.60607800  0.96113400  1
  O  O38  1  0.60608000  0.50305600  0.96113000  1
  O  O39  1  0.50305600  0.39411800  0.96165500  1
  O  O40  1  0.39411100  0.50307400  0.96165800  1
  O  O41  1  0.00299800  0.89428900  0.53865700  1
  O  O42  1  0.10607700  0.99749500  0.53886800  1
  O  O43  1  0.00311300  0.10625000  0.53856500  1
  O  O44  1  0.89410000  0.99761500  0.53834300  1
  O  O45  1  0.99686500  0.10625000  0.46143500  1
  O  O46  1  0.10587800  0.99761500  0.46165700  1
  O  O47  1  0.99698100  0.89428900  0.46134300  1
  O  O48  1  0.89390100  0.99749500  0.46113200  1
  O  O49  1  0.07145700  0.35494200  0.38802800  1
  O  O50  1  0.64522100  0.07127400  0.38797500  1
  O  O51  1  0.92842900  0.64553900  0.38798100  1
  O  O52  1  0.35458200  0.92831200  0.38803100  1
  O  O53  1  0.07152300  0.64555500  0.61202000  1
  O  O54  1  0.64540600  0.92837300  0.61197000  1
  O  O55  1  0.92855400  0.35492900  0.61197400  1
  O  O56  1  0.35479800  0.07139500  0.61202100  1
  O  O57  1  0.57160000  0.85473300  0.88800500  1
  O  O58  1  0.14539500  0.57152600  0.88804700  1
  O  O59  1  0.42862700  0.14535700  0.88800200  1
  O  O60  1  0.85479200  0.42848800  0.88796100  1
  O  O61  1  0.57145400  0.14521300  0.11204200  1
  O  O62  1  0.14521500  0.42852400  0.11204100  1
  O  O63  1  0.42841000  0.85462400  0.11194900  1
  O  O64  1  0.85457800  0.57149300  0.11195300  1
