# generated using pymatgen
data_Fe2H19C55N7O20
_symmetry_space_group_name_H-M   'P 1'
_cell_length_a   14.14265100
_cell_length_b   20.26890100
_cell_length_c   13.25749200
_cell_angle_alpha   113.14669400
_cell_angle_beta   92.23301600
_cell_angle_gamma   70.16828100
_symmetry_Int_Tables_number   1
_chemical_formula_structural   Fe2H19C55N7O20
_chemical_formula_sum   'Fe2 H19 C55 N7 O20'
_cell_volume   3267.54175984
_cell_formula_units_Z   1
loop_
 _symmetry_equiv_pos_site_id
 _symmetry_equiv_pos_as_xyz
  1  'x, y, z'
loop_
 _atom_site_type_symbol
 _atom_site_label
 _atom_site_symmetry_multiplicity
 _atom_site_fract_x
 _atom_site_fract_y
 _atom_site_fract_z
 _atom_site_occupancy
  Fe  Fe1  1  0.51154900  0.01855100  0.28831500  1
  Fe  Fe2  1  0.48725500  0.98422800  0.71171300  1
  H  H1  1  0.83107500  0.10748500  0.38195200  1
  H  H2  1  0.83420000  0.86135200  0.66271600  1
  H  H3  1  0.01663300  0.84688900  0.64616700  1
  H  H4  1  0.33039200  0.97422200  0.96920400  1
  H  H5  1  0.16527900  0.13779800  0.33869200  1
  H  H6  1  0.98248100  0.15159000  0.35523000  1
  H  H7  1  0.66707800  0.03023300  0.02969700  1
  H  H8  1  0.08462400  0.93026600  0.94318500  1
  H  H9  1  0.91476100  0.07232300  0.05621900  1
  H  H10  1  0.05085900  0.67388000  0.62164800  1
  H  H11  1  0.15685000  0.58080600  0.68738700  1
  H  H12  1  0.94880800  0.32860200  0.37737000  1
  H  H13  1  0.84259400  0.42176400  0.31188600  1
  H  H14  1  0.30044400  0.24254100  0.47016000  1
  H  H15  1  0.23116600  0.26262700  0.84298900  1
  H  H16  1  0.13914100  0.36769200  0.79073600  1
  H  H17  1  0.69889700  0.75999900  0.52959900  1
  H  H18  1  0.76833400  0.74070600  0.15727900  1
  H  H19  1  0.86019000  0.63533000  0.20897300  1
  C  C1  1  0.75967000  0.94032700  0.82898500  1
  C  C2  1  0.83879400  0.89607300  0.74746400  1
  C  C3  1  0.92252800  0.91038300  0.79241700  1
  C  C4  1  0.79861000  0.97847900  0.92180000  1
  C  C5  1  0.01166100  0.88279000  0.73308000  1
  C  C6  1  0.09751700  0.90754700  0.77243600  1
  C  C7  1  0.16614700  0.91040200  0.70500200  1
  C  C8  1  0.23407300  0.93778400  0.77073900  1
  C  C9  1  0.20358800  0.95037300  0.87754100  1
  C  C10  1  0.25131700  0.98164700  0.97771300  1
  C  C11  1  0.19943900  0.02471200  0.07759600  1
  C  C12  1  0.23895400  0.06135900  0.17114300  1
  C  C13  1  0.16029600  0.10425500  0.25346700  1
  C  C14  1  0.07622500  0.09086900  0.20810100  1
  C  C15  1  0.98724500  0.11778900  0.26749600  1
  C  C16  1  0.90033500  0.09500500  0.22702700  1
  C  C17  1  0.83053900  0.09315200  0.29434500  1
  C  C18  1  0.76255700  0.06704200  0.22778200  1
  C  C19  1  0.79367300  0.05412600  0.12127000  1
  C  C20  1  0.74618200  0.02276300  0.02111300  1
  C  C21  1  0.68025600  0.05215200  0.26890900  1
  C  C22  1  0.63425400  0.87730200  0.28273700  1
  C  C23  1  0.34273300  0.05670600  0.18982600  1
  C  C24  1  0.40131800  0.11530900  0.48971700  1
  C  C25  1  0.84096900  0.56396100  0.37045100  1
  C  C26  1  0.91482600  0.65223400  0.47916000  1
  C  C27  1  0.97610200  0.59954400  0.51738100  1
  C  C28  1  0.96934200  0.52788600  0.48092100  1
  C  C29  1  0.90170500  0.50969700  0.40668800  1
  C  C30  1  0.04406800  0.61798100  0.59164900  1
  C  C31  1  0.10450700  0.56491400  0.62927500  1
  C  C32  1  0.09770400  0.49288500  0.59262500  1
  C  C33  1  0.03013500  0.47466200  0.51831800  1
  C  C34  1  0.02347600  0.40296700  0.48175400  1
  C  C35  1  0.95553800  0.38452300  0.40744100  1
  C  C36  1  0.89496500  0.43764300  0.36996800  1
  C  C37  1  0.15830900  0.43868500  0.62902800  1
  C  C38  1  0.08482600  0.35025400  0.51991300  1
  C  C39  1  0.28841300  0.24753500  0.55326400  1
  C  C40  1  0.33951800  0.18634500  0.58020200  1
  C  C41  1  0.31836100  0.19053200  0.68508400  1
  C  C42  1  0.24845300  0.25737900  0.76089900  1
  C  C43  1  0.19692700  0.31754700  0.73220800  1
  C  C44  1  0.21516000  0.31202800  0.62740500  1
  C  C45  1  0.71093500  0.75516200  0.44658500  1
  C  C46  1  0.65990300  0.81651400  0.41994600  1
  C  C47  1  0.68115400  0.81254600  0.31524400  1
  C  C48  1  0.75101000  0.74576700  0.23924900  1
  C  C49  1  0.80242000  0.68542100  0.26761000  1
  C  C50  1  0.78413000  0.69070100  0.37225500  1
  C  C51  1  0.65588400  0.94530400  0.80994400  1
  C  C52  1  0.59812700  0.88751600  0.51053800  1
  C  C53  1  0.31667400  0.95351100  0.73093800  1
  C  C54  1  0.36526300  0.12592600  0.71793600  1
  C  C55  1  0.16412200  0.89005600  0.58832500  1
  N  N1  1  0.89890400  0.96010500  0.89929700  1
  N  N2  1  0.12091500  0.93101800  0.87701500  1
  N  N3  1  0.09923000  0.04289600  0.10035800  1
  N  N4  1  0.87733300  0.07224800  0.12223700  1
  N  N5  1  0.84785300  0.63418900  0.40776700  1
  N  N6  1  0.15151700  0.36842800  0.59165100  1
  N  N7  1  0.16238000  0.87366000  0.49441600  1
  O  O1  1  0.60963300  0.03546100  0.20747400  1
  O  O2  1  0.67586400  0.87859300  0.19712700  1
  O  O3  1  0.67787900  0.05547300  0.36965400  1
  O  O4  1  0.55129000  0.93377200  0.33835100  1
  O  O5  1  0.40987200  0.99186400  0.18511800  1
  O  O6  1  0.35828600  0.12076900  0.24733700  1
  O  O7  1  0.46772600  0.11673500  0.42443200  1
  O  O8  1  0.37537000  0.05451400  0.46007600  1
  O  O9  1  0.77380100  0.54732500  0.29919300  1
  O  O10  1  0.92307900  0.72151500  0.51161700  1
  O  O11  1  0.22531400  0.45539800  0.70047300  1
  O  O12  1  0.07693700  0.28082200  0.48702300  1
  O  O13  1  0.58895700  0.01040800  0.81533800  1
  O  O14  1  0.64003300  0.88144700  0.75190000  1
  O  O15  1  0.53104400  0.88621400  0.57518400  1
  O  O16  1  0.62443700  0.94818000  0.54073100  1
  O  O17  1  0.32363000  0.12484700  0.80371900  1
  O  O18  1  0.38884400  0.96710700  0.79191700  1
  O  O19  1  0.44806600  0.06927800  0.66225800  1
  O  O20  1  0.31852000  0.95403700  0.63241000  1
