# generated using pymatgen
data_ZnH3C11N3ClO4
_symmetry_space_group_name_H-M   'P 1'
_cell_length_a   6.59587500
_cell_length_b   12.33006100
_cell_length_c   15.92719400
_cell_angle_alpha   96.85831200
_cell_angle_beta   81.46321700
_cell_angle_gamma   95.19631200
_symmetry_Int_Tables_number   1
_chemical_formula_structural   ZnH3C11N3ClO4
_chemical_formula_sum   'Zn2 H6 C22 N6 Cl2 O8'
_cell_volume   1268.29756157
_cell_formula_units_Z   2
loop_
 _symmetry_equiv_pos_site_id
 _symmetry_equiv_pos_as_xyz
  1  'x, y, z'
loop_
 _atom_site_type_symbol
 _atom_site_label
 _atom_site_symmetry_multiplicity
 _atom_site_fract_x
 _atom_site_fract_y
 _atom_site_fract_z
 _atom_site_occupancy
  Zn  Zn1  1  0.02886800  0.12186400  0.50374000  1
  Zn  Zn2  1  0.97113300  0.87813700  0.49626000  1
  H  H1  1  0.03342000  0.98602600  0.77034600  1
  H  H2  1  0.96658100  0.01397500  0.22965300  1
  H  H3  1  0.53845200  0.04823800  0.91130100  1
  H  H4  1  0.46154900  0.95176300  0.08869900  1
  H  H5  1  0.77448500  0.05623400  0.77730000  1
  H  H6  1  0.22551600  0.94376600  0.22270000  1
  C  C1  1  0.32800600  0.00808300  0.69638300  1
  C  C2  1  0.67199500  0.99191800  0.30361700  1
  C  C3  1  0.19662400  0.00130600  0.77178100  1
  C  C4  1  0.80337700  0.99869400  0.22821900  1
  C  C5  1  0.27127000  0.01509400  0.84887200  1
  C  C6  1  0.72873100  0.98490700  0.15112800  1
  C  C7  1  0.47891700  0.03687400  0.85092300  1
  C  C8  1  0.52108500  0.96312600  0.14907700  1
  C  C9  1  0.61123100  0.04187500  0.77563600  1
  C  C10  1  0.38877000  0.95812500  0.22436300  1
  C  C11  1  0.53724300  0.02629200  0.69806700  1
  C  C12  1  0.46275800  0.97370800  0.30193200  1
  C  C13  1  0.87026200  0.99259200  0.07212100  1
  C  C14  1  0.12973900  0.00740800  0.92787900  1
  C  C15  1  0.68558100  0.01735800  0.62025200  1
  C  C16  1  0.31442000  0.98264300  0.37974800  1
  C  C17  1  0.23688500  0.00416500  0.61802900  1
  C  C18  1  0.76311600  0.99583500  0.38197100  1
  C  C19  1  0.92059000  0.52342900  0.49045400  1
  C  C20  1  0.07941100  0.47657100  0.50954600  1
  C  C21  1  0.07114000  0.35950600  0.50870000  1
  C  C22  1  0.92886100  0.64049400  0.49130000  1
  N  N1  1  0.20165500  0.02098900  0.00344600  1
  N  N2  1  0.79834600  0.97901200  0.99655400  1
  N  N3  1  0.07301200  0.01367200  0.07492400  1
  N  N4  1  0.92698900  0.98632800  0.92507600  1
  N  N5  1  0.93806200  0.73478400  0.49230600  1
  N  N6  1  0.06193900  0.26521600  0.50769400  1
  Cl  Cl1  1  0.29861500  0.55746000  0.53566500  1
  Cl  Cl2  1  0.70138600  0.44254000  0.46433500  1
  O  O1  1  0.74156200  0.91922300  0.58985400  1
  O  O2  1  0.25843900  0.08077700  0.41014600  1
  O  O3  1  0.78004100  0.10753600  0.59305100  1
  O  O4  1  0.21996000  0.89246500  0.40694900  1
  O  O5  1  0.19864300  0.09768700  0.59418600  1
  O  O6  1  0.80135800  0.90231400  0.40581300  1
  O  O7  1  0.16174100  0.90889600  0.58550000  1
  O  O8  1  0.83826000  0.09110400  0.41449900  1
