# generated using pymatgen
data_Zn4H40C70O13
_symmetry_space_group_name_H-M   'P 1'
_cell_length_a   14.51128100
_cell_length_b   13.91615300
_cell_length_c   19.10549200
_cell_angle_alpha   89.30221000
_cell_angle_beta   80.51522800
_cell_angle_gamma   90.60253700
_symmetry_Int_Tables_number   1
_chemical_formula_structural   Zn4H40C70O13
_chemical_formula_sum   'Zn4 H40 C70 O13'
_cell_volume   3804.85355044
_cell_formula_units_Z   1
loop_
 _symmetry_equiv_pos_site_id
 _symmetry_equiv_pos_as_xyz
  1  'x, y, z'
loop_
 _atom_site_type_symbol
 _atom_site_label
 _atom_site_symmetry_multiplicity
 _atom_site_fract_x
 _atom_site_fract_y
 _atom_site_fract_z
 _atom_site_occupancy
  Zn  Zn1  1  0.62532100  0.50650400  0.44394900  1
  Zn  Zn2  1  0.51513100  0.50048200  0.60042200  1
  Zn  Zn3  1  0.43999800  0.61104300  0.48029600  1
  Zn  Zn4  1  0.44509500  0.38732900  0.47959800  1
  H  H1  1  0.20901400  0.84606300  0.89649800  1
  H  H2  1  0.07408200  0.85002400  0.98721600  1
  H  H3  1  0.49601100  0.83803300  0.94866000  1
  H  H4  1  0.39693300  0.83584800  0.86105700  1
  H  H5  1  0.23088000  0.72200000  0.68656100  1
  H  H6  1  0.17959000  0.85413900  0.76472400  1
  H  H7  1  0.46413700  0.95309400  0.74348000  1
  H  H8  1  0.51274900  0.81864900  0.66767400  1
  H  H9  1  0.02187300  0.13832000  0.92684800  1
  H  H10  1  0.15905800  0.13709200  0.83787200  1
  H  H11  1  0.30332200  0.11949200  0.92165600  1
  H  H12  1  0.40243400  0.11805900  0.01169400  1
  H  H13  1  0.48642300  0.25892400  0.74022900  1
  H  H14  1  0.44601000  0.12441400  0.81591100  1
  H  H15  1  0.21696900  0.05808300  0.70738800  1
  H  H16  1  0.26797800  0.19035500  0.62474200  1
  H  H17  1  0.82676400  0.86579700  0.23030600  1
  H  H18  1  0.77577600  0.73246900  0.31013600  1
  H  H19  1  0.76892800  0.23232400  0.35176600  1
  H  H20  1  0.81260200  0.09715700  0.27304300  1
  H  H21  1  0.91287700  0.85335400  0.01255500  1
  H  H22  1  0.78271200  0.85866700  0.10713600  1
  H  H23  1  0.84929200  0.15295500  0.14340200  1
  H  H24  1  0.98218800  0.14471500  0.05119300  1
  H  H25  1  0.50265200  0.85158900  0.35520100  1
  H  H26  1  0.54909300  0.97878200  0.27357200  1
  H  H27  1  0.55130600  0.12588600  0.19701400  1
  H  H28  1  0.51039400  0.25313900  0.27602700  1
  H  H29  1  0.58012300  0.12168300  0.99475500  1
  H  H30  1  0.68853900  0.13176400  0.07794400  1
  H  H31  1  0.59849600  0.84988900  0.15768100  1
  H  H32  1  0.49076200  0.84360400  0.07633900  1
  H  H33  1  0.77959700  0.54388600  0.69410800  1
  H  H34  1  0.10705400  0.55183000  0.65482200  1
  H  H35  1  0.94522400  0.55687300  0.70681500  1
  H  H36  1  0.86079100  0.42921400  0.48944200  1
  H  H37  1  0.23163500  0.46612200  0.30973200  1
  H  H38  1  0.94628200  0.46849300  0.39609500  1
  H  H39  1  0.06662000  0.45343600  0.29633300  1
  H  H40  1  0.22664800  0.53020500  0.55476000  1
  C  C1  1  0.29619500  0.49538400  0.42908200  1
  C  C2  1  0.41340000  0.31322500  0.62774200  1
  C  C3  1  0.60250000  0.32359400  0.37151000  1
  C  C4  1  0.71912900  0.49625800  0.56934000  1
  C  C5  1  0.59941900  0.69778500  0.38211800  1
  C  C6  1  0.40776900  0.68060000  0.62774200  1
  C  C7  1  0.03726500  0.99456600  0.96450000  1
  C  C8  1  0.19495900  0.98951700  0.85703000  1
  C  C9  1  0.16709500  0.91007800  0.90037100  1
  C  C10  1  0.08946600  0.91222100  0.95273200  1
  C  C11  1  0.45413400  0.90037000  0.94250600  1
  C  C12  1  0.39944500  0.90126000  0.89039900  1
  C  C13  1  0.37571500  0.75912200  0.67532800  1
  C  C14  1  0.28205900  0.77193500  0.70078900  1
  C  C15  1  0.25343800  0.84705300  0.74582700  1
  C  C16  1  0.31892500  0.91088000  0.76525700  1
  C  C17  1  0.41138400  0.90271100  0.73247100  1
  C  C18  1  0.43978300  0.82591900  0.69005300  1
  C  C19  1  0.06199300  0.07316900  0.91995600  1
  C  C20  1  0.13987800  0.07114200  0.86710200  1
  C  C21  1  0.45921300  0.98011700  0.98344000  1
  C  C22  1  0.35106800  0.98378100  0.87739600  1
  C  C23  1  0.34580900  0.05718300  0.92636300  1
  C  C24  1  0.40232200  0.05701500  0.97725600  1
  C  C25  1  0.37887300  0.23583600  0.67831900  1
  C  C26  1  0.42522900  0.21705800  0.73399300  1
  C  C27  1  0.39947700  0.13996100  0.77894000  1
  C  C28  1  0.32108000  0.08343700  0.77299600  1
  C  C29  1  0.27522100  0.10282600  0.71617200  1
  C  C30  1  0.30438000  0.17758300  0.66891800  1
  C  C31  1  0.29508300  0.99211500  0.81740200  1
  C  C32  1  0.63460200  0.78032200  0.33665400  1
  C  C33  1  0.69059600  0.93134100  0.24112100  1
  C  C34  1  0.75464600  0.86318500  0.25567700  1
  C  C35  1  0.72606400  0.78712300  0.30207800  1
  C  C36  1  0.72341900  0.21051300  0.31523000  1
  C  C37  1  0.74820500  0.13423600  0.27021600  1
  C  C38  1  0.95853300  0.99828400  0.02457300  1
  C  C39  1  0.90218400  0.91842000  0.04292800  1
  C  C40  1  0.82730900  0.92170000  0.09757300  1
  C  C41  1  0.80666900  0.00407500  0.13727900  1
  C  C42  1  0.86402500  0.08439200  0.11868900  1
  C  C43  1  0.93923100  0.08094800  0.06363800  1
  C  C44  1  0.57410800  0.85326400  0.32807800  1
  C  C45  1  0.60179100  0.92774000  0.28159800  1
  C  C46  1  0.63739900  0.25296100  0.31784600  1
  C  C47  1  0.69040800  0.10359300  0.22341900  1
  C  C48  1  0.60469600  0.14958800  0.22617800  1
  C  C49  1  0.57878500  0.22196200  0.27324900  1
  C  C50  1  0.52531100  0.98402700  0.03259300  1
  C  C51  1  0.58271500  0.06331800  0.03220300  1
  C  C52  1  0.64473400  0.06829700  0.07901600  1
  C  C53  1  0.64576900  0.99682500  0.13008300  1
  C  C54  1  0.59368100  0.91316100  0.12539200  1
  C  C55  1  0.53335800  0.90759700  0.07728700  1
  C  C56  1  0.71058500  0.00929200  0.18374100  1
  C  C57  1  0.92657000  0.53277500  0.65736700  1
  C  C58  1  0.81147900  0.49158500  0.58801100  1
  C  C59  1  0.17726000  0.47299200  0.35534900  1
  C  C60  1  0.08534300  0.46494900  0.34808000  1
  C  C61  1  0.01677500  0.47142800  0.40670800  1
  C  C62  1  0.03940100  0.48503500  0.47432800  1
  C  C63  1  0.13174800  0.49901300  0.48053600  1
  C  C64  1  0.97195600  0.48936300  0.53532700  1
  C  C65  1  0.99533800  0.51795500  0.59912900  1
  C  C66  1  0.08745800  0.53182100  0.60474000  1
  C  C67  1  0.15549400  0.51965400  0.54655100  1
  C  C68  1  0.88048700  0.46642100  0.53368900  1
  C  C69  1  0.83358900  0.52389400  0.65095600  1
  C  C70  1  0.19975900  0.49173000  0.42083200  1
  O  O1  1  0.50628500  0.50116600  0.50158600  1
  O  O2  1  0.71719500  0.50071400  0.50114000  1
  O  O3  1  0.45831300  0.61158200  0.64945500  1
  O  O4  1  0.51283100  0.69940200  0.41560300  1
  O  O5  1  0.64270100  0.49826900  0.61694200  1
  O  O6  1  0.65269600  0.62337600  0.38824800  1
  O  O7  1  0.39410200  0.68671000  0.56162000  1
  O  O8  1  0.33249400  0.57933700  0.44053900  1
  O  O9  1  0.51787800  0.31127700  0.40774000  1
  O  O10  1  0.33378000  0.41417000  0.44427700  1
  O  O11  1  0.65321600  0.39978800  0.38053000  1
  O  O12  1  0.45626300  0.38811200  0.64996500  1
  O  O13  1  0.40523400  0.30416700  0.56057900  1
