# generated using pymatgen
data_FeH16C24(NO4)3
_symmetry_space_group_name_H-M   'P 1'
_cell_length_a   13.79750800
_cell_length_b   13.81903200
_cell_length_c   15.06477000
_cell_angle_alpha   86.17433900
_cell_angle_beta   91.52567800
_cell_angle_gamma   117.09422700
_symmetry_Int_Tables_number   1
_chemical_formula_structural   FeH16C24(NO4)3
_chemical_formula_sum   'Fe2 H32 C48 N6 O24'
_cell_volume   2551.43369687
_cell_formula_units_Z   2
loop_
 _symmetry_equiv_pos_site_id
 _symmetry_equiv_pos_as_xyz
  1  'x, y, z'
loop_
 _atom_site_type_symbol
 _atom_site_label
 _atom_site_symmetry_multiplicity
 _atom_site_fract_x
 _atom_site_fract_y
 _atom_site_fract_z
 _atom_site_occupancy
  Fe  Fe1  1  0.52368700  0.02162300  0.22517500  1
  Fe  Fe2  1  0.46341600  0.97031000  0.74425300  1
  H  H1  1  0.81635100  0.72122900  0.82021500  1
  H  H2  1  0.30276300  0.95883800  0.97870400  1
  H  H3  1  0.34760400  0.25077100  0.16221500  1
  H  H4  1  0.17518300  0.27154500  0.16863300  1
  H  H5  1  0.00475300  0.89166500  0.00313900  1
  H  H6  1  0.99499100  0.11836600  0.97461600  1
  H  H7  1  0.52612200  0.10868100  0.49483800  1
  H  H8  1  0.45392500  0.88152400  0.47235300  1
  H  H9  1  0.07369600  0.13204100  0.31512800  1
  H  H10  1  0.94184600  0.03469400  0.27631100  1
  H  H11  1  0.95126500  0.10456300  0.37552300  1
  H  H12  1  0.62794900  0.38050800  0.23474600  1
  H  H13  1  0.66551700  0.45059900  0.33698800  1
  H  H14  1  0.61316200  0.50266200  0.24471800  1
  H  H15  1  0.65134700  0.44253400  0.61763000  1
  H  H16  1  0.59689100  0.37645600  0.72560900  1
  H  H17  1  0.59636900  0.50380000  0.69041000  1
  H  H18  1  0.35061100  0.47280800  0.70709700  1
  H  H19  1  0.30841900  0.53682100  0.61638700  1
  H  H20  1  0.32925200  0.58985100  0.72568100  1
  H  H21  1  0.67941200  0.63253000  0.38808200  1
  H  H22  1  0.68262700  0.76342100  0.39840400  1
  H  H23  1  0.69438700  0.72106700  0.29022100  1
  H  H24  1  0.48871000  0.59823900  0.85049000  1
  H  H25  1  0.58823700  0.65405400  0.93692100  1
  H  H26  1  0.60771600  0.57467100  0.85485200  1
  H  H27  1  0.90577500  0.62715300  0.71725900  1
  H  H28  1  0.00665700  0.66079300  0.80416600  1
  H  H29  1  0.04721800  0.67077600  0.68953900  1
  H  H30  1  0.80225500  0.18573200  0.89498000  1
  H  H31  1  0.77372700  0.23722400  0.99379500  1
  H  H32  1  0.67629000  0.19401700  0.90438400  1
  C  C1  1  0.67027600  0.88689700  0.89500300  1
  C  C2  1  0.69397900  0.80697700  0.86834500  1
  C  C3  1  0.79866100  0.83333800  0.89459100  1
  C  C4  1  0.76007500  0.95566100  0.94300000  1
  C  C5  1  0.85593800  0.78600900  0.86511700  1
  C  C6  1  0.97453800  0.83167200  0.87320800  1
  C  C7  1  0.04140300  0.82950800  0.80793700  1
  C  C8  1  0.14701500  0.88358700  0.83743800  1
  C  C9  1  0.13994200  0.91451900  0.92206300  1
  C  C10  1  0.23200800  0.97296500  0.98117300  1
  C  C11  1  0.23635500  0.05120300  0.03058200  1
  C  C12  1  0.32508300  0.11690200  0.07973800  1
  C  C13  1  0.29991000  0.19186400  0.11487000  1
  C  C14  1  0.19532700  0.16620000  0.08816000  1
  C  C15  1  0.13703500  0.21060500  0.12026400  1
  C  C16  1  0.01876100  0.16455000  0.10919300  1
  C  C17  1  0.94851100  0.15943700  0.17452600  1
  C  C18  1  0.84477000  0.11172600  0.14013700  1
  C  C19  1  0.85626900  0.08903100  0.05325300  1
  C  C20  1  0.76837000  0.03947700  0.98803800  1
  C  C21  1  0.74511800  0.08696000  0.19044200  1
  C  C22  1  0.50163400  0.83153900  0.32070900  1
  C  C23  1  0.41831900  0.10004100  0.10832400  1
  C  C24  1  0.50780500  0.16437100  0.33153700  1
  C  C25  1  0.52392300  0.23178900  0.40624900  1
  C  C26  1  0.51123800  0.32522500  0.39614100  1
  C  C27  1  0.50167300  0.37538600  0.46973300  1
  C  C28  1  0.50031200  0.32709600  0.55535600  1
  C  C29  1  0.50875700  0.23029600  0.56394400  1
  C  C30  1  0.52507400  0.18655600  0.48959800  1
  C  C31  1  0.46779100  0.66518600  0.57325600  1
  C  C32  1  0.45635100  0.75913600  0.56241400  1
  C  C33  1  0.45815500  0.80518600  0.47854800  1
  C  C34  1  0.48301200  0.76557400  0.40534800  1
  C  C35  1  0.50328000  0.67542600  0.41667900  1
  C  C36  1  0.48822300  0.62056600  0.50091000  1
  C  C37  1  0.57563700  0.89960300  0.86238100  1
  C  C38  1  0.47451300  0.82704700  0.63726400  1
  C  C39  1  0.24490100  0.90851800  0.78477600  1
  C  C40  1  0.48903400  0.16394100  0.64817900  1
  C  C41  1  0.98664200  0.11282800  0.30853900  1
  C  C42  1  0.60719400  0.42759800  0.28088500  1
  C  C43  1  0.58727200  0.42537400  0.66781800  1
  C  C44  1  0.35860800  0.55175500  0.67745700  1
  C  C45  1  0.65484300  0.69267900  0.35647900  1
  C  C46  1  0.57675300  0.63416800  0.86609200  1
  C  C47  1  0.99130300  0.68182500  0.73466100  1
  C  C48  1  0.73795600  0.17749900  0.94190600  1
  N  N1  1  0.83848600  0.92248600  0.94249200  1
  N  N2  1  0.03464100  0.88270900  0.94304100  1
  N  N3  1  0.15653300  0.08134100  0.03562700  1
  N  N4  1  0.96243300  0.12136200  0.03544100  1
  N  N5  1  0.48640500  0.47009300  0.45275600  1
  N  N6  1  0.50247800  0.52553400  0.51828600  1
  O  O1  1  0.64988900  0.04554100  0.15104800  1
  O  O2  1  0.58336400  0.84874900  0.26876900  1
  O  O3  1  0.75163300  0.10365500  0.27552600  1
  O  O4  1  0.45071300  0.89184000  0.30829400  1
  O  O5  1  0.40161200  0.00325200  0.14164200  1
  O  O6  1  0.50935000  0.18539200  0.12657900  1
  O  O7  1  0.58868400  0.15120200  0.29981800  1
  O  O8  1  0.40758900  0.09740100  0.31044100  1
  O  O9  1  0.59021500  0.99324900  0.82371500  1
  O  O10  1  0.48424900  0.81216800  0.84915400  1
  O  O11  1  0.39438300  0.83673400  0.67423900  1
  O  O12  1  0.57507100  0.89755000  0.65389800  1
  O  O13  1  0.41314200  0.15502200  0.70350100  1
  O  O14  1  0.34133300  0.94959700  0.82228600  1
  O  O15  1  0.53178800  0.09617200  0.65671900  1
  O  O16  1  0.23558400  0.89128900  0.69972000  1
  O  O17  1  0.97746200  0.19670700  0.25788700  1
  O  O18  1  0.50094400  0.36497500  0.31263100  1
  O  O19  1  0.48402800  0.36872900  0.63048100  1
  O  O20  1  0.46790900  0.62054800  0.65701200  1
  O  O21  1  0.54156200  0.64472200  0.34622500  1
  O  O22  1  0.63324400  0.72854700  0.81141200  1
  O  O23  1  0.00891100  0.78988000  0.72570800  1
  O  O24  1  0.68804000  0.07182500  0.98155700  1
