# generated using pymatgen
data_ZnH15C22N2O5
_symmetry_space_group_name_H-M   'P 1'
_cell_length_a   12.55819100
_cell_length_b   13.71595500
_cell_length_c   15.96181400
_cell_angle_alpha   89.99009500
_cell_angle_beta   102.21872300
_cell_angle_gamma   86.64748100
_symmetry_Int_Tables_number   1
_chemical_formula_structural   ZnH15C22N2O5
_chemical_formula_sum   'Zn2 H30 C44 N4 O10'
_cell_volume   2682.28096344
_cell_formula_units_Z   2
loop_
 _symmetry_equiv_pos_site_id
 _symmetry_equiv_pos_as_xyz
  1  'x, y, z'
loop_
 _atom_site_type_symbol
 _atom_site_label
 _atom_site_symmetry_multiplicity
 _atom_site_fract_x
 _atom_site_fract_y
 _atom_site_fract_z
 _atom_site_occupancy
  Zn  Zn1  1  0.37938300  0.47487300  0.48422200  1
  Zn  Zn2  1  0.61904400  0.51856800  0.52019500  1
  H  H1  1  0.38218600  0.62136600  0.04751600  1
  H  H2  1  0.37242600  0.61089200  0.90561700  1
  H  H3  1  0.66754100  0.54292800  0.95794800  1
  H  H4  1  0.56293300  0.64035200  0.95041200  1
  H  H5  1  0.58561400  0.62715800  0.09469000  1
  H  H6  1  0.66855900  0.51455300  0.09825400  1
  H  H7  1  0.61913200  0.37818700  0.96590700  1
  H  H8  1  0.43414800  0.35372200  0.05257200  1
  H  H9  1  0.32494100  0.49030000  0.90291800  1
  H  H10  1  0.31954200  0.50570400  0.04318000  1
  H  H11  1  0.57922700  0.35311100  0.09452700  1
  H  H12  1  0.74987000  0.22610000  0.50382400  1
  H  H13  1  0.74101500  0.89498800  0.45470200  1
  H  H14  1  0.79536800  0.05483000  0.48407200  1
  H  H15  1  0.42697000  0.16286000  0.51383900  1
  H  H16  1  0.33344200  0.05574500  0.54444600  1
  H  H17  1  0.20018300  0.93968600  0.52046600  1
  H  H18  1  0.60845700  0.77659000  0.43743600  1
  H  H19  1  0.24380700  0.34241600  0.36999500  1
  H  H20  1  0.87346000  0.32759600  0.35832200  1
  H  H21  1  0.05256500  0.30313500  0.33698700  1
  H  H22  1  0.18518700  0.54731100  0.55015900  1
  H  H23  1  0.74396700  0.65070700  0.63126700  1
  H  H24  1  0.07242600  0.61566000  0.61239200  1
  H  H25  1  0.93331400  0.69394400  0.67421700  1
  H  H26  1  0.74207900  0.40821700  0.42634100  1
  H  H27  1  0.17364500  0.65204900  0.38593300  1
  H  H28  1  0.23755600  0.74321100  0.34887000  1
  H  H29  1  0.47791100  0.19765000  0.83506000  1
  H  H30  1  0.58394300  0.20497800  0.91929500  1
  C  C1  1  0.44540900  0.68590200  0.49118800  1
  C  C2  1  0.50495900  0.49765500  0.66690900  1
  C  C3  1  0.55243200  0.30876700  0.51117900  1
  C  C4  1  0.49322300  0.49601600  0.33744900  1
  C  C5  1  0.39015600  0.53682000  0.93492300  1
  C  C6  1  0.58606900  0.56348900  0.97128300  1
  C  C7  1  0.59047900  0.55347800  0.06664600  1
  C  C8  1  0.49204100  0.49584900  0.24734600  1
  C  C9  1  0.50193400  0.49719200  0.92350400  1
  C  C10  1  0.38981400  0.54354900  0.02958200  1
  C  C11  1  0.49560600  0.49624600  0.08079800  1
  C  C12  1  0.50900600  0.39208700  0.05110500  1
  C  C13  1  0.53050000  0.39444800  0.96122600  1
  C  C14  1  0.49293100  0.49594900  0.17199800  1
  C  C15  1  0.50499600  0.49756300  0.83233100  1
  C  C16  1  0.50608500  0.49783700  0.75700400  1
  C  C17  1  0.71462500  0.07697000  0.49322900  1
  C  C18  1  0.58400800  0.20396500  0.51045500  1
  C  C19  1  0.30481700  0.82375000  0.49005800  1
  C  C20  1  0.28159100  0.91760100  0.51282000  1
  C  C21  1  0.35861200  0.98532300  0.52352200  1
  C  C22  1  0.45998100  0.96299400  0.50448700  1
  C  C23  1  0.48736600  0.86592500  0.48644500  1
  C  C24  1  0.53446900  0.03565100  0.50339300  1
  C  C25  1  0.63752300  0.00882200  0.49054500  1
  C  C26  1  0.66290200  0.91442100  0.47032000  1
  C  C27  1  0.58736700  0.84516400  0.46412100  1
  C  C28  1  0.50774600  0.13522100  0.51085600  1
  C  C29  1  0.68876500  0.17401500  0.50449100  1
  C  C30  1  0.41217600  0.79308200  0.48651500  1
  C  C31  1  0.07933200  0.35770200  0.38442900  1
  C  C32  1  0.80520700  0.61469900  0.60170800  1
  C  C33  1  0.91160400  0.63907500  0.62599600  1
  C  C34  1  0.99074700  0.59366700  0.58962800  1
  C  C35  1  0.96304600  0.52325300  0.52740500  1
  C  C36  1  0.85386400  0.50000800  0.50519800  1
  C  C37  1  0.04054700  0.47526600  0.48678100  1
  C  C38  1  0.00642400  0.40547000  0.42591200  1
  C  C39  1  0.89943600  0.38249800  0.40563500  1
  C  C40  1  0.82426600  0.42912000  0.44472800  1
  C  C41  1  0.15121800  0.49452500  0.50395500  1
  C  C42  1  0.18666200  0.37970300  0.40284400  1
  C  C43  1  0.21071400  0.76286900  0.46816100  1
  C  C44  1  0.47183500  0.31739800  0.90625500  1
  N  N1  1  0.22072400  0.44739800  0.46156200  1
  N  N2  1  0.77706200  0.54585600  0.54250400  1
  N  N3  1  0.17798600  0.72763900  0.38284100  1
  N  N4  1  0.53310900  0.24490400  0.86917400  1
  O  O1  1  0.36904100  0.62283800  0.48091800  1
  O  O2  1  0.54950600  0.65641800  0.51053900  1
  O  O3  1  0.41318700  0.48092200  0.61388700  1
  O  O4  1  0.59505600  0.51453800  0.64172500  1
  O  O5  1  0.44825100  0.33685800  0.49524400  1
  O  O6  1  0.62993000  0.37056500  0.52316500  1
  O  O7  1  0.40350200  0.47823600  0.36271800  1
  O  O8  1  0.58446900  0.51419000  0.39041700  1
  O  O9  1  0.15046900  0.75588400  0.51826200  1
  O  O10  1  0.37292700  0.31438200  0.89430800  1
