# generated using pymatgen
data_Cu2H38C58N6O13
_symmetry_space_group_name_H-M   'P 1'
_cell_length_a   15.62350600
_cell_length_b   15.83845700
_cell_length_c   16.99944800
_cell_angle_alpha   89.98940000
_cell_angle_beta   96.39081000
_cell_angle_gamma   92.81495800
_symmetry_Int_Tables_number   1
_chemical_formula_structural   Cu2H38C58N6O13
_chemical_formula_sum   'Cu2 H38 C58 N6 O13'
_cell_volume   4175.30747126
_cell_formula_units_Z   1
loop_
 _symmetry_equiv_pos_site_id
 _symmetry_equiv_pos_as_xyz
  1  'x, y, z'
loop_
 _atom_site_type_symbol
 _atom_site_label
 _atom_site_symmetry_multiplicity
 _atom_site_fract_x
 _atom_site_fract_y
 _atom_site_fract_z
 _atom_site_occupancy
  Cu  Cu1  1  0.58452800  0.50832700  0.49414900  1
  Cu  Cu2  1  0.41311300  0.50875700  0.49262800  1
  H  H1  1  0.57564400  0.08837400  0.60415000  1
  H  H2  1  0.36513900  0.92814700  0.47939700  1
  H  H3  1  0.41183200  0.92279200  0.58004600  1
  H  H4  1  0.41869200  0.06641100  0.59090600  1
  H  H5  1  0.35630900  0.06803700  0.49484700  1
  H  H6  1  0.56518700  0.94717700  0.38526100  1
  H  H7  1  0.44948000  0.93092500  0.36982400  1
  H  H8  1  0.54952700  0.08801400  0.38225100  1
  H  H9  1  0.64047200  0.95488600  0.51420100  1
  H  H10  1  0.63226700  0.09460400  0.51749800  1
  H  H11  1  0.43369400  0.07167600  0.37293500  1
  H  H12  1  0.61150600  0.51677000  0.25057400  1
  H  H13  1  0.60481000  0.51493800  0.11092600  1
  H  H14  1  0.66232700  0.49972800  0.90119500  1
  H  H15  1  0.33736300  0.49701700  0.23876000  1
  H  H16  1  0.38787200  0.50747900  0.87370900  1
  H  H17  1  0.38649000  0.50287500  0.73429300  1
  H  H18  1  0.87850000  0.40392000  0.44118000  1
  H  H19  1  0.11848800  0.40564100  0.38610800  1
  H  H20  1  0.27467600  0.42291900  0.39670200  1
  H  H21  1  0.72359500  0.61528400  0.56969900  1
  H  H22  1  0.11916500  0.57346000  0.58189200  1
  H  H23  1  0.88006600  0.62668500  0.58213500  1
  H  H24  1  0.77061000  0.58010800  0.81961200  1
  H  H25  1  0.88978100  0.50945400  0.74441700  1
  H  H26  1  0.80866500  0.38728600  0.65575700  1
  H  H27  1  0.21928400  0.54545600  0.16308100  1
  H  H28  1  0.09839500  0.51151900  0.04414500  1
  H  H29  1  0.17644500  0.44876000  0.92909500  1
  H  H30  1  0.71042700  0.86508500  0.62154300  1
  H  H31  1  0.68551100  0.83237000  0.77115700  1
  H  H32  1  0.54562300  0.90965600  0.79767500  1
  H  H33  1  0.78953500  0.27068000  0.47087900  1
  H  H34  1  0.68679200  0.17853200  0.36509200  1
  H  H35  1  0.58411700  0.28485600  0.28684700  1
  H  H36  1  0.20213200  0.56936400  0.70694300  1
  H  H37  1  0.30259000  0.68828200  0.78523600  1
  H  H38  1  0.41156000  0.74541500  0.68740800  1
  C  C1  1  0.51652400  0.50677100  0.64602100  1
  C  C2  1  0.50757800  0.67075500  0.49282400  1
  C  C3  1  0.48149300  0.50798100  0.34116700  1
  C  C4  1  0.48993800  0.34633500  0.49330700  1
  C  C5  1  0.58221600  0.96963300  0.54230800  1
  C  C6  1  0.41971900  0.95222500  0.52207000  1
  C  C7  1  0.41681100  0.04734800  0.52795500  1
  C  C8  1  0.48695500  0.25569800  0.49302400  1
  C  C9  1  0.50391000  0.92927900  0.49235200  1
  C  C10  1  0.57582500  0.06475100  0.54281300  1
  C  C11  1  0.49373500  0.08783100  0.49300000  1
  C  C12  1  0.49471700  0.05649600  0.40868600  1
  C  C13  1  0.50397500  0.96167300  0.40852300  1
  C  C14  1  0.48846800  0.17973800  0.49292400  1
  C  C15  1  0.50898900  0.83734100  0.49247100  1
  C  C16  1  0.51050700  0.76138300  0.49266700  1
  C  C17  1  0.52385900  0.50271700  0.73353000  1
  C  C18  1  0.44838100  0.50396600  0.76922600  1
  C  C19  1  0.44928400  0.50603900  0.85022400  1
  C  C20  1  0.52690900  0.50646400  0.89789700  1
  C  C21  1  0.60231100  0.50313000  0.86329000  1
  C  C22  1  0.60199400  0.49920100  0.78195000  1
  C  C23  1  0.54410700  0.51094800  0.13594000  1
  C  C24  1  0.54850300  0.51219300  0.21707400  1
  C  C25  1  0.46473800  0.50530800  0.09012800  1
  C  C26  1  0.47436400  0.50767100  0.25435200  1
  C  C27  1  0.39507100  0.50236300  0.20932400  1
  C  C28  1  0.38960200  0.50124300  0.12724800  1
  C  C29  1  0.24102300  0.54804200  0.54615200  1
  C  C30  1  0.15195700  0.53909900  0.54040600  1
  C  C31  1  0.10671300  0.48868900  0.48226600  1
  C  C32  1  0.15220600  0.44674200  0.43132200  1
  C  C33  1  0.24075500  0.45744800  0.43723200  1
  C  C34  1  0.84603900  0.45225900  0.46945600  1
  C  C35  1  0.75688000  0.44730100  0.46218300  1
  C  C36  1  0.89127700  0.51809100  0.51102800  1
  C  C37  1  0.75724900  0.56966800  0.53926900  1
  C  C38  1  0.84599300  0.57592200  0.54731900  1
  C  C39  1  0.68445100  0.48516200  0.75157600  1
  C  C40  1  0.76074700  0.52837100  0.77759700  1
  C  C41  1  0.82157800  0.49223500  0.73948100  1
  C  C42  1  0.77846700  0.42880400  0.69366700  1
  C  C43  1  0.30434700  0.49462000  0.08028000  1
  C  C44  1  0.22866300  0.51790500  0.10671900  1
  C  C45  1  0.16642900  0.50109300  0.04576200  1
  C  C46  1  0.20795600  0.46865900  0.98639000  1
  C  C47  1  0.59265800  0.93563700  0.62460100  1
  C  C48  1  0.65902800  0.88639700  0.65306600  1
  C  C49  1  0.64634600  0.86969600  0.72930300  1
  C  C50  1  0.57341300  0.91024800  0.74220900  1
  C  C51  1  0.71390200  0.37466400  0.41799900  1
  C  C52  1  0.73899100  0.29306200  0.42851700  1
  C  C53  1  0.68656900  0.24597600  0.37462300  1
  C  C54  1  0.63368500  0.30207000  0.33443300  1
  C  C55  1  0.28313000  0.60197100  0.61134100  1
  C  C56  1  0.25411800  0.60652100  0.68479700  1
  C  C57  1  0.30541400  0.66725900  0.72513200  1
  C  C58  1  0.36173400  0.69616500  0.67368300  1
  N  N1  1  0.53149500  0.50709100  0.98148900  1
  N  N2  1  0.45948500  0.50539100  0.00636600  1
  N  N3  1  0.28485800  0.50934200  0.49225800  1
  N  N4  1  0.01557700  0.47872000  0.47424400  1
  N  N5  1  0.98231700  0.52732300  0.51828900  1
  N  N6  1  0.71285700  0.50801700  0.49479300  1
  O  O1  1  0.58590900  0.51167300  0.60914400  1
  O  O2  1  0.43887900  0.50612100  0.60765900  1
  O  O3  1  0.57959600  0.63131400  0.49693900  1
  O  O4  1  0.43189800  0.63137000  0.48930600  1
  O  O5  1  0.55905100  0.51114900  0.37920700  1
  O  O6  1  0.41153100  0.50502000  0.37753700  1
  O  O7  1  0.56576700  0.38566000  0.49684000  1
  O  O8  1  0.41781000  0.38574800  0.48996700  1
  O  O9  1  0.69492100  0.42360400  0.70125100  1
  O  O10  1  0.29188600  0.46447000  0.00694600  1
  O  O11  1  0.54044600  0.95085800  0.67868600  1
  O  O12  1  0.65041500  0.38069500  0.36024800  1
  O  O13  1  0.34796600  0.65720700  0.60419700  1
