# generated using pymatgen
data_Fe2H16C45NClO16
_symmetry_space_group_name_H-M   'P 1'
_cell_length_a   14.38668900
_cell_length_b   9.38415500
_cell_length_c   15.59988800
_cell_angle_alpha   87.50797300
_cell_angle_beta   91.79707100
_cell_angle_gamma   110.44418200
_symmetry_Int_Tables_number   1
_chemical_formula_structural   Fe2H16C45NClO16
_chemical_formula_sum   'Fe2 H16 C45 N1 Cl1 O16'
_cell_volume   1971.27564308
_cell_formula_units_Z   1
loop_
 _symmetry_equiv_pos_site_id
 _symmetry_equiv_pos_as_xyz
  1  'x, y, z'
loop_
 _atom_site_type_symbol
 _atom_site_label
 _atom_site_symmetry_multiplicity
 _atom_site_fract_x
 _atom_site_fract_y
 _atom_site_fract_z
 _atom_site_occupancy
  Fe  Fe1  1  0.49829500  0.97714400  0.12693000  1
  Fe  Fe2  1  0.49976600  0.99010900  0.76639000  1
  H  H1  1  0.12435900  0.83678800  0.79771600  1
  H  H2  1  0.99319200  0.85653200  0.88057200  1
  H  H3  1  0.98567800  0.09481700  0.86490600  1
  H  H4  1  0.82832400  0.08113000  0.80041500  1
  H  H5  1  0.26849000  0.06533000  0.13886300  1
  H  H6  1  0.14092600  0.08973900  0.21922200  1
  H  H7  1  0.80733600  0.03060200  0.17190300  1
  H  H8  1  0.47542000  0.51442700  0.73530200  1
  H  H9  1  0.47124600  0.41173200  0.15630500  1
  H  H10  1  0.49278900  0.72075800  0.48952300  1
  H  H11  1  0.46533300  0.68600800  0.36136100  1
  H  H12  1  0.47855400  0.10710600  0.40424100  1
  H  H13  1  0.95105100  0.30337600  0.40839900  1
  H  H14  1  0.98718500  0.11228700  0.50325000  1
  H  H15  1  0.00845700  0.88866100  0.44208400  1
  H  H16  1  0.99374500  0.85606700  0.28620300  1
  C  C1  1  0.23763900  0.92557500  0.89349900  1
  C  C2  1  0.14218400  0.88429800  0.86053300  1
  C  C3  1  0.06746400  0.90270900  0.90683600  1
  C  C4  1  0.92122900  0.05731300  0.90501500  1
  C  C5  1  0.25475000  0.97181600  0.97759300  1
  C  C6  1  0.18016200  0.99663300  0.02279900  1
  C  C7  1  0.08766100  0.97390200  0.98495500  1
  C  C8  1  0.01506900  0.00821700  0.02989900  1
  C  C9  1  0.83254000  0.05680200  0.86849400  1
  C  C10  1  0.74832300  0.01510900  0.91696200  1
  C  C11  1  0.92765000  0.01846700  0.99147700  1
  C  C12  1  0.84813700  0.00795200  0.04241200  1
  C  C13  1  0.75603800  0.99281100  0.00490000  1
  C  C14  1  0.19782600  0.04334300  0.10643700  1
  C  C15  1  0.12296800  0.05622500  0.15379600  1
  C  C16  1  0.03044700  0.03329800  0.11718200  1
  C  C17  1  0.95452800  0.04210000  0.16667600  1
  C  C18  1  0.86331900  0.02271800  0.13006100  1
  C  C19  1  0.66774300  0.95846900  0.05785300  1
  C  C20  1  0.46825400  0.68574800  0.19339900  1
  C  C21  1  0.35122000  0.99752200  0.01935300  1
  C  C22  1  0.47114700  0.17064400  0.24388100  1
  C  C23  1  0.49411000  0.77345000  0.65032100  1
  C  C24  1  0.65142700  0.98697500  0.87428000  1
  C  C25  1  0.47805700  0.24486100  0.69233700  1
  C  C26  1  0.31781500  0.92427500  0.83705200  1
  C  C27  1  0.47477000  0.50307600  0.66666667  1
  C  C28  1  0.48195500  0.62731200  0.61372900  1
  C  C29  1  0.48469500  0.61795600  0.52628300  1
  C  C30  1  0.47606500  0.37042300  0.63259700  1
  C  C31  1  0.47648900  0.35985800  0.54389400  1
  C  C32  1  0.47747000  0.48198500  0.48958400  1
  C  C33  1  0.47359900  0.46548200  0.40032700  1
  C  C34  1  0.46978000  0.58054300  0.34173700  1
  C  C35  1  0.46903900  0.56198900  0.25434700  1
  C  C36  1  0.47573700  0.21302800  0.42580400  1
  C  C37  1  0.47267500  0.32888200  0.36889000  1
  C  C38  1  0.47173000  0.31107800  0.28084400  1
  C  C39  1  0.47153100  0.42790000  0.22447000  1
  C  C40  1  0.96581200  0.06299400  0.25936700  1
  C  C41  1  0.95252200  0.18735400  0.29397600  1
  C  C42  1  0.96060700  0.20526100  0.38148400  1
  C  C43  1  0.98096200  0.09823500  0.43466000  1
  C  C44  1  0.99305300  0.97303100  0.40035300  1
  C  C45  1  0.98515300  0.95509700  0.31284900  1
  N  N1  1  0.47623300  0.23016100  0.51072300  1
  Cl  Cl1  1  0.92833700  0.32528800  0.22678100  1
  O  O1  1  0.60302900  0.02568500  0.03996400  1
  O  O2  1  0.45798600  0.66231200  0.11074800  1
  O  O3  1  0.65383800  0.86182300  0.12354700  1
  O  O4  1  0.48583000  0.82324600  0.22098500  1
  O  O5  1  0.36780400  0.88736100  0.06489200  1
  O  O6  1  0.41643000  0.13613100  0.02114300  1
  O  O7  1  0.53201300  0.17898700  0.18154600  1
  O  O8  1  0.40087000  0.04087700  0.26314200  1
  O  O9  1  0.45053500  0.77841800  0.72218500  1
  O  O10  1  0.55430200  0.89930700  0.61421200  1
  O  O11  1  0.63938200  0.07858600  0.81218300  1
  O  O12  1  0.57665300  0.86348800  0.89504700  1
  O  O13  1  0.29816900  0.89859000  0.75527800  1
  O  O14  1  0.50290700  0.13103300  0.66737300  1
  O  O15  1  0.41057600  0.96620400  0.86422100  1
  O  O16  1  0.45942400  0.25050800  0.77366200  1
