# generated using pymatgen
data_FeH9C26N2(ClO4)2
_symmetry_space_group_name_H-M   'P 1'
_cell_length_a   15.72807900
_cell_length_b   9.47919900
_cell_length_c   19.76851000
_cell_angle_alpha   85.66781700
_cell_angle_beta   84.07555200
_cell_angle_gamma   108.05453000
_symmetry_Int_Tables_number   1
_chemical_formula_structural   FeH9C26N2(ClO4)2
_chemical_formula_sum   'Fe2 H18 C52 N4 Cl4 O16'
_cell_volume   2769.11830169
_cell_formula_units_Z   2
loop_
 _symmetry_equiv_pos_site_id
 _symmetry_equiv_pos_as_xyz
  1  'x, y, z'
loop_
 _atom_site_type_symbol
 _atom_site_label
 _atom_site_symmetry_multiplicity
 _atom_site_fract_x
 _atom_site_fract_y
 _atom_site_fract_z
 _atom_site_occupancy
  Fe  Fe1  1  0.52235500  0.99944900  0.12631800  1
  Fe  Fe2  1  0.53958800  0.02120200  0.82965700  1
  H  H1  1  0.96717800  0.09397200  0.86891800  1
  H  H2  1  0.21423900  0.01484400  0.87382400  1
  H  H3  1  0.06847900  0.01772400  0.89876200  1
  H  H4  1  0.82702000  0.09508500  0.83604000  1
  H  H5  1  0.24373600  0.98453200  0.11874200  1
  H  H6  1  0.09691600  0.99492700  0.14309400  1
  H  H7  1  0.80791200  0.02999600  0.13429300  1
  H  H8  1  0.54190400  0.56312800  0.80773700  1
  H  H9  1  0.53501000  0.30514900  0.63957500  1
  H  H10  1  0.54024800  0.75935000  0.60796100  1
  H  H11  1  0.50120000  0.44607400  0.14673500  1
  H  H12  1  0.50111700  0.69657700  0.31650300  1
  H  H13  1  0.28137100  0.98763300  0.48190900  1
  H  H14  1  0.52115600  0.90028800  0.40537000  1
  H  H15  1  0.56783900  0.13222000  0.32722900  1
  H  H16  1  0.93763300  0.20453000  0.32287800  1
  H  H17  1  0.94905100  0.76159400  0.32138600  1
  H  H18  1  0.94607400  0.77979900  0.19700300  1
  C  C1  1  0.91186800  0.06921600  0.90944500  1
  C  C2  1  0.30221000  0.00492500  0.94853000  1
  C  C3  1  0.22127000  0.00748200  0.92763500  1
  C  C4  1  0.14964800  0.00555700  0.97479600  1
  C  C5  1  0.07118600  0.01649000  0.95285000  1
  C  C6  1  0.99940100  0.02206400  0.99923300  1
  C  C7  1  0.83155900  0.07483600  0.88989000  1
  C  C8  1  0.75582300  0.04235100  0.93710600  1
  C  C9  1  0.91958600  0.03728600  0.97799200  1
  C  C10  1  0.84619600  0.02453800  0.02656900  1
  C  C11  1  0.76237100  0.01855900  0.00621600  1
  C  C12  1  0.30976000  0.99534000  0.01801700  1
  C  C13  1  0.23663500  0.98784100  0.06487800  1
  C  C14  1  0.15742500  0.99598700  0.04319900  1
  C  C15  1  0.08689900  0.99821900  0.08998100  1
  C  C16  1  0.00740900  0.00911500  0.06865500  1
  C  C17  1  0.93719900  0.01322300  0.11610100  1
  C  C18  1  0.85841800  0.02221800  0.09501200  1
  C  C19  1  0.68068100  0.98506000  0.05674300  1
  C  C20  1  0.49896800  0.71310300  0.18052700  1
  C  C21  1  0.39633000  0.01388600  0.04325700  1
  C  C22  1  0.48566200  0.18990400  0.21483400  1
  C  C23  1  0.54719400  0.81689300  0.73657900  1
  C  C24  1  0.66883400  0.01959800  0.91176300  1
  C  C25  1  0.54189800  0.29271900  0.77458100  1
  C  C26  1  0.37781900  0.01401300  0.89612200  1
  C  C27  1  0.54023200  0.42053000  0.72826700  1
  C  C28  1  0.53757600  0.40948100  0.65917100  1
  C  C29  1  0.53560800  0.52992500  0.61579400  1
  C  C30  1  0.54003600  0.66345000  0.64127000  1
  C  C31  1  0.54131100  0.67447800  0.71020800  1
  C  C32  1  0.53986200  0.55250400  0.75385100  1
  C  C33  1  0.49849500  0.48077900  0.41344800  1
  C  C34  1  0.52563900  0.51478100  0.54361300  1
  C  C35  1  0.47696000  0.33002100  0.31463200  1
  C  C36  1  0.48669300  0.32642600  0.24461900  1
  C  C37  1  0.49659300  0.45268800  0.20124200  1
  C  C38  1  0.49601800  0.58332500  0.22722900  1
  C  C39  1  0.49535100  0.59132900  0.29679600  1
  C  C40  1  0.48812900  0.46580400  0.34079400  1
  C  C41  1  0.45013700  0.18997500  0.36000700  1
  C  C42  1  0.37035900  0.14984100  0.40410500  1
  C  C43  1  0.34413600  0.01927800  0.44776600  1
  C  C44  1  0.39792700  0.92910900  0.44801500  1
  C  C45  1  0.47824900  0.96978900  0.40463800  1
  C  C46  1  0.50429500  0.09993800  0.36046200  1
  C  C47  1  0.94208200  0.00372700  0.18976400  1
  C  C48  1  0.93829800  0.12186300  0.22539400  1
  C  C49  1  0.93986100  0.11143000  0.29517100  1
  C  C50  1  0.94410500  0.98231900  0.32962400  1
  C  C51  1  0.94643900  0.86329400  0.29432200  1
  C  C52  1  0.94509000  0.87373500  0.22450500  1
  N  N1  1  0.50857900  0.62238600  0.50432500  1
  N  N2  1  0.49535400  0.60577800  0.44003200  1
  N  N3  1  0.51796800  0.37518300  0.45244500  1
  N  N4  1  0.53048200  0.39106600  0.51682400  1
  Cl  Cl1  1  0.30121600  0.26341100  0.40398700  1
  Cl  Cl2  1  0.36379900  0.76350600  0.50378000  1
  Cl  Cl3  1  0.93340400  0.28656400  0.18190900  1
  Cl  Cl4  1  0.94589900  0.96918800  0.41825800  1
  O  O1  1  0.61901600  0.04943400  0.04747300  1
  O  O2  1  0.49195600  0.69937200  0.11559000  1
  O  O3  1  0.66793200  0.88729600  0.11039400  1
  O  O4  1  0.51194100  0.84452600  0.20255800  1
  O  O5  1  0.40462800  0.91488300  0.09007300  1
  O  O6  1  0.46262600  0.13966300  0.02551700  1
  O  O7  1  0.54947400  0.19524000  0.16550200  1
  O  O8  1  0.41925200  0.06492900  0.23419900  1
  O  O9  1  0.50368000  0.81834600  0.79675100  1
  O  O10  1  0.59942700  0.94222800  0.70150000  1
  O  O11  1  0.66224300  0.10560600  0.85856900  1
  O  O12  1  0.60045000  0.90021900  0.93586200  1
  O  O13  1  0.37223500  0.04757900  0.83147800  1
  O  O14  1  0.54611900  0.16837000  0.75108200  1
  O  O15  1  0.45042500  0.98667700  0.91249000  1
  O  O16  1  0.53766000  0.30127300  0.84072400  1
