# generated using pymatgen
data_Cu3H24(C20O7)2
_symmetry_space_group_name_H-M   'P 1'
_cell_length_a   30.96302100
_cell_length_b   30.49107800
_cell_length_c   23.49281200
_cell_angle_alpha   90.00000000
_cell_angle_beta   131.21927100
_cell_angle_gamma   90.00000000
_symmetry_Int_Tables_number   1
_chemical_formula_structural   Cu3H24(C20O7)2
_chemical_formula_sum   'Cu12 H96 C160 O56'
_cell_volume   16683.24710706
_cell_formula_units_Z   4
loop_
 _symmetry_equiv_pos_site_id
 _symmetry_equiv_pos_as_xyz
  1  'x, y, z'
loop_
 _atom_site_type_symbol
 _atom_site_label
 _atom_site_symmetry_multiplicity
 _atom_site_fract_x
 _atom_site_fract_y
 _atom_site_fract_z
 _atom_site_occupancy
  Cu  Cu1  1  0.77366200  0.71937800  0.49984900  1
  Cu  Cu2  1  0.22633800  0.71937800  0.50015100  1
  Cu  Cu3  1  0.27366200  0.21937800  0.49984900  1
  Cu  Cu4  1  0.72633800  0.21937800  0.50015100  1
  Cu  Cu5  1  0.71317700  0.78136700  0.50007100  1
  Cu  Cu6  1  0.28682300  0.78136700  0.49992900  1
  Cu  Cu7  1  0.21317700  0.28136700  0.50007100  1
  Cu  Cu8  1  0.78682300  0.28136700  0.49992900  1
  Cu  Cu9  1  0.46307700  0.49396900  0.42465100  1
  Cu  Cu10  1  0.53692300  0.49396900  0.57535000  1
  Cu  Cu11  1  0.96307700  0.99396900  0.42465100  1
  Cu  Cu12  1  0.03692300  0.99396900  0.57535000  1
  H  H1  1  0.49376600  0.79806100  0.87792000  1
  H  H2  1  0.50623400  0.79806100  0.12208000  1
  H  H3  1  0.99376600  0.29806100  0.87792000  1
  H  H4  1  0.00623400  0.29806100  0.12208000  1
  H  H5  1  0.42757900  0.79682300  0.73982400  1
  H  H6  1  0.57242100  0.79682300  0.26017600  1
  H  H7  1  0.92757900  0.29682300  0.73982400  1
  H  H8  1  0.07242100  0.29682300  0.26017600  1
  H  H9  1  0.32093400  0.70572500  0.73730000  1
  H  H10  1  0.67906600  0.70572500  0.26270000  1
  H  H11  1  0.82093400  0.20572500  0.73730000  1
  H  H12  1  0.17906600  0.20572500  0.26270000  1
  H  H13  1  0.38769600  0.70757300  0.87503400  1
  H  H14  1  0.61230400  0.70757300  0.12496600  1
  H  H15  1  0.88769600  0.20757300  0.87503400  1
  H  H16  1  0.11230400  0.20757300  0.12496600  1
  H  H17  1  0.78669900  0.89887500  0.48217500  1
  H  H18  1  0.21330100  0.89887500  0.51782600  1
  H  H19  1  0.28669900  0.39887500  0.48217500  1
  H  H20  1  0.71330100  0.39887500  0.51782600  1
  H  H21  1  0.84546900  0.95184600  0.47984500  1
  H  H22  1  0.15453100  0.95184600  0.52015600  1
  H  H23  1  0.34546900  0.45184600  0.47984500  1
  H  H24  1  0.65453100  0.45184600  0.52015600  1
  H  H25  1  0.95005500  0.82393000  0.46830400  1
  H  H26  1  0.04994500  0.82393000  0.53169600  1
  H  H27  1  0.45005500  0.32393000  0.46830400  1
  H  H28  1  0.54994500  0.32393000  0.53169600  1
  H  H29  1  0.99868400  0.82984500  0.57464400  1
  H  H30  1  0.00131600  0.82984500  0.42535600  1
  H  H31  1  0.49868400  0.32984500  0.57464400  1
  H  H32  1  0.50131600  0.32984500  0.42535600  1
  H  H33  1  0.94060100  0.77642400  0.57494300  1
  H  H34  1  0.05939900  0.77642400  0.42505700  1
  H  H35  1  0.44060100  0.27642400  0.57494300  1
  H  H36  1  0.55939900  0.27642400  0.42505700  1
  H  H37  1  0.01532300  0.70456000  0.12517600  1
  H  H38  1  0.98467700  0.70456000  0.87482400  1
  H  H39  1  0.51532300  0.20456000  0.12517600  1
  H  H40  1  0.48467700  0.20456000  0.87482400  1
  H  H41  1  0.08644100  0.70298700  0.26293100  1
  H  H42  1  0.91355900  0.70298700  0.73706900  1
  H  H43  1  0.58644100  0.20298700  0.26293100  1
  H  H44  1  0.41355900  0.20298700  0.73706900  1
  H  H45  1  0.18555200  0.79947700  0.25992600  1
  H  H46  1  0.81444800  0.79947700  0.74007400  1
  H  H47  1  0.68555200  0.29947700  0.25992600  1
  H  H48  1  0.31444800  0.29947700  0.74007400  1
  H  H49  1  0.11357100  0.80038000  0.12184900  1
  H  H50  1  0.88642900  0.80038000  0.87815200  1
  H  H51  1  0.61357100  0.30038000  0.12184900  1
  H  H52  1  0.38642900  0.30038000  0.87815200  1
  H  H53  1  0.62106800  0.69747600  0.54244000  1
  H  H54  1  0.37893200  0.69747600  0.45756000  1
  H  H55  1  0.12106800  0.19747600  0.54244000  1
  H  H56  1  0.87893200  0.19747600  0.45756000  1
  H  H57  1  0.56875400  0.63787500  0.54479000  1
  H  H58  1  0.43124600  0.63787500  0.45521000  1
  H  H59  1  0.06875400  0.13787500  0.54479000  1
  H  H60  1  0.93124600  0.13787500  0.45521000  1
  H  H61  1  0.66566700  0.52347500  0.49512100  1
  H  H62  1  0.33433300  0.52347500  0.50487900  1
  H  H63  1  0.16566700  0.02347500  0.49512100  1
  H  H64  1  0.83433300  0.02347500  0.50487900  1
  H  H65  1  0.71894900  0.58203900  0.49421400  1
  H  H66  1  0.28105100  0.58203900  0.50578600  1
  H  H67  1  0.21894900  0.08203900  0.49421400  1
  H  H68  1  0.78105100  0.08203900  0.50578600  1
  H  H69  1  0.65373100  0.59531000  0.39315300  1
  H  H70  1  0.34626900  0.59531000  0.60684700  1
  H  H71  1  0.15373100  0.09531000  0.39315300  1
  H  H72  1  0.84626900  0.09531000  0.60684700  1
  H  H73  1  0.63901600  0.47849700  0.38898000  1
  H  H74  1  0.58704700  0.49918000  0.29327800  1
  H  H75  1  0.56341700  0.46719900  0.33338000  1
  H  H76  1  0.36098400  0.47849700  0.61102000  1
  H  H77  1  0.41295300  0.49918000  0.70672300  1
  H  H78  1  0.43658300  0.46719900  0.66666667  1
  H  H79  1  0.13901600  0.97849700  0.38898000  1
  H  H80  1  0.08704700  0.99918000  0.29327800  1
  H  H81  1  0.06341700  0.96719900  0.33338000  1
  H  H82  1  0.86098400  0.97849700  0.61102000  1
  H  H83  1  0.91295300  0.99918000  0.70672300  1
  H  H84  1  0.93658300  0.96719900  0.66666667  1
  H  H85  1  0.84294200  0.81405000  0.36918000  1
  H  H86  1  0.80093600  0.76527100  0.34482500  1
  H  H87  1  0.85834100  0.76488600  0.34302400  1
  H  H88  1  0.15705800  0.81405000  0.63082000  1
  H  H89  1  0.19906400  0.76527100  0.65517500  1
  H  H90  1  0.14165800  0.76488600  0.65697600  1
  H  H91  1  0.34294200  0.31405000  0.36918000  1
  H  H92  1  0.30093600  0.26527100  0.34482500  1
  H  H93  1  0.35834100  0.26488600  0.34302400  1
  H  H94  1  0.65705800  0.31405000  0.63082000  1
  H  H95  1  0.69906400  0.26527100  0.65517500  1
  H  H96  1  0.64165800  0.26488600  0.65697600  1
  C  C1  1  0.80239200  0.80956100  0.49981400  1
  C  C2  1  0.19760800  0.80956100  0.50018600  1
  C  C3  1  0.30239200  0.30956100  0.49981400  1
  C  C4  1  0.69760800  0.30956100  0.50018600  1
  C  C5  1  0.67106300  0.75039800  0.35450500  1
  C  C6  1  0.32893700  0.75039800  0.64549500  1
  C  C7  1  0.17106300  0.25039800  0.35450500  1
  C  C8  1  0.82893700  0.25039800  0.64549500  1
  C  C9  1  0.68446600  0.69116300  0.49999000  1
  C  C10  1  0.31553400  0.69116300  0.50001000  1
  C  C11  1  0.18446600  0.19116300  0.49999000  1
  C  C12  1  0.81553400  0.19116300  0.50001000  1
  C  C13  1  0.81626100  0.75066600  0.64548000  1
  C  C14  1  0.18373900  0.75066600  0.35452000  1
  C  C15  1  0.31626100  0.25066600  0.64548000  1
  C  C16  1  0.68373900  0.25066600  0.35452000  1
  C  C17  1  0.45569600  0.77783500  0.84666500  1
  C  C18  1  0.54430400  0.77783500  0.15333500  1
  C  C19  1  0.95569600  0.27783500  0.84666500  1
  C  C20  1  0.04430400  0.27783500  0.15333500  1
  C  C21  1  0.41820800  0.77699300  0.76864900  1
  C  C22  1  0.58179200  0.77699300  0.23135100  1
  C  C23  1  0.91820800  0.27699300  0.76864900  1
  C  C24  1  0.08179200  0.27699300  0.23135100  1
  C  C25  1  0.36946100  0.75110300  0.72844600  1
  C  C26  1  0.63053900  0.75110300  0.27155400  1
  C  C27  1  0.86946100  0.25110300  0.72844600  1
  C  C28  1  0.13053900  0.25110300  0.27155400  1
  C  C29  1  0.35871700  0.72615300  0.76715500  1
  C  C30  1  0.64128300  0.72615300  0.23284500  1
  C  C31  1  0.85871700  0.22615300  0.76715500  1
  C  C32  1  0.14128300  0.22615300  0.23284500  1
  C  C33  1  0.39627300  0.72712400  0.84505800  1
  C  C34  1  0.60372700  0.72712400  0.15494200  1
  C  C35  1  0.89627300  0.22712400  0.84505800  1
  C  C36  1  0.10372700  0.22712400  0.15494200  1
  C  C37  1  0.44468700  0.75294900  0.88482500  1
  C  C38  1  0.55531300  0.75294900  0.11517500  1
  C  C39  1  0.94468700  0.25294900  0.88482500  1
  C  C40  1  0.05531300  0.25294900  0.11517500  1
  C  C41  1  0.48368400  0.75355200  0.96594000  1
  C  C42  1  0.51631600  0.75355200  0.03406000  1
  C  C43  1  0.98368400  0.25355200  0.96594000  1
  C  C44  1  0.01631600  0.25355200  0.03406000  1
  C  C45  1  0.88295500  0.83099900  0.50811600  1
  C  C46  1  0.11704500  0.83099900  0.49188400  1
  C  C47  1  0.38295500  0.33099900  0.50811600  1
  C  C48  1  0.61704500  0.33099900  0.49188400  1
  C  C49  1  0.83628600  0.84280800  0.49951600  1
  C  C50  1  0.16371400  0.84280800  0.50048500  1
  C  C51  1  0.33628600  0.34280800  0.49951600  1
  C  C52  1  0.66371400  0.34280800  0.50048500  1
  C  C53  1  0.82317600  0.88729000  0.48972800  1
  C  C54  1  0.17682400  0.88729000  0.51027200  1
  C  C55  1  0.32317600  0.38729000  0.48972800  1
  C  C56  1  0.67682400  0.38729000  0.51027200  1
  C  C57  1  0.85646700  0.91749900  0.48829000  1
  C  C58  1  0.14353300  0.91749900  0.51171100  1
  C  C59  1  0.35646700  0.41749900  0.48829000  1
  C  C60  1  0.64353300  0.41749900  0.51171100  1
  C  C61  1  0.90373700  0.90383800  0.49801400  1
  C  C62  1  0.09626300  0.90383800  0.50198600  1
  C  C63  1  0.40373700  0.40383800  0.49801400  1
  C  C64  1  0.59626300  0.40383800  0.50198600  1
  C  C65  1  0.91516200  0.85989300  0.50844600  1
  C  C66  1  0.08483800  0.85989300  0.49155400  1
  C  C67  1  0.41516200  0.35989300  0.50844600  1
  C  C68  1  0.58483800  0.35989300  0.49155400  1
  C  C69  1  0.95465700  0.82665300  0.51896700  1
  C  C70  1  0.04534300  0.82665300  0.48103300  1
  C  C71  1  0.45465700  0.32665300  0.51896700  1
  C  C72  1  0.54534300  0.32665300  0.48103300  1
  C  C73  1  0.91735400  0.79267500  0.51937200  1
  C  C74  1  0.08264600  0.79267500  0.48062800  1
  C  C75  1  0.41735400  0.29267500  0.51937200  1
  C  C76  1  0.58264600  0.29267500  0.48062800  1
  C  C77  1  0.05281800  0.72534700  0.15505600  1
  C  C78  1  0.94718200  0.72534700  0.84494400  1
  C  C79  1  0.55281800  0.22534700  0.15505600  1
  C  C80  1  0.44718200  0.22534700  0.84494400  1
  C  C81  1  0.09321900  0.72456400  0.23296700  1
  C  C82  1  0.90678100  0.72456400  0.76703300  1
  C  C83  1  0.59321900  0.22456400  0.23296700  1
  C  C84  1  0.40678100  0.22456400  0.76703300  1
  C  C85  1  0.14129000  0.75112800  0.27155600  1
  C  C86  1  0.85871000  0.75112800  0.72844400  1
  C  C87  1  0.64129000  0.25112800  0.27155600  1
  C  C88  1  0.35871000  0.25112800  0.72844400  1
  C  C89  1  0.14845200  0.77837800  0.23121300  1
  C  C90  1  0.85154800  0.77837800  0.76878700  1
  C  C91  1  0.64845200  0.27837800  0.23121300  1
  C  C92  1  0.35154800  0.27837800  0.76878700  1
  C  C93  1  0.10787300  0.77903800  0.15319900  1
  C  C94  1  0.89212700  0.77903800  0.84680100  1
  C  C95  1  0.60787300  0.27903800  0.15319900  1
  C  C96  1  0.39212700  0.27903800  0.84680100  1
  C  C97  1  0.06004000  0.75258900  0.11516500  1
  C  C98  1  0.93996000  0.75258900  0.88483500  1
  C  C99  1  0.56004000  0.25258900  0.11516500  1
  C  C100  1  0.43996000  0.25258900  0.88483500  1
  C  C101  1  0.01779600  0.75312500  0.03405600  1
  C  C102  1  0.98220400  0.75312500  0.96594400  1
  C  C103  1  0.51779600  0.25312500  0.03405600  1
  C  C104  1  0.48220400  0.25312500  0.96594400  1
  C  C105  1  0.64961500  0.61497600  0.47797900  1
  C  C106  1  0.35038500  0.61497600  0.52202100  1
  C  C107  1  0.14961500  0.11497600  0.47797900  1
  C  C108  1  0.85038500  0.11497600  0.52202100  1
  C  C109  1  0.65136100  0.65702900  0.50010900  1
  C  C110  1  0.34863900  0.65702900  0.49989100  1
  C  C111  1  0.15136100  0.15702900  0.50010900  1
  C  C112  1  0.84863900  0.15702900  0.49989100  1
  C  C113  1  0.62112700  0.66509600  0.52379000  1
  C  C114  1  0.37887300  0.66509600  0.47621000  1
  C  C115  1  0.12112700  0.16509600  0.52379000  1
  C  C116  1  0.87887300  0.16509600  0.47621000  1
  C  C117  1  0.59170800  0.63122100  0.52567400  1
  C  C118  1  0.40829200  0.63122100  0.47432600  1
  C  C119  1  0.09170800  0.13122100  0.52567400  1
  C  C120  1  0.90829200  0.13122100  0.47432600  1
  C  C121  1  0.59076900  0.58931100  0.50185600  1
  C  C122  1  0.40923100  0.58931100  0.49814400  1
  C  C123  1  0.09076900  0.08931100  0.50185600  1
  C  C124  1  0.90923100  0.08931100  0.49814400  1
  C  C125  1  0.62023900  0.58318400  0.47767900  1
  C  C126  1  0.37976100  0.58318400  0.52232200  1
  C  C127  1  0.12023900  0.08318400  0.47767900  1
  C  C128  1  0.87976100  0.08318400  0.52232200  1
  C  C129  1  0.63793100  0.54898100  0.45184500  1
  C  C130  1  0.36206900  0.54898100  0.54815600  1
  C  C131  1  0.13793100  0.04898100  0.45184500  1
  C  C132  1  0.86206900  0.04898100  0.54815600  1
  C  C133  1  0.67174800  0.58645700  0.45095400  1
  C  C134  1  0.32825200  0.58645700  0.54904600  1
  C  C135  1  0.17174800  0.08645700  0.45095400  1
  C  C136  1  0.82825200  0.08645700  0.54904600  1
  C  C137  1  0.44109500  0.55383200  0.49865700  1
  C  C138  1  0.55890500  0.55383200  0.50134300  1
  C  C139  1  0.94109500  0.05383200  0.49865700  1
  C  C140  1  0.05890500  0.05383200  0.50134300  1
  C  C141  1  0.94006800  0.93502900  0.49882800  1
  C  C142  1  0.05993200  0.93502900  0.50117200  1
  C  C143  1  0.44006800  0.43502900  0.49882800  1
  C  C144  1  0.55993200  0.43502900  0.50117200  1
  C  C145  1  0.58885900  0.53275200  0.37443200  1
  C  C146  1  0.59499800  0.49181200  0.34572600  1
  C  C147  1  0.41114100  0.53275200  0.62556900  1
  C  C148  1  0.40500200  0.49181200  0.65427400  1
  C  C149  1  0.08885900  0.03275200  0.37443200  1
  C  C150  1  0.09499800  0.99181200  0.34572600  1
  C  C151  1  0.91114100  0.03275200  0.62556900  1
  C  C152  1  0.90500200  0.99181200  0.65427400  1
  C  C153  1  0.88536400  0.76197900  0.45315900  1
  C  C154  1  0.84455500  0.77780600  0.37299600  1
  C  C155  1  0.11463600  0.76197900  0.54684100  1
  C  C156  1  0.15544500  0.77780600  0.62700400  1
  C  C157  1  0.38536400  0.26197900  0.45315900  1
  C  C158  1  0.34455500  0.27780600  0.37299600  1
  C  C159  1  0.61463600  0.26197900  0.54684100  1
  C  C160  1  0.65544500  0.27780600  0.62700400  1
  O  O1  1  0.81323900  0.76833800  0.49783200  1
  O  O2  1  0.18676100  0.76833800  0.50216800  1
  O  O3  1  0.31323900  0.26833800  0.49783200  1
  O  O4  1  0.68676100  0.26833800  0.50216800  1
  O  O5  1  0.76294900  0.82197000  0.50207500  1
  O  O6  1  0.23705100  0.82197000  0.49792500  1
  O  O7  1  0.26294900  0.32197000  0.50207500  1
  O  O8  1  0.73705100  0.32197000  0.49792500  1
  O  O9  1  0.71644000  0.72514500  0.38988900  1
  O  O10  1  0.28356000  0.72514500  0.61011100  1
  O  O11  1  0.21644000  0.22514500  0.38988900  1
  O  O12  1  0.78356000  0.22514500  0.61011100  1
  O  O13  1  0.66084900  0.77530300  0.39010800  1
  O  O14  1  0.33915100  0.77530300  0.60989200  1
  O  O15  1  0.16084900  0.27530300  0.39010800  1
  O  O16  1  0.83915100  0.27530300  0.60989200  1
  O  O17  1  0.72279200  0.67890800  0.49565600  1
  O  O18  1  0.27720800  0.67890800  0.50434400  1
  O  O19  1  0.22279200  0.17890800  0.49565600  1
  O  O20  1  0.77720800  0.17890800  0.50434400  1
  O  O21  1  0.67467800  0.73239000  0.50427400  1
  O  O22  1  0.32532200  0.73239000  0.49572600  1
  O  O23  1  0.17467800  0.23239000  0.50427400  1
  O  O24  1  0.82532200  0.23239000  0.49572600  1
  O  O25  1  0.82527000  0.72459100  0.60982100  1
  O  O26  1  0.17473000  0.72459100  0.39017900  1
  O  O27  1  0.32527000  0.22459100  0.60982100  1
  O  O28  1  0.67473000  0.22459100  0.39017900  1
  O  O29  1  0.77134900  0.77651700  0.61015300  1
  O  O30  1  0.22865100  0.77651700  0.38984700  1
  O  O31  1  0.27134900  0.27651700  0.61015300  1
  O  O32  1  0.72865100  0.27651700  0.38984700  1
  O  O33  1  0.42589600  0.54154600  0.43409800  1
  O  O34  1  0.57410400  0.54154600  0.56590200  1
  O  O35  1  0.92589600  0.04154600  0.43409800  1
  O  O36  1  0.07410400  0.04154600  0.56590200  1
  O  O37  1  0.48447400  0.53657900  0.56399600  1
  O  O38  1  0.51552600  0.53657900  0.43600400  1
  O  O39  1  0.98447400  0.03657900  0.56399600  1
  O  O40  1  0.01552600  0.03657900  0.43600400  1
  O  O41  1  0.92316100  0.94900100  0.43401800  1
  O  O42  1  0.07683900  0.94900100  0.56598200  1
  O  O43  1  0.42316100  0.44900100  0.43401800  1
  O  O44  1  0.57683900  0.44900100  0.56598200  1
  O  O45  1  0.98705600  0.94891600  0.56454300  1
  O  O46  1  0.01294400  0.94891600  0.43545700  1
  O  O47  1  0.48705600  0.44891600  0.56454300  1
  O  O48  1  0.51294400  0.44891600  0.43545700  1
  O  O49  1  0.54358700  0.55281500  0.33462300  1
  O  O50  1  0.45641300  0.55281500  0.66537700  1
  O  O51  1  0.04358700  0.05281500  0.33462300  1
  O  O52  1  0.95641300  0.05281500  0.66537700  1
  O  O53  1  0.89177000  0.72260500  0.46504700  1
  O  O54  1  0.10822900  0.72260500  0.53495300  1
  O  O55  1  0.39177000  0.22260500  0.46504700  1
  O  O56  1  0.60822900  0.22260500  0.53495300  1
