# generated using pymatgen
data_Zn3H36(C7O2)8
_symmetry_space_group_name_H-M   'P 1'
_cell_length_a   43.76448100
_cell_length_b   30.11987600
_cell_length_c   29.88846600
_cell_angle_alpha   90.00000000
_cell_angle_beta   132.75443200
_cell_angle_gamma   90.00000000
_symmetry_Int_Tables_number   1
_chemical_formula_structural   Zn3H36(C7O2)8
_chemical_formula_sum   'Zn12 H144 C224 O64'
_cell_volume   28929.06335550
_cell_formula_units_Z   4
loop_
 _symmetry_equiv_pos_site_id
 _symmetry_equiv_pos_as_xyz
  1  'x, y, z'
loop_
 _atom_site_type_symbol
 _atom_site_label
 _atom_site_symmetry_multiplicity
 _atom_site_fract_x
 _atom_site_fract_y
 _atom_site_fract_z
 _atom_site_occupancy
  Zn  Zn1  1  0.50026300  0.54732300  0.00029500  1
  Zn  Zn2  1  0.00026300  0.04732300  0.00029500  1
  Zn  Zn3  1  0.50009900  0.44663200  0.99990200  1
  Zn  Zn4  1  0.00009900  0.94663200  0.99990200  1
  Zn  Zn5  1  0.99940600  0.49864600  0.44892700  1
  Zn  Zn6  1  0.00090400  0.49874100  0.55164400  1
  Zn  Zn7  1  0.49940600  0.99864600  0.44892700  1
  Zn  Zn8  1  0.50090400  0.99874100  0.55164400  1
  Zn  Zn9  1  0.45255600  0.49941200  0.45288100  1
  Zn  Zn10  1  0.54696200  0.49919400  0.54649100  1
  Zn  Zn11  1  0.95255600  0.99941200  0.45288100  1
  Zn  Zn12  1  0.04696200  0.99919400  0.54649100  1
  H  H1  1  0.21872800  0.52694400  0.65177700  1
  H  H2  1  0.78165800  0.52693100  0.34875900  1
  H  H3  1  0.71872800  0.02694400  0.65177700  1
  H  H4  1  0.28165800  0.02693100  0.34875900  1
  H  H5  1  0.28812200  0.53441200  0.72542000  1
  H  H6  1  0.71229900  0.53465000  0.27509200  1
  H  H7  1  0.78812200  0.03441200  0.72542000  1
  H  H8  1  0.21229900  0.03465000  0.27509200  1
  H  H9  1  0.28543000  0.42572400  0.78433500  1
  H  H10  1  0.71463500  0.42605700  0.21563400  1
  H  H11  1  0.78543000  0.92572400  0.78433500  1
  H  H12  1  0.21463500  0.92605700  0.21563400  1
  H  H13  1  0.28486300  0.45104700  0.72905500  1
  H  H14  1  0.71519100  0.45127500  0.27095300  1
  H  H15  1  0.78486300  0.95104700  0.72905500  1
  H  H16  1  0.21519100  0.95127500  0.27095300  1
  H  H17  1  0.21463000  0.44877600  0.66003400  1
  H  H18  1  0.78542200  0.44876000  0.34013000  1
  H  H19  1  0.71463000  0.94877600  0.66003400  1
  H  H20  1  0.28542200  0.94876000  0.34013000  1
  H  H21  1  0.21515900  0.42609200  0.71633300  1
  H  H22  1  0.78491500  0.42610100  0.28384400  1
  H  H23  1  0.71515900  0.92609200  0.71633300  1
  H  H24  1  0.28491500  0.92610100  0.28384400  1
  H  H25  1  0.28528200  0.53348300  0.84660000  1
  H  H26  1  0.71529600  0.53393100  0.15408300  1
  H  H27  1  0.78528200  0.03348300  0.84660000  1
  H  H28  1  0.21529600  0.03393100  0.15408300  1
  H  H29  1  0.28463200  0.47403600  0.85167400  1
  H  H30  1  0.71566500  0.47449100  0.14861200  1
  H  H31  1  0.78463200  0.97403600  0.85167400  1
  H  H32  1  0.21566500  0.97449100  0.14861200  1
  H  H33  1  0.28388900  0.56775100  0.77119700  1
  H  H34  1  0.71669200  0.56805700  0.22953800  1
  H  H35  1  0.78388900  0.06775100  0.77119700  1
  H  H36  1  0.21669200  0.06805700  0.22953800  1
  H  H37  1  0.21361600  0.56688600  0.69047900  1
  H  H38  1  0.78694700  0.56687500  0.31026000  1
  H  H39  1  0.71361600  0.06688600  0.69047900  1
  H  H40  1  0.28694700  0.06687500  0.31026000  1
  H  H41  1  0.21546600  0.47243700  0.78053000  1
  H  H42  1  0.78481600  0.47247700  0.21988000  1
  H  H43  1  0.71546600  0.97243700  0.78053000  1
  H  H44  1  0.28481600  0.97247700  0.21988000  1
  H  H45  1  0.55644600  0.46052500  0.69633500  1
  H  H46  1  0.44306800  0.46062500  0.30305300  1
  H  H47  1  0.05644600  0.96052500  0.69633500  1
  H  H48  1  0.94306800  0.96062500  0.30305300  1
  H  H49  1  0.44552300  0.53814800  0.58604300  1
  H  H50  1  0.55397100  0.53838200  0.41311900  1
  H  H51  1  0.94552300  0.03814800  0.58604300  1
  H  H52  1  0.05397100  0.03838200  0.41311900  1
  H  H53  1  0.41622300  0.56280900  0.62597400  1
  H  H54  1  0.58346200  0.56246700  0.37330800  1
  H  H55  1  0.91622300  0.06280900  0.62597400  1
  H  H56  1  0.08346200  0.06246700  0.37330800  1
  H  H57  1  0.41769400  0.56479300  0.70925100  1
  H  H58  1  0.58235100  0.56361300  0.29036900  1
  H  H59  1  0.91769400  0.06479300  0.70925100  1
  H  H60  1  0.08235100  0.06361300  0.29036900  1
  H  H61  1  0.44913800  0.54271000  0.80969100  1
  H  H62  1  0.55122000  0.54084200  0.19034600  1
  H  H63  1  0.94913800  0.04271000  0.80969100  1
  H  H64  1  0.05122000  0.04084200  0.19034600  1
  H  H65  1  0.55149400  0.45315200  0.91124800  1
  H  H66  1  0.44879600  0.45130900  0.08911900  1
  H  H67  1  0.05149400  0.95315200  0.91124800  1
  H  H68  1  0.94879600  0.95130900  0.08911900  1
  H  H69  1  0.58278700  0.43116400  0.87307200  1
  H  H70  1  0.41728200  0.42995900  0.12711300  1
  H  H71  1  0.08278700  0.93116400  0.87307200  1
  H  H72  1  0.91728200  0.92995900  0.12711300  1
  H  H73  1  0.58478500  0.43425500  0.79329200  1
  H  H74  1  0.41495500  0.43384300  0.20651500  1
  H  H75  1  0.08478500  0.93425500  0.79329200  1
  H  H76  1  0.91495500  0.93384300  0.20651500  1
  H  H77  1  0.50951000  0.28809400  0.39742100  1
  H  H78  1  0.48929400  0.28747300  0.60078100  1
  H  H79  1  0.00951000  0.78809400  0.39742100  1
  H  H80  1  0.98929400  0.78747300  0.60078100  1
  H  H81  1  0.00942900  0.70842100  0.39830300  1
  H  H82  1  0.99009100  0.70781600  0.60023200  1
  H  H83  1  0.50942900  0.20842100  0.39830300  1
  H  H84  1  0.49009100  0.20781600  0.60023200  1
  H  H85  1  0.00608500  0.64025000  0.43423000  1
  H  H86  1  0.99392500  0.63984100  0.56445000  1
  H  H87  1  0.50608500  0.14025000  0.43423000  1
  H  H88  1  0.49392500  0.13984100  0.56445000  1
  H  H89  1  0.54950200  0.63939400  0.59741900  1
  H  H90  1  0.45172200  0.63952800  0.40398900  1
  H  H91  1  0.04950200  0.13939400  0.59741900  1
  H  H92  1  0.95172200  0.13952800  0.40398900  1
  H  H93  1  0.42646500  0.70851100  0.34941600  1
  H  H94  1  0.57451200  0.70824200  0.65224600  1
  H  H95  1  0.92646500  0.20851100  0.34941600  1
  H  H96  1  0.07451200  0.20824200  0.65224600  1
  H  H97  1  0.92811900  0.28969600  0.34943400  1
  H  H98  1  0.07255300  0.28940200  0.65254800  1
  H  H99  1  0.42811900  0.78969600  0.34943400  1
  H  H100  1  0.57255300  0.78940200  0.65254800  1
  H  H101  1  0.95558000  0.35856600  0.40407800  1
  H  H102  1  0.04486400  0.35834700  0.59818900  1
  H  H103  1  0.45558000  0.85856600  0.40407800  1
  H  H104  1  0.54486400  0.85834700  0.59818900  1
  H  H105  1  0.41927500  0.40769700  0.55979600  1
  H  H106  1  0.47348300  0.40547000  0.62851600  1
  H  H107  1  0.40962000  0.33177500  0.58101100  1
  H  H108  1  0.43014400  0.36976900  0.64293200  1
  H  H109  1  0.46426200  0.32999300  0.65005500  1
  H  H110  1  0.57626500  0.41112100  0.43554500  1
  H  H111  1  0.52285500  0.40333300  0.36595900  1
  H  H112  1  0.59290800  0.33548800  0.42416500  1
  H  H113  1  0.57068600  0.37017500  0.35867400  1
  H  H114  1  0.53908900  0.32821400  0.35424700  1
  H  H115  1  0.91927500  0.90769700  0.55979600  1
  H  H116  1  0.97348300  0.90547000  0.62851600  1
  H  H117  1  0.90962000  0.83177500  0.58101100  1
  H  H118  1  0.93014400  0.86976900  0.64293200  1
  H  H119  1  0.96426300  0.82999300  0.65005500  1
  H  H120  1  0.07626500  0.91112100  0.43554500  1
  H  H121  1  0.02285500  0.90333300  0.36595900  1
  H  H122  1  0.09290800  0.83548800  0.42416500  1
  H  H123  1  0.07068600  0.87017500  0.35867400  1
  H  H124  1  0.03908900  0.82821400  0.35424700  1
  H  H125  1  0.21312000  0.61895700  0.82757700  1
  H  H126  1  0.17087000  0.62080000  0.74525500  1
  H  H127  1  0.25818300  0.66027200  0.81952400  1
  H  H128  1  0.21115000  0.69099700  0.78539800  1
  H  H129  1  0.21609400  0.66200400  0.73746200  1
  H  H130  1  0.78797300  0.61902100  0.17372800  1
  H  H131  1  0.83019600  0.62056400  0.25606900  1
  H  H132  1  0.74309300  0.66057900  0.18194900  1
  H  H133  1  0.79030800  0.69101400  0.21633100  1
  H  H134  1  0.78515400  0.66201000  0.26403000  1
  H  H135  1  0.71312000  0.11895700  0.82757700  1
  H  H136  1  0.67087000  0.12080000  0.74525500  1
  H  H137  1  0.75818300  0.16027200  0.81952400  1
  H  H138  1  0.71115000  0.19099700  0.78539800  1
  H  H139  1  0.71609400  0.16200400  0.73746200  1
  H  H140  1  0.28797300  0.11902100  0.17372800  1
  H  H141  1  0.33019600  0.12056400  0.25606900  1
  H  H142  1  0.24309300  0.16057900  0.18194900  1
  H  H143  1  0.29030800  0.19101400  0.21633100  1
  H  H144  1  0.28515400  0.16201000  0.26403000  1
  C  C1  1  0.50048000  0.49806600  0.91327300  1
  C  C2  1  0.49991500  0.49590600  0.08694000  1
  C  C3  1  0.00048000  0.99806600  0.91327300  1
  C  C4  1  0.99991500  0.99590600  0.08694000  1
  C  C5  1  0.41853300  0.49630400  0.91844200  1
  C  C6  1  0.58180300  0.49769400  0.08174300  1
  C  C7  1  0.91853300  0.99630400  0.91844200  1
  C  C8  1  0.08180300  0.99769400  0.08174300  1
  C  C9  1  0.27441600  0.53610200  0.74579800  1
  C  C10  1  0.72603700  0.53634100  0.25476200  1
  C  C11  1  0.77441600  0.03610200  0.74579800  1
  C  C12  1  0.22603700  0.03634100  0.25476200  1
  C  C13  1  0.27366100  0.45422900  0.75286300  1
  C  C14  1  0.72647200  0.45447500  0.24725500  1
  C  C15  1  0.77366100  0.95422900  0.75286300  1
  C  C16  1  0.22647200  0.95447500  0.24725500  1
  C  C17  1  0.22632600  0.45382000  0.70618900  1
  C  C18  1  0.77381000  0.45386600  0.29403600  1
  C  C19  1  0.72632600  0.95382000  0.70618900  1
  C  C20  1  0.27381000  0.95386600  0.29403600  1
  C  C21  1  0.12683600  0.49844500  0.62512700  1
  C  C22  1  0.87349100  0.49821200  0.37543300  1
  C  C23  1  0.62683600  0.99844500  0.62512700  1
  C  C24  1  0.37349100  0.99821200  0.37543300  1
  C  C25  1  0.28986400  0.49732300  0.78894800  1
  C  C26  1  0.71046900  0.49767500  0.21141200  1
  C  C27  1  0.78986400  0.99732300  0.78894800  1
  C  C28  1  0.21046900  0.99767500  0.21141200  1
  C  C29  1  0.22731800  0.53428700  0.69547000  1
  C  C30  1  0.77312100  0.53432800  0.30511500  1
  C  C31  1  0.72731800  0.03428700  0.69547000  1
  C  C32  1  0.27312100  0.03432800  0.30511500  1
  C  C33  1  0.21047000  0.49762800  0.70868900  1
  C  C34  1  0.78985800  0.49761700  0.29178100  1
  C  C35  1  0.71047000  0.99762800  0.70868900  1
  C  C36  1  0.28985800  0.99761700  0.29178100  1
  C  C37  1  0.22619300  0.50197200  0.77229800  1
  C  C38  1  0.77421200  0.50206500  0.22822900  1
  C  C39  1  0.72619300  0.00197200  0.77229800  1
  C  C40  1  0.27421100  0.00206500  0.22822900  1
  C  C41  1  0.27347600  0.50223400  0.81997500  1
  C  C42  1  0.72693300  0.50258700  0.18049300  1
  C  C43  1  0.77347600  0.00223400  0.81997500  1
  C  C44  1  0.22693300  0.00258700  0.18049300  1
  C  C45  1  0.16455400  0.49809200  0.66254900  1
  C  C46  1  0.83577300  0.49791500  0.33797800  1
  C  C47  1  0.66455400  0.99809200  0.66254900  1
  C  C48  1  0.33577300  0.99791500  0.33797800  1
  C  C49  1  0.33577900  0.49693500  0.83515500  1
  C  C50  1  0.66455500  0.49753700  0.16514000  1
  C  C51  1  0.83577900  0.99693500  0.83515500  1
  C  C52  1  0.16455500  0.99753700  0.16514000  1
  C  C53  1  0.37349800  0.49662500  0.87314200  1
  C  C54  1  0.62683700  0.49752700  0.12710100  1
  C  C55  1  0.87349800  0.99662500  0.87314200  1
  C  C56  1  0.12683700  0.99752700  0.12710100  1
  C  C57  1  0.53216800  0.47772400  0.69023100  1
  C  C58  1  0.46739900  0.47774200  0.30922200  1
  C  C59  1  0.03216800  0.97772400  0.69023100  1
  C  C60  1  0.96739900  0.97774200  0.30922200  1
  C  C61  1  0.50094600  0.49929100  0.63639100  1
  C  C62  1  0.49857000  0.49945900  0.36297200  1
  C  C63  1  0.00094600  0.99929100  0.63639100  1
  C  C64  1  0.99857000  0.99945900  0.36297200  1
  C  C65  1  0.46958800  0.52062200  0.62801500  1
  C  C66  1  0.52993600  0.52071000  0.37127600  1
  C  C67  1  0.96958800  0.02062200  0.62801500  1
  C  C68  1  0.02993600  0.02071000  0.37127600  1
  C  C69  1  0.47000800  0.52125300  0.67436200  1
  C  C70  1  0.52966900  0.52094100  0.32507200  1
  C  C71  1  0.97000800  0.02125300  0.67436200  1
  C  C72  1  0.02966900  0.02094100  0.32507300  1
  C  C73  1  0.50046400  0.49843600  0.72753900  1
  C  C74  1  0.49932400  0.49788300  0.27208300  1
  C  C75  1  0.00046400  0.99843600  0.72753900  1
  C  C76  1  0.99932400  0.99788300  0.27208300  1
  C  C77  1  0.53117600  0.47608600  0.73511800  1
  C  C78  1  0.46853000  0.47574600  0.26449400  1
  C  C79  1  0.03117600  0.97608600  0.73511800  1
  C  C80  1  0.96853000  0.97574600  0.26449400  1
  C  C81  1  0.44005200  0.54474500  0.66754400  1
  C  C82  1  0.55971300  0.54421800  0.33188600  1
  C  C83  1  0.94005200  0.04474500  0.66754400  1
  C  C84  1  0.05971300  0.04421800  0.33188600  1
  C  C85  1  0.44088500  0.54587700  0.71434400  1
  C  C86  1  0.55908600  0.54487100  0.28527800  1
  C  C87  1  0.94088500  0.04587700  0.71434400  1
  C  C88  1  0.05908600  0.04487100  0.28527800  1
  C  C89  1  0.47094300  0.52245200  0.76708900  1
  C  C90  1  0.52914500  0.52118900  0.23273900  1
  C  C91  1  0.97094300  0.02245200  0.76708900  1
  C  C92  1  0.02914500  0.02118900  0.23273900  1
  C  C93  1  0.50031000  0.49811800  0.77330000  1
  C  C94  1  0.49968200  0.49709000  0.22653200  1
  C  C95  1  0.00031000  0.99811800  0.77330000  1
  C  C96  1  0.99968200  0.99709000  0.22653200  1
  C  C97  1  0.52961000  0.47358500  0.82530300  1
  C  C98  1  0.47048700  0.47232000  0.17473800  1
  C  C99  1  0.02960900  0.97358500  0.82530300  1
  C  C100  1  0.97048700  0.97232000  0.17473800  1
  C  C101  1  0.55969700  0.45029900  0.83224800  1
  C  C102  1  0.44029600  0.44927500  0.16777700  1
  C  C103  1  0.05969700  0.95029900  0.83224800  1
  C  C104  1  0.94029600  0.94927500  0.16777700  1
  C  C105  1  0.56084000  0.45207100  0.78744500  1
  C  C106  1  0.43896300  0.45150300  0.21236300  1
  C  C107  1  0.06084000  0.95207100  0.78744500  1
  C  C108  1  0.93896300  0.95150300  0.21236300  1
  C  C109  1  0.47173700  0.52335400  0.81379700  1
  C  C110  1  0.52854600  0.52163300  0.18621700  1
  C  C111  1  0.97173700  0.02335400  0.81379700  1
  C  C112  1  0.02854600  0.02163300  0.18621700  1
  C  C113  1  0.50036900  0.49798800  0.86489900  1
  C  C114  1  0.49999900  0.49605300  0.13530000  1
  C  C115  1  0.00036900  0.99798800  0.86489900  1
  C  C116  1  0.99999900  0.99605300  0.13530000  1
  C  C117  1  0.52885600  0.47253300  0.87047100  1
  C  C118  1  0.47142100  0.47081600  0.12976500  1
  C  C119  1  0.02885600  0.97253300  0.87047100  1
  C  C120  1  0.97142100  0.97081600  0.12976500  1
  C  C121  1  0.00011800  0.58566400  0.49929100  1
  C  C122  1  0.50011800  0.08566400  0.49929100  1
  C  C123  1  0.08181200  0.49874300  0.58114700  1
  C  C124  1  0.91851300  0.49854700  0.41943200  1
  C  C125  1  0.58181200  0.99874300  0.58114700  1
  C  C126  1  0.41851300  0.99854700  0.41943200  1
  C  C127  1  0.00017200  0.41188200  0.50126200  1
  C  C128  1  0.50017200  0.91188200  0.50126200  1
  C  C129  1  0.49882800  0.41251100  0.49872600  1
  C  C130  1  0.99882800  0.91251100  0.49872600  1
  C  C131  1  0.50100600  0.49930700  0.58808500  1
  C  C132  1  0.49851600  0.49954400  0.41130800  1
  C  C133  1  0.00100600  0.99930700  0.58808500  1
  C  C134  1  0.99851600  0.99954400  0.41130800  1
  C  C135  1  0.50069900  0.58605700  0.50064700  1
  C  C136  1  0.00069900  0.08605700  0.50064700  1
  C  C137  1  0.49422900  0.34122300  0.53381700  1
  C  C138  1  0.50388800  0.34141800  0.46391000  1
  C  C139  1  0.99422900  0.84122300  0.53381700  1
  C  C140  1  0.00388800  0.84141800  0.46391000  1
  C  C141  1  0.49894200  0.36402400  0.49878100  1
  C  C142  1  0.99894200  0.86402400  0.49878100  1
  C  C143  1  0.50378800  0.29533400  0.46354400  1
  C  C144  1  0.49478900  0.29512300  0.53445100  1
  C  C145  1  0.00378800  0.79533400  0.46354400  1
  C  C146  1  0.99478900  0.79512300  0.53445100  1
  C  C147  1  0.49939800  0.27235000  0.49905500  1
  C  C148  1  0.99939800  0.77235100  0.49905500  1
  C  C149  1  0.50709600  0.27184000  0.42706200  1
  C  C150  1  0.49178600  0.27140200  0.57113100  1
  C  C151  1  0.00709600  0.77184000  0.42706200  1
  C  C152  1  0.99178600  0.77140200  0.57113100  1
  C  C153  1  0.00682900  0.72620300  0.42700000  1
  C  C154  1  0.99248600  0.72576700  0.57140900  1
  C  C155  1  0.50682900  0.22620300  0.42700000  1
  C  C156  1  0.49248600  0.22576700  0.57140900  1
  C  C157  1  0.00328700  0.70341100  0.46315100  1
  C  C158  1  0.99620200  0.70318900  0.53532600  1
  C  C159  1  0.50328700  0.20341100  0.46315100  1
  C  C160  1  0.49620200  0.20318900  0.53532600  1
  C  C161  1  0.99963000  0.72637800  0.49917900  1
  C  C162  1  0.49963000  0.22637800  0.49917900  1
  C  C163  1  0.00323600  0.65760800  0.46287600  1
  C  C164  1  0.99664400  0.65738200  0.53576400  1
  C  C165  1  0.50323600  0.15760800  0.46287600  1
  C  C166  1  0.49664400  0.15738200  0.53576400  1
  C  C167  1  0.00002200  0.63433800  0.49934100  1
  C  C168  1  0.50002200  0.13433800  0.49934100  1
  C  C169  1  0.52820700  0.65736700  0.55491300  1
  C  C170  1  0.47296400  0.65744100  0.44655500  1
  C  C171  1  0.02820700  0.15736700  0.55491300  1
  C  C172  1  0.97296400  0.15744100  0.44655500  1
  C  C173  1  0.50062900  0.63449100  0.50069400  1
  C  C174  1  0.00062900  0.13449100  0.50069400  1
  C  C175  1  0.47361300  0.70322600  0.44652700  1
  C  C176  1  0.52738900  0.70313800  0.55511300  1
  C  C177  1  0.97361300  0.20322600  0.44652700  1
  C  C178  1  0.02738900  0.20313800  0.55511300  1
  C  C179  1  0.50045700  0.72607200  0.50086400  1
  C  C180  1  0.00045700  0.22607200  0.50086400  1
  C  C181  1  0.44746900  0.72620100  0.39219800  1
  C  C182  1  0.55344300  0.72600700  0.60953400  1
  C  C183  1  0.94746900  0.22620100  0.39219800  1
  C  C184  1  0.05344300  0.22600700  0.60953400  1
  C  C185  1  0.94841200  0.27192600  0.39220800  1
  C  C186  1  0.05232600  0.27171600  0.60970500  1
  C  C187  1  0.44841200  0.77192600  0.39220800  1
  C  C188  1  0.55232600  0.77171600  0.60970500  1
  C  C189  1  0.97475000  0.29480000  0.44660600  1
  C  C190  1  0.02590100  0.29468800  0.55539700  1
  C  C191  1  0.47475000  0.79480000  0.44660600  1
  C  C192  1  0.52590100  0.79468800  0.55539700  1
  C  C193  1  0.00036800  0.27185400  0.50095500  1
  C  C194  1  0.50036800  0.77185400  0.50095500  1
  C  C195  1  0.97545500  0.34058500  0.44669400  1
  C  C196  1  0.02503600  0.34046000  0.55549700  1
  C  C197  1  0.47545500  0.84058500  0.44669400  1
  C  C198  1  0.52503600  0.84046000  0.55549700  1
  C  C199  1  0.00020800  0.36344100  0.50114400  1
  C  C200  1  0.50020800  0.86344100  0.50114400  1
  C  C201  1  0.48937100  0.36665000  0.57051900  1
  C  C202  1  0.44643300  0.38538500  0.59106000  1
  C  C203  1  0.43696100  0.35198800  0.61805500  1
  C  C204  1  0.50848600  0.36702200  0.42704300  1
  C  C205  1  0.55113800  0.38626400  0.40619100  1
  C  C206  1  0.56435700  0.35278800  0.38437500  1
  C  C207  1  0.98937100  0.86665000  0.57051900  1
  C  C208  1  0.94643300  0.88538500  0.59106000  1
  C  C209  1  0.93696100  0.85198800  0.61805500  1
  C  C210  1  0.00848600  0.86702200  0.42704300  1
  C  C211  1  0.05113800  0.88626400  0.40619100  1
  C  C212  1  0.06435700  0.85278800  0.38437500  1
  C  C213  1  0.20893000  0.54193500  0.77831400  1
  C  C214  1  0.20515700  0.61988600  0.78356100  1
  C  C215  1  0.22389200  0.66107300  0.78134600  1
  C  C216  1  0.79169700  0.54193800  0.22247000  1
  C  C217  1  0.79590800  0.61987000  0.21772500  1
  C  C218  1  0.77738400  0.66115800  0.22016400  1
  C  C219  1  0.70893000  0.04193500  0.77831400  1
  C  C220  1  0.70515700  0.11988600  0.78356100  1
  C  C221  1  0.72389200  0.16107300  0.78134600  1
  C  C222  1  0.29169700  0.04193800  0.22247000  1
  C  C223  1  0.29590800  0.11987000  0.21772500  1
  C  C224  1  0.27738400  0.16115800  0.22016400  1
  O  O1  1  0.50088700  0.53649000  0.93409800  1
  O  O2  1  0.50153000  0.53423000  0.06796800  1
  O  O3  1  0.00088700  0.03649000  0.93409800  1
  O  O4  1  0.00153000  0.03423000  0.06796800  1
  O  O5  1  0.50000200  0.45968800  0.93333700  1
  O  O6  1  0.49828200  0.45751300  0.06491600  1
  O  O7  1  0.00000200  0.95968800  0.93333700  1
  O  O8  1  0.99828200  0.95751300  0.06491600  1
  O  O9  1  0.43831300  0.53452400  0.93790100  1
  O  O10  1  0.56245500  0.53610500  0.06082300  1
  O  O11  1  0.93831300  0.03452400  0.93790100  1
  O  O12  1  0.06245500  0.03610500  0.06082300  1
  O  O13  1  0.43785700  0.45784100  0.93816100  1
  O  O14  1  0.56205800  0.45946200  0.06344000  1
  O  O15  1  0.93785700  0.95784100  0.93816100  1
  O  O16  1  0.06205800  0.95946200  0.06344000  1
  O  O17  1  0.99866500  0.56499100  0.45924900  1
  O  O18  1  0.00155500  0.56474300  0.53920500  1
  O  O19  1  0.49866500  0.06499100  0.45924900  1
  O  O20  1  0.50155500  0.06474300  0.53920500  1
  O  O21  1  0.06150200  0.49947900  0.52278200  1
  O  O22  1  0.93882000  0.49731800  0.47778600  1
  O  O23  1  0.56150200  0.99947900  0.52278200  1
  O  O24  1  0.43882000  0.99731800  0.47778600  1
  O  O25  1  0.06298700  0.49801300  0.60140800  1
  O  O26  1  0.93733400  0.49997300  0.39918200  1
  O  O27  1  0.56298700  0.99801300  0.60140800  1
  O  O28  1  0.43733400  0.99997300  0.39918200  1
  O  O29  1  0.99813700  0.43264800  0.46070700  1
  O  O30  1  0.00227000  0.43240200  0.54198500  1
  O  O31  1  0.49813700  0.93264800  0.46070700  1
  O  O32  1  0.50227000  0.93240200  0.54198500  1
  O  O33  1  0.46281100  0.43305300  0.46262100  1
  O  O34  1  0.53479000  0.43319100  0.53477700  1
  O  O35  1  0.96281100  0.93305300  0.46262100  1
  O  O36  1  0.03479000  0.93319100  0.53477700  1
  O  O37  1  0.46505800  0.49920600  0.53169500  1
  O  O38  1  0.53443000  0.50110100  0.46767900  1
  O  O39  1  0.96505800  0.99920600  0.53169500  1
  O  O40  1  0.03443000  0.00110100  0.46767900  1
  O  O41  1  0.53701500  0.49934900  0.60345000  1
  O  O42  1  0.46255600  0.49771100  0.39600500  1
  O  O43  1  0.03701500  0.99934900  0.60345000  1
  O  O44  1  0.96255600  0.99771100  0.39600500  1
  O  O45  1  0.46477700  0.56537600  0.46304000  1
  O  O46  1  0.53666000  0.56550700  0.53834900  1
  O  O47  1  0.96477700  0.06537600  0.46304000  1
  O  O48  1  0.03666000  0.06550700  0.53834900  1
  O  O49  1  0.51741600  0.39096700  0.61083100  1
  O  O50  1  0.45367200  0.36324500  0.55875400  1
  O  O51  1  0.48003100  0.39070800  0.38616700  1
  O  O52  1  0.54450200  0.36472900  0.43955100  1
  O  O53  1  0.01741600  0.89096700  0.61083100  1
  O  O54  1  0.95367200  0.86324500  0.55875400  1
  O  O55  1  0.98003100  0.89070800  0.38616700  1
  O  O56  1  0.04450200  0.86472900  0.43955100  1
  O  O57  1  0.18455400  0.53694100  0.78493800  1
  O  O58  1  0.22098300  0.58311600  0.77836000  1
  O  O59  1  0.81606900  0.53681700  0.21586100  1
  O  O60  1  0.77985800  0.58318400  0.22265600  1
  O  O61  1  0.68455400  0.03694100  0.78493800  1
  O  O62  1  0.72098300  0.08311600  0.77836000  1
  O  O63  1  0.31606900  0.03681700  0.21586100  1
  O  O64  1  0.27985800  0.08318400  0.22265600  1
