# generated using pymatgen
data_ZnH22C30(NO2)3
_symmetry_space_group_name_H-M   'P 1'
_cell_length_a   14.83756600
_cell_length_b   16.01159700
_cell_length_c   19.33754300
_cell_angle_alpha   89.98195400
_cell_angle_beta   103.51504700
_cell_angle_gamma   86.04019000
_symmetry_Int_Tables_number   1
_chemical_formula_structural   ZnH22C30(NO2)3
_chemical_formula_sum   'Zn2 H44 C60 N6 O12'
_cell_volume   4455.55921949
_cell_formula_units_Z   2
loop_
 _symmetry_equiv_pos_site_id
 _symmetry_equiv_pos_as_xyz
  1  'x, y, z'
loop_
 _atom_site_type_symbol
 _atom_site_label
 _atom_site_symmetry_multiplicity
 _atom_site_fract_x
 _atom_site_fract_y
 _atom_site_fract_z
 _atom_site_occupancy
  Zn  Zn1  1  0.39941400  0.47779000  0.47922800  1
  Zn  Zn2  1  0.60111900  0.52122800  0.51529800  1
  H  H1  1  0.35822900  0.46941000  0.69231200  1
  H  H2  1  0.64231500  0.52958200  0.30221600  1
  H  H3  1  0.35810600  0.46929100  0.81713500  1
  H  H4  1  0.64244300  0.52969900  0.17739200  1
  H  H5  1  0.64237800  0.53055600  0.86816000  1
  H  H6  1  0.35815800  0.46847000  0.12636200  1
  H  H7  1  0.64228700  0.53062900  0.74327300  1
  H  H8  1  0.35824700  0.46839900  0.25125000  1
  H  H9  1  0.25470900  0.01914400  0.46680500  1
  H  H10  1  0.74679200  0.97982700  0.54518200  1
  H  H11  1  0.44915900  0.21307000  0.48641200  1
  H  H12  1  0.55141400  0.78562900  0.50256600  1
  H  H13  1  0.72998300  0.27162500  0.54128200  1
  H  H14  1  0.27072300  0.72759900  0.46141100  1
  H  H15  1  0.35784800  0.12375400  0.48646600  1
  H  H16  1  0.64409000  0.87508800  0.52573500  1
  H  H17  1  0.02556500  0.66374800  0.62174700  1
  H  H18  1  0.97482900  0.33564300  0.37240000  1
  H  H19  1  0.23343500  0.53657800  0.52474800  1
  H  H20  1  0.76712900  0.46232000  0.46987400  1
  H  H21  1  0.29129500  0.35669300  0.38371400  1
  H  H22  1  0.70918900  0.64249300  0.61064900  1
  H  H23  1  0.13631700  0.59938500  0.56818600  1
  H  H24  1  0.86407400  0.39999400  0.42596100  1
  H  H25  1  0.90853900  0.58882300  0.71601100  1
  H  H26  1  0.81990200  0.66351100  0.73436700  1
  H  H27  1  0.93912700  0.76631500  0.77234700  1
  H  H28  1  0.96812700  0.66994700  0.82427900  1
  H  H29  1  0.02732200  0.69076600  0.75483600  1
  H  H30  1  0.18065200  0.33597600  0.25991100  1
  H  H31  1  0.09212600  0.41072100  0.27835400  1
  H  H32  1  0.97314100  0.30901500  0.23927700  1
  H  H33  1  0.03243600  0.32992800  0.16991600  1
  H  H34  1  0.06122400  0.23341700  0.22166400  1
  H  H35  1  0.14371700  0.80939200  0.36589100  1
  H  H36  1  0.22383300  0.88421900  0.35105900  1
  H  H37  1  0.11118900  0.00101300  0.36379900  1
  H  H38  1  0.06044100  0.93105700  0.29420500  1
  H  H39  1  0.03126500  0.92689500  0.37993700  1
  H  H40  1  0.77031300  0.11990900  0.65579400  1
  H  H41  1  0.85208000  0.19361400  0.64190500  1
  H  H42  1  0.96689600  0.07495700  0.63565200  1
  H  H43  1  0.93178900  0.07497500  0.71926900  1
  H  H44  1  0.88525600  0.00202500  0.65086100  1
  C  C1  1  0.44601800  0.65922800  0.48736000  1
  C  C2  1  0.55452400  0.33979300  0.50729400  1
  C  C3  1  0.50031900  0.49980300  0.63270900  1
  C  C4  1  0.50021700  0.49921000  0.36181500  1
  C  C5  1  0.42110700  0.48292300  0.73044900  1
  C  C6  1  0.57943600  0.51607600  0.26407700  1
  C  C7  1  0.42107700  0.48287500  0.80174000  1
  C  C8  1  0.57946900  0.51612300  0.19278600  1
  C  C9  1  0.50025500  0.49987300  0.85211300  1
  C  C10  1  0.50028800  0.49913500  0.14241100  1
  C  C11  1  0.57942300  0.51699900  0.83015800  1
  C  C12  1  0.42111600  0.48201900  0.16436500  1
  C  C13  1  0.57941900  0.51703900  0.75885300  1
  C  C14  1  0.42111700  0.48198100  0.23566900  1
  C  C15  1  0.50028600  0.49994000  0.70855600  1
  C  C16  1  0.50025200  0.49907000  0.28596800  1
  C  C17  1  0.50028400  0.49930600  0.06648000  1
  C  C18  1  0.50026100  0.49970200  0.92804400  1
  C  C19  1  0.41555900  0.74878400  0.48297800  1
  C  C20  1  0.58507300  0.25026500  0.51409800  1
  C  C21  1  0.29364900  0.85690200  0.46532200  1
  C  C22  1  0.70726200  0.14232600  0.53966900  1
  C  C23  1  0.32233600  0.77327700  0.46920700  1
  C  C24  1  0.67839900  0.22589500  0.53252600  1
  C  C25  1  0.48011400  0.80868100  0.49333000  1
  C  C26  1  0.52060400  0.19027300  0.50261300  1
  C  C27  1  0.45273900  0.89417700  0.49158400  1
  C  C28  1  0.54829000  0.10481200  0.50992400  1
  C  C29  1  0.35832500  0.91696700  0.47748200  1
  C  C30  1  0.64276600  0.08211900  0.52728200  1
  C  C31  1  0.51663600  0.95716400  0.50358700  1
  C  C32  1  0.48455900  0.04175700  0.49973700  1
  C  C33  1  0.38923100  0.06128700  0.48706200  1
  C  C34  1  0.61219100  0.93764400  0.52019000  1
  C  C35  1  0.32781100  0.00003100  0.47614900  1
  C  C36  1  0.67352200  0.99897200  0.53222600  1
  C  C37  1  0.85042400  0.63107400  0.60294100  1
  C  C38  1  0.15003600  0.36816900  0.39136000  1
  C  C39  1  0.75978500  0.61022400  0.58612100  1
  C  C40  1  0.24070700  0.38892800  0.40826900  1
  C  C41  1  0.79479100  0.50905500  0.50703600  1
  C  C42  1  0.20573600  0.48996700  0.48747000  1
  C  C43  1  0.88781700  0.52838200  0.52154200  1
  C  C44  1  0.11266600  0.47076400  0.47284000  1
  C  C45  1  0.91425600  0.59102200  0.56985700  1
  C  C46  1  0.08620300  0.40820400  0.42445300  1
  C  C47  1  0.95444000  0.48771400  0.48913600  1
  C  C48  1  0.04602400  0.51147700  0.50520100  1
  C  C49  1  0.06870400  0.57576700  0.55318800  1
  C  C50  1  0.93172900  0.42351100  0.44106400  1
  C  C51  1  0.00400800  0.61428600  0.58491800  1
  C  C52  1  0.99641600  0.38502300  0.40930800  1
  C  C53  1  0.88653300  0.65627800  0.71758800  1
  C  C54  1  0.96020900  0.69866100  0.77080900  1
  C  C55  1  0.11400500  0.34325200  0.27666300  1
  C  C56  1  0.04026600  0.30108300  0.22332600  1
  C  C57  1  0.16781800  0.87288700  0.37842400  1
  C  C58  1  0.08731200  0.93727700  0.35236600  1
  C  C59  1  0.82869100  0.12968700  0.63052600  1
  C  C60  1  0.90847600  0.06615300  0.66110300  1
  N  N1  1  0.57739400  0.51621500  0.97694100  1
  N  N2  1  0.42315000  0.48279400  0.01758300  1
  N  N3  1  0.57740300  0.51602300  0.04530000  1
  N  N4  1  0.42314200  0.48298600  0.94922400  1
  N  N5  1  0.73378300  0.54998100  0.53901500  1
  N  N6  1  0.26674800  0.44904300  0.45549400  1
  O  O1  1  0.38249000  0.60449400  0.47599400  1
  O  O2  1  0.61804400  0.39452900  0.51864000  1
  O  O3  1  0.53541500  0.63733200  0.50341100  1
  O  O4  1  0.46511600  0.36167700  0.49118400  1
  O  O5  1  0.42382900  0.48329700  0.58661800  1
  O  O6  1  0.57669600  0.51569300  0.40791000  1
  O  O7  1  0.57683100  0.51614400  0.61399500  1
  O  O8  1  0.42371500  0.48289200  0.38053600  1
  O  O9  1  0.87565200  0.69344200  0.65048500  1
  O  O10  1  0.12476400  0.30593100  0.34369300  1
  O  O11  1  0.20050400  0.87982100  0.45191800  1
  O  O12  1  0.80053500  0.11949800  0.55703300  1
