# generated using pymatgen
data_ZnH23C37NO6
_symmetry_space_group_name_H-M   'P 1'
_cell_length_a   16.04144900
_cell_length_b   15.08766300
_cell_length_c   13.89033400
_cell_angle_alpha   90.00537000
_cell_angle_beta   90.00229300
_cell_angle_gamma   89.99453300
_symmetry_Int_Tables_number   1
_chemical_formula_structural   ZnH23C37NO6
_chemical_formula_sum   'Zn2 H46 C74 N2 O12'
_cell_volume   3361.84939878
_cell_formula_units_Z   2
loop_
 _symmetry_equiv_pos_site_id
 _symmetry_equiv_pos_as_xyz
  1  'x, y, z'
loop_
 _atom_site_type_symbol
 _atom_site_label
 _atom_site_symmetry_multiplicity
 _atom_site_fract_x
 _atom_site_fract_y
 _atom_site_fract_z
 _atom_site_occupancy
  Zn  Zn1  1  0.50238500  0.49908400  0.60294600  1
  Zn  Zn2  1  0.50233200  0.49915400  0.38383700  1
  H  H1  1  0.05606900  0.37816000  0.39369200  1
  H  H2  1  0.94864300  0.61920100  0.59214100  1
  H  H3  1  0.94908400  0.51711500  0.32967800  1
  H  H4  1  0.05559100  0.48012000  0.65616200  1
  H  H5  1  0.50374700  0.78138700  0.64742400  1
  H  H6  1  0.50013600  0.21684300  0.33936500  1
  H  H7  1  0.49985200  0.78129900  0.33951400  1
  H  H8  1  0.50396100  0.21692700  0.64727300  1
  H  H9  1  0.49842200  0.91802900  0.25389600  1
  H  H10  1  0.50476700  0.08019800  0.73289900  1
  H  H11  1  0.49859800  0.08002200  0.25383300  1
  H  H12  1  0.50467100  0.91820500  0.73295900  1
  H  H13  1  0.40627300  0.59240500  0.75331400  1
  H  H14  1  0.59920900  0.40662700  0.23339700  1
  H  H15  1  0.59944900  0.40574100  0.75511700  1
  H  H16  1  0.40531200  0.59254600  0.23172900  1
  H  H17  1  0.65580300  0.35361800  0.90181300  1
  H  H18  1  0.35020400  0.64602100  0.08526700  1
  H  H19  1  0.77173800  0.33227400  0.00895000  1
  H  H20  1  0.70014300  0.23895000  0.00901200  1
  H  H21  1  0.81855700  0.37424300  0.19003800  1
  H  H22  1  0.90062400  0.30709300  0.32022000  1
  H  H23  1  0.90800700  0.14489200  0.33573700  1
  H  H24  1  0.83293100  0.04984800  0.22101400  1
  H  H25  1  0.75061500  0.11616500  0.09112100  1
  H  H26  1  0.31337700  0.76379000  0.98020300  1
  H  H27  1  0.23669200  0.67514800  0.97802000  1
  H  H28  1  0.29759400  0.70842000  0.73565400  1
  H  H29  1  0.21632600  0.79080800  0.61840100  1
  H  H30  1  0.10570500  0.89256300  0.67095200  1
  H  H31  1  0.07678500  0.91175800  0.84352500  1
  H  H32  1  0.15821100  0.82925100  0.96333600  1
  H  H33  1  0.84621900  0.31128000  0.50811800  1
  H  H34  1  0.84639000  0.35810700  0.62856300  1
  H  H35  1  0.94609500  0.26467000  0.74722600  1
  H  H36  1  0.95045300  0.11574200  0.81839800  1
  H  H37  1  0.88792900  0.98965100  0.73254000  1
  H  H38  1  0.82082000  0.01267400  0.57534100  1
  H  H39  1  0.81621800  0.16091000  0.50369600  1
  H  H40  1  0.15918800  0.63908600  0.35896600  1
  H  H41  1  0.15820800  0.68552700  0.47961800  1
  H  H42  1  0.99418800  0.79248500  0.35659000  1
  H  H43  1  0.00303700  0.94086000  0.28933700  1
  H  H44  1  0.13927100  0.01055400  0.26088100  1
  H  H45  1  0.26806500  0.93006000  0.30066800  1
  H  H46  1  0.26063400  0.78014900  0.36870700  1
  C  C1  1  0.50226000  0.32555100  0.49331400  1
  C  C2  1  0.50232800  0.67268700  0.49346900  1
  C  C3  1  0.33945300  0.49918900  0.49339500  1
  C  C4  1  0.66527500  0.49895300  0.49336400  1
  C  C5  1  0.97890800  0.42376900  0.52719600  1
  C  C6  1  0.02586200  0.57361000  0.45864500  1
  C  C7  1  0.03175800  0.43363700  0.43789700  1
  C  C8  1  0.97300500  0.56374400  0.54794700  1
  C  C9  1  0.25003900  0.49967700  0.49324800  1
  C  C10  1  0.75469900  0.49805100  0.49336900  1
  C  C11  1  0.03147600  0.48963500  0.58206600  1
  C  C12  1  0.97325800  0.50774300  0.40377200  1
  C  C13  1  0.08366000  0.50142200  0.49190100  1
  C  C14  1  0.92108600  0.49592900  0.49398300  1
  C  C15  1  0.17493800  0.50042700  0.49270700  1
  C  C16  1  0.82980300  0.49700300  0.49358000  1
  C  C17  1  0.50285900  0.81618000  0.57945400  1
  C  C18  1  0.50092500  0.18205100  0.40733400  1
  C  C19  1  0.50199000  0.76993500  0.49347200  1
  C  C20  1  0.50208700  0.22829900  0.49331200  1
  C  C21  1  0.50071500  0.81612600  0.40746700  1
  C  C22  1  0.50301900  0.18210300  0.57932000  1
  C  C23  1  0.50054900  0.90759500  0.40754000  1
  C  C24  1  0.50286900  0.09063300  0.57924900  1
  C  C25  1  0.50166500  0.95337200  0.49341200  1
  C  C26  1  0.50172600  0.04485700  0.49337700  1
  C  C27  1  0.50275900  0.90765300  0.57931800  1
  C  C28  1  0.50070000  0.09057600  0.40747200  1
  C  C29  1  0.49935500  0.95338700  0.32157000  1
  C  C30  1  0.50388300  0.04484100  0.66522300  1
  C  C31  1  0.49945500  0.04471700  0.32153500  1
  C  C32  1  0.50382600  0.95351100  0.66525800  1
  C  C33  1  0.44848300  0.55155200  0.79444000  1
  C  C34  1  0.55675300  0.44734100  0.19231500  1
  C  C35  1  0.55657700  0.44713800  0.79489000  1
  C  C36  1  0.44823000  0.55122900  0.19192200  1
  C  C37  1  0.55743000  0.44678500  0.89417700  1
  C  C38  1  0.44764700  0.55196100  0.09262600  1
  C  C39  1  0.50241000  0.49959300  0.94390200  1
  C  C40  1  0.50267000  0.49924600  0.04286600  1
  C  C41  1  0.44735900  0.55270500  0.89407200  1
  C  C42  1  0.55797400  0.44648200  0.09268400  1
  C  C43  1  0.61337800  0.39395700  0.94327400  1
  C  C44  1  0.39231100  0.60550600  0.04359200  1
  C  C45  1  0.61423500  0.39372200  0.04323100  1
  C  C46  1  0.39188300  0.60647600  0.94359400  1
  C  C47  1  0.72943400  0.29125700  0.05374100  1
  C  C48  1  0.77921800  0.24974300  0.13221900  1
  C  C49  1  0.82148000  0.30291900  0.19668800  1
  C  C50  1  0.86764000  0.26529300  0.26977200  1
  C  C51  1  0.87176600  0.17439700  0.27848300  1
  C  C52  1  0.82966600  0.12113000  0.21414800  1
  C  C53  1  0.78338000  0.15864700  0.14106400  1
  C  C54  1  0.28122900  0.71434500  0.93419600  1
  C  C55  1  0.23322600  0.76302900  0.85863100  1
  C  C56  1  0.24941100  0.75242000  0.76129800  1
  C  C57  1  0.20353100  0.79904100  0.69428100  1
  C  C58  1  0.14153900  0.85616100  0.72368200  1
  C  C59  1  0.12535700  0.86690200  0.82035300  1
  C  C60  1  0.17112700  0.82051100  0.88754700  1
  C  C61  1  0.87919000  0.31298200  0.57820800  1
  C  C62  1  0.88110400  0.22249300  0.62091600  1
  C  C63  1  0.91858000  0.20941400  0.70920600  1
  C  C64  1  0.92101500  0.12584800  0.74926100  1
  C  C65  1  0.88595500  0.05517600  0.70115500  1
  C  C66  1  0.84834900  0.06810200  0.61302800  1
  C  C67  1  0.84584800  0.15163900  0.57285000  1
  C  C68  1  0.12607000  0.68427700  0.40897000  1
  C  C69  1  0.12755700  0.77563100  0.36751900  1
  C  C70  1  0.05507100  0.82115500  0.34506500  1
  C  C71  1  0.05960800  0.90539800  0.30682900  1
  C  C72  1  0.13597400  0.94453100  0.29084700  1
  C  C73  1  0.20810100  0.89943600  0.31312400  1
  C  C74  1  0.20383600  0.81525400  0.35133000  1
  N  N1  1  0.50248700  0.49908700  0.74693800  1
  N  N2  1  0.50226600  0.49919700  0.23985000  1
  O  O1  1  0.50235500  0.36704500  0.57638800  1
  O  O2  1  0.50230100  0.63118800  0.41041500  1
  O  O3  1  0.50220300  0.36709400  0.41026800  1
  O  O4  1  0.50245800  0.63114000  0.57649600  1
  O  O5  1  0.37816800  0.49911900  0.57655400  1
  O  O6  1  0.62654000  0.49907800  0.41024700  1
  O  O7  1  0.37813600  0.49921300  0.41025300  1
  O  O8  1  0.62658400  0.49898000  0.57650500  1
  O  O9  1  0.66879200  0.34382400  0.09385200  1
  O  O10  1  0.33891800  0.65860000  0.89322200  1
  O  O11  1  0.95934700  0.34194400  0.56463300  1
  O  O12  1  0.04572300  0.65541400  0.42128400  1
