# generated using pymatgen
data_Zn6H48C77O24
_symmetry_space_group_name_H-M   'P 1'
_cell_length_a   18.68821100
_cell_length_b   18.93886100
_cell_length_c   18.93693000
_cell_angle_alpha   109.65192900
_cell_angle_beta   109.55012800
_cell_angle_gamma   108.92479200
_symmetry_Int_Tables_number   1
_chemical_formula_structural   Zn6H48C77O24
_chemical_formula_sum   'Zn6 H48 C77 O24'
_cell_volume   5177.51874286
_cell_formula_units_Z   1
loop_
 _symmetry_equiv_pos_site_id
 _symmetry_equiv_pos_as_xyz
  1  'x, y, z'
loop_
 _atom_site_type_symbol
 _atom_site_label
 _atom_site_symmetry_multiplicity
 _atom_site_fract_x
 _atom_site_fract_y
 _atom_site_fract_z
 _atom_site_occupancy
  Zn  Zn1  1  0.50177500  0.42949400  0.42330700  1
  Zn  Zn2  1  0.50488000  0.56687800  0.56624900  1
  Zn  Zn3  1  0.93315100  0.42793200  0.99191600  1
  Zn  Zn4  1  0.06642700  0.56837000  0.98914700  1
  Zn  Zn5  1  0.07662300  0.99641100  0.55289400  1
  Zn  Zn6  1  0.92533200  0.99907500  0.43105300  1
  H  H1  1  0.72506500  0.41727200  0.59664100  1
  H  H2  1  0.63149000  0.34695900  0.59565100  1
  H  H3  1  0.71262000  0.34821600  0.71573100  1
  H  H4  1  0.78390800  0.57377400  0.67065100  1
  H  H5  1  0.88537600  0.55348200  0.75257700  1
  H  H6  1  0.64519800  0.53005500  0.77231700  1
  H  H7  1  0.60428900  0.41530600  0.71801800  1
  H  H8  1  0.71482300  0.44340300  0.83928700  1
  H  H9  1  0.77000800  0.55724800  0.87713400  1
  H  H10  1  0.76597000  0.62160900  0.75867000  1
  H  H11  1  0.88134700  0.62047800  0.84304800  1
  H  H12  1  0.37419800  0.35596600  0.61393000  1
  H  H13  1  0.25258800  0.31012300  0.32792800  1
  H  H14  1  0.12056400  0.20101200  0.19356800  1
  H  H15  1  0.01288200  0.07885400  0.18653200  1
  H  H16  1  0.03632900  0.06757200  0.31375800  1
  H  H17  1  0.26247300  0.24281700  0.61109600  1
  H  H18  1  0.24833600  0.37908400  0.23825700  1
  H  H19  1  0.46604600  0.67520000  0.42887300  1
  H  H20  1  0.47242100  0.80885000  0.44447600  1
  H  H21  1  0.34778800  0.80956900  0.34655600  1
  H  H22  1  0.21804900  0.67658900  0.23130400  1
  H  H23  1  0.13294700  0.37934500  0.13071100  1
  H  H24  1  0.63198300  0.63546200  0.37304500  1
  H  H25  1  0.75355200  0.69425100  0.66422300  1
  H  H26  1  0.88334400  0.80861800  0.79784800  1
  H  H27  1  0.98778700  0.93009000  0.80118600  1
  H  H28  1  0.96320800  0.93532100  0.67075700  1
  H  H29  1  0.74143300  0.74852200  0.37334200  1
  H  H30  1  0.98880600  0.35797000  0.72757800  1
  H  H31  1  0.07720400  0.32370300  0.97387700  1
  H  H32  1  0.10832500  0.22023800  0.00431900  1
  H  H33  1  0.09626800  0.09761700  0.89151900  1
  H  H34  1  0.05534800  0.07979500  0.75035700  1
  H  H35  1  0.98673900  0.24364200  0.61791700  1
  H  H36  1  0.00941300  0.63575200  0.25229700  1
  H  H37  1  0.92574000  0.67647300  0.00952100  1
  H  H38  1  0.89971300  0.78374100  0.98292900  1
  H  H39  1  0.91520500  0.90702600  0.09823600  1
  H  H40  1  0.95406400  0.92143600  0.23812800  1
  H  H41  1  0.01225300  0.74975300  0.36343400  1
  H  H42  1  0.85322800  0.35820000  0.73232900  1
  H  H43  1  0.85956900  0.41869700  0.67698100  1
  H  H44  1  0.80766400  0.34110600  0.53016900  1
  H  H45  1  0.72337000  0.20427700  0.39389800  1
  H  H46  1  0.63050200  0.07150700  0.38484600  1
  H  H47  1  0.62292400  0.07581200  0.51326500  1
  H  H48  1  0.70752000  0.21224100  0.65028900  1
  C  C1  1  0.37392900  0.37848900  0.48443800  1
  C  C2  1  0.61565400  0.48645300  0.61151500  1
  C  C3  1  0.63265300  0.61794600  0.50501500  1
  C  C4  1  0.39183500  0.51067500  0.37807900  1
  C  C5  1  0.69565800  0.40690900  0.63681100  1
  C  C6  1  0.75456300  0.39818700  0.70773300  1
  C  C7  1  0.76988700  0.56533700  0.72060400  1
  C  C8  1  0.66135700  0.47917900  0.74659000  1
  C  C9  1  0.68441700  0.48376900  0.67794300  1
  C  C10  1  0.80413100  0.48347000  0.79277600  1
  C  C11  1  0.84253700  0.55956600  0.78013900  1
  C  C12  1  0.73869500  0.49216400  0.82081100  1
  C  C13  1  0.20764400  0.25740900  0.32801400  1
  C  C14  1  0.13203900  0.19602800  0.25111900  1
  C  C15  1  0.07166900  0.12800600  0.24731500  1
  C  C16  1  0.08535200  0.12267500  0.32091200  1
  C  C17  1  0.16000800  0.18556900  0.39996600  1
  C  C18  1  0.22360100  0.25168300  0.40248100  1
  C  C19  1  0.30163100  0.31226900  0.47960400  1
  C  C20  1  0.31374300  0.30897100  0.55390100  1
  C  C21  1  0.25091700  0.24427300  0.55186600  1
  C  C22  1  0.17383300  0.18224900  0.47585200  1
  C  C23  1  0.40911400  0.67195500  0.38477100  1
  C  C24  1  0.41407400  0.74872400  0.39349500  1
  C  C25  1  0.34459500  0.74911200  0.33832900  1
  C  C26  1  0.27133800  0.67265300  0.27183400  1
  C  C27  1  0.26655000  0.59434200  0.25985000  1
  C  C28  1  0.33420200  0.59410500  0.32006300  1
  C  C29  1  0.32697000  0.51606500  0.31312100  1
  C  C30  1  0.25461100  0.43989400  0.24443100  1
  C  C31  1  0.18870800  0.44008000  0.18413700  1
  C  C32  1  0.19419100  0.51641500  0.19023900  1
  C  C33  1  0.79709400  0.74628600  0.66226600  1
  C  C34  1  0.87149400  0.81081300  0.73890200  1
  C  C35  1  0.93007600  0.87845500  0.74066400  1
  C  C36  1  0.91588900  0.88028700  0.66537800  1
  C  C37  1  0.84265800  0.81414700  0.58670000  1
  C  C38  1  0.78063600  0.74828800  0.58593000  1
  C  C39  1  0.70384800  0.68440900  0.50874700  1
  C  C40  1  0.69155000  0.68477300  0.43308000  1
  C  C41  1  0.75293900  0.74935600  0.43355200  1
  C  C42  1  0.82878400  0.81414400  0.50940500  1
  C  C43  1  0.01549600  0.38393400  0.88149900  1
  C  C44  1  0.87569600  0.48668000  0.86237700  1
  C  C45  1  0.98413600  0.61237000  0.09957000  1
  C  C46  1  0.12387100  0.51108000  0.11998600  1
  C  C47  1  0.01337400  0.11806300  0.62318700  1
  C  C48  1  0.11127800  0.11468300  0.48007200  1
  C  C49  1  0.98864700  0.87755200  0.36076300  1
  C  C50  1  0.89075200  0.88089000  0.50392500  1
  C  C51  1  0.07008700  0.27043700  0.92193600  1
  C  C52  1  0.08897100  0.21234900  0.94039900  1
  C  C53  1  0.08257700  0.14404900  0.87743200  1
  C  C54  1  0.05968300  0.13492200  0.79661000  1
  C  C55  1  0.04275900  0.19436800  0.77713500  1
  C  C56  1  0.04487400  0.26104200  0.83999900  1
  C  C57  1  0.02335500  0.31869300  0.82108900  1
  C  C58  1  0.00488700  0.31280400  0.74213200  1
  C  C59  1  0.00279600  0.24738700  0.67991500  1
  C  C60  1  0.02098800  0.18744000  0.69578900  1
  C  C61  1  0.93399600  0.72975000  0.06247600  1
  C  C62  1  0.91801700  0.79005800  0.04617500  1
  C  C63  1  0.92626500  0.85870300  0.11051700  1
  C  C64  1  0.94775100  0.86581200  0.19044700  1
  C  C65  1  0.96134100  0.80397800  0.20757100  1
  C  C66  1  0.95792800  0.73719100  0.14359500  1
  C  C67  1  0.97706300  0.67768300  0.16073800  1
  C  C68  1  0.99457800  0.68204900  0.23900300  1
  C  C69  1  0.99733400  0.74729500  0.30208800  1
  C  C70  1  0.98127500  0.80882100  0.28786300  1
  C  C71  1  0.81428800  0.36920100  0.68277800  1
  C  C72  1  0.76195300  0.28615000  0.59907000  1
  C  C73  1  0.76705500  0.28323800  0.52707900  1
  C  C74  1  0.71962700  0.20626200  0.45021400  1
  C  C75  1  0.66756800  0.13183700  0.44511600  1
  C  C76  1  0.66322900  0.13429100  0.51705700  1
  C  C77  1  0.71053500  0.21119500  0.59396700  1
  O  O1  1  0.40236500  0.35436200  0.43098400  1
  O  O2  1  0.40829500  0.45898300  0.54327500  1
  O  O3  1  0.58579400  0.43580200  0.52919400  1
  O  O4  1  0.59191700  0.54355400  0.63866100  1
  O  O5  1  0.59851000  0.53736000  0.44638600  1
  O  O6  1  0.60398200  0.64205800  0.55826200  1
  O  O7  1  0.41487000  0.45292800  0.35078900  1
  O  O8  1  0.42057300  0.56020500  0.46034500  1
  O  O9  1  0.96261500  0.35861300  0.91001800  1
  O  O10  1  0.06056100  0.46454100  0.90344400  1
  O  O11  1  0.85511800  0.43729600  0.89521500  1
  O  O12  1  0.95650300  0.54144300  0.88998800  1
  O  O13  1  0.93885000  0.53171100  0.07749900  1
  O  O14  1  0.03718700  0.63779300  0.07121600  1
  O  O15  1  0.04314100  0.45493500  0.09116000  1
  O  O16  1  0.14443000  0.55876700  0.08557600  1
  O  O17  1  0.06985000  0.09039400  0.63730100  1
  O  O18  1  0.95142200  0.08924100  0.54526700  1
  O  O19  1  0.14302200  0.08487500  0.52867500  1
  O  O20  1  0.02767100  0.08957500  0.43940300  1
  O  O21  1  0.05045200  0.90611600  0.43869200  1
  O  O22  1  0.93219500  0.90522600  0.34660900  1
  O  O23  1  0.97433400  0.90604100  0.54469700  1
  O  O24  1  0.85890600  0.91049300  0.45509700  1
