# generated using pymatgen
data_FeH14C30N2O11
_symmetry_space_group_name_H-M   'P 1'
_cell_length_a   9.39810900
_cell_length_b   19.96922700
_cell_length_c   17.34777100
_cell_angle_alpha   110.40617700
_cell_angle_beta   89.05710300
_cell_angle_gamma   84.25676100
_symmetry_Int_Tables_number   1
_chemical_formula_structural   FeH14C30N2O11
_chemical_formula_sum   'Fe2 H28 C60 N4 O22'
_cell_volume   3031.47090252
_cell_formula_units_Z   2
loop_
 _symmetry_equiv_pos_site_id
 _symmetry_equiv_pos_as_xyz
  1  'x, y, z'
loop_
 _atom_site_type_symbol
 _atom_site_label
 _atom_site_symmetry_multiplicity
 _atom_site_fract_x
 _atom_site_fract_y
 _atom_site_fract_z
 _atom_site_occupancy
  Fe  Fe1  1  0.55481600  0.00117300  0.33200900  1
  Fe  Fe2  1  0.59367000  0.01955300  0.64979800  1
  H  H1  1  0.33504600  0.98959100  0.85641200  1
  H  H2  1  0.88227100  0.98610700  0.88701600  1
  H  H3  1  0.82219400  0.98537900  0.10583300  1
  H  H4  1  0.27254000  0.99517700  0.07795500  1
  H  H5  1  0.05595700  0.00234900  0.66900600  1
  H  H6  1  0.09727400  0.98538400  0.29931400  1
  H  H7  1  0.04065200  0.66441500  0.65491100  1
  H  H8  1  0.19753400  0.57126100  0.67924600  1
  H  H9  1  0.10315800  0.34792900  0.30131300  1
  H  H10  1  0.98216100  0.44710700  0.26927800  1
  H  H11  1  0.42046600  0.24005200  0.43523500  1
  H  H12  1  0.20649900  0.36296500  0.66920600  1
  H  H13  1  0.89430800  0.78754700  0.50649600  1
  H  H14  1  0.65141000  0.63477300  0.34129300  1
  H  H15  1  0.07313800  0.30116600  0.74790300  1
  H  H16  1  0.03297400  0.33071100  0.89638900  1
  H  H17  1  0.27892000  0.34733300  0.11695000  1
  H  H18  1  0.40476800  0.37212400  0.05499600  1
  H  H19  1  0.39027100  0.27767000  0.03777200  1
  H  H20  1  0.48535200  0.29541700  0.91755700  1
  H  H21  1  0.52324400  0.26728100  0.77108800  1
  H  H22  1  0.33181000  0.80514500  0.36857400  1
  H  H23  1  0.14343400  0.77294600  0.27122300  1
  H  H24  1  0.07648700  0.61586400  0.02475200  1
  H  H25  1  0.20973300  0.56476300  0.06166100  1
  H  H26  1  0.26261000  0.62720400  0.01375900  1
  H  H27  1  0.43753900  0.60553500  0.10440800  1
  H  H28  1  0.62331900  0.63863900  0.20031500  1
  C  C1  1  0.21021700  0.99457500  0.75582000  1
  C  C2  1  0.22913100  0.99078400  0.83324100  1
  C  C3  1  0.11271300  0.98830400  0.88189200  1
  C  C4  1  0.97667300  0.98857100  0.85211300  1
  C  C5  1  0.95773000  0.99495500  0.77645400  1
  C  C6  1  0.07345900  0.99824900  0.72866500  1
  C  C7  1  0.92756200  0.98598400  0.12992700  1
  C  C8  1  0.94558000  0.98513500  0.20863800  1
  C  C9  1  0.08149500  0.98504500  0.23765800  1
  C  C10  1  0.19700200  0.98953300  0.19037700  1
  C  C11  1  0.17890400  0.99145400  0.11257400  1
  C  C12  1  0.04403700  0.98804400  0.08117800  1
  C  C13  1  0.82231800  0.98716000  0.26299000  1
  C  C14  1  0.57993000  0.87176100  0.35704900  1
  C  C15  1  0.33743000  0.99679000  0.22493700  1
  C  C16  1  0.46259600  0.11831300  0.46663100  1
  C  C17  1  0.70913000  0.89861700  0.51982500  1
  C  C18  1  0.81475500  0.99721600  0.74572200  1
  C  C19  1  0.44715500  0.14343100  0.64014600  1
  C  C20  1  0.33211500  0.99642000  0.70266100  1
  C  C21  1  0.91859700  0.58169200  0.37512900  1
  C  C22  1  0.91533000  0.65281300  0.51492000  1
  C  C23  1  0.00773600  0.60066800  0.52934400  1
  C  C24  1  0.04146400  0.53519400  0.46796600  1
  C  C25  1  0.99261600  0.52467800  0.39104600  1
  C  C26  1  0.06356300  0.61301500  0.60568400  1
  C  C27  1  0.15391600  0.56004600  0.61936400  1
  C  C28  1  0.17939700  0.49263000  0.55899700  1
  C  C29  1  0.12084200  0.48014200  0.48410800  1
  C  C30  1  0.14014300  0.41209700  0.42605200  1
  C  C31  1  0.08861400  0.40066000  0.34873600  1
  C  C32  1  0.01968600  0.45730500  0.33043900  1
  C  C33  1  0.26029000  0.43727300  0.57392100  1
  C  C34  1  0.20378700  0.35561000  0.44724600  1
  C  C35  1  0.39202300  0.24783400  0.49855700  1
  C  C36  1  0.42653200  0.19150100  0.52668500  1
  C  C37  1  0.40062500  0.20147500  0.60929500  1
  C  C38  1  0.32552400  0.26516600  0.66084300  1
  C  C39  1  0.27425000  0.31653500  0.62916000  1
  C  C40  1  0.31265100  0.31081700  0.54950000  1
  C  C41  1  0.81184800  0.77353100  0.46300400  1
  C  C42  1  0.72069900  0.82851300  0.45400600  1
  C  C43  1  0.62841700  0.81453000  0.39019900  1
  C  C44  1  0.60448700  0.74342700  0.34913900  1
  C  C45  1  0.68068100  0.68869700  0.36823900  1
  C  C46  1  0.79137900  0.70243100  0.42146400  1
  C  C47  1  0.30074200  0.28102100  0.74945100  1
  C  C48  1  0.16358600  0.29998000  0.78529300  1
  C  C49  1  0.14087300  0.31644800  0.86888700  1
  C  C50  1  0.25456100  0.31496000  0.91780300  1
  C  C51  1  0.33069200  0.33205600  0.05438400  1
  C  C52  1  0.39268900  0.29684000  0.88194600  1
  C  C53  1  0.41508700  0.28025600  0.79823800  1
  C  C54  1  0.49121200  0.72477700  0.29052600  1
  C  C55  1  0.35581500  0.76201200  0.31000900  1
  C  C56  1  0.24911300  0.74353000  0.25543600  1
  C  C57  1  0.27565600  0.68762000  0.18106100  1
  C  C58  1  0.18067900  0.61724500  0.05404700  1
  C  C59  1  0.41127200  0.64975900  0.16173900  1
  C  C60  1  0.51784900  0.66823300  0.21652900  1
  N  N1  1  0.13526600  0.98680600  0.96176400  1
  N  N2  1  0.02183600  0.98839200  0.00081600  1
  N  N3  1  0.87636600  0.64473500  0.43740200  1
  N  N4  1  0.26285000  0.36850300  0.52126200  1
  O  O1  1  0.69062000  0.99467300  0.24060900  1
  O  O2  1  0.55623200  0.85366300  0.27845000  1
  O  O3  1  0.84318100  0.98518900  0.33680800  1
  O  O4  1  0.58830300  0.94007400  0.40007500  1
  O  O5  1  0.37056700  0.96990900  0.28219000  1
  O  O6  1  0.42537700  0.03502800  0.20344800  1
  O  O7  1  0.56101400  0.10339800  0.40660600  1
  O  O8  1  0.38641700  0.06749900  0.46943000  1
  O  O9  1  0.58155300  0.92817800  0.55428100  1
  O  O10  1  0.82451300  0.92563600  0.55302300  1
  O  O11  1  0.78051700  0.03879600  0.70313100  1
  O  O12  1  0.72490500  0.95442700  0.75595000  1
  O  O13  1  0.31164100  0.99183400  0.62641600  1
  O  O14  1  0.56285500  0.09930700  0.60685800  1
  O  O15  1  0.45875900  0.00844000  0.73231900  1
  O  O16  1  0.37213100  0.13447300  0.69941000  1
  O  O17  1  0.89153600  0.57411100  0.29687900  1
  O  O18  1  0.86013700  0.71019600  0.57959100  1
  O  O19  1  0.33524000  0.45231400  0.64213200  1
  O  O20  1  0.19919500  0.28788900  0.39540500  1
  O  O21  1  0.22700600  0.33153400  0.99940000  1
  O  O22  1  0.16776000  0.67157900  0.12955700  1
