# generated using pymatgen
data_Zn2H11C25N3O8
_symmetry_space_group_name_H-M   'P 1'
_cell_length_a   6.62719600
_cell_length_b   9.23931300
_cell_length_c   12.44675200
_cell_angle_alpha   90.10229700
_cell_angle_beta   80.34040700
_cell_angle_gamma   90.06043800
_symmetry_Int_Tables_number   1
_chemical_formula_structural   Zn2H11C25N3O8
_chemical_formula_sum   'Zn2 H11 C25 N3 O8'
_cell_volume   751.31704024
_cell_formula_units_Z   1
loop_
 _symmetry_equiv_pos_site_id
 _symmetry_equiv_pos_as_xyz
  1  'x, y, z'
loop_
 _atom_site_type_symbol
 _atom_site_label
 _atom_site_symmetry_multiplicity
 _atom_site_fract_x
 _atom_site_fract_y
 _atom_site_fract_z
 _atom_site_occupancy
  Zn  Zn1  1  0.00920100  0.84148900  0.00762800  1
  Zn  Zn2  1  0.98467500  0.16151700  0.00527600  1
  H  H1  1  0.69466900  0.64440900  0.06607100  1
  H  H2  1  0.38872400  0.75293900  0.97318200  1
  H  H3  1  0.69543500  0.61085100  0.90986700  1
  H  H4  1  0.67710000  0.34513000  0.91429800  1
  H  H5  1  0.35394900  0.22758500  0.98798900  1
  H  H6  1  0.67671300  0.37899100  0.06822400  1
  H  H7  1  0.96193700  0.92409400  0.66153100  1
  H  H8  1  0.02892900  0.06138500  0.35948100  1
  H  H9  1  0.84555100  0.92676400  0.48774400  1
  H  H10  1  0.75866100  0.96752900  0.35249900  1
  H  H11  1  0.97860800  0.08902100  0.55233300  1
  C  C1  1  0.75883900  0.99032800  0.85466800  1
  C  C2  1  0.31432600  0.00957300  0.84679000  1
  C  C3  1  0.22891800  0.01106000  0.16023300  1
  C  C4  1  0.67172400  0.99466400  0.16023200  1
  C  C5  1  0.37462200  0.63780000  0.96494300  1
  C  C6  1  0.54957900  0.55743900  0.93356100  1
  C  C7  1  0.53955600  0.40891900  0.93663300  1
  C  C8  1  0.35463300  0.34174000  0.97121100  1
  C  C9  1  0.17528600  0.42119700  0.98855100  1
  C  C10  1  0.18568900  0.57062500  0.98728400  1
  C  C11  1  0.83215200  0.58157400  0.04096800  1
  C  C12  1  0.82158100  0.43228500  0.04094300  1
  C  C13  1  0.67315300  0.98250000  0.75355300  1
  C  C14  1  0.80459600  0.95129800  0.65846000  1
  C  C15  1  0.73802300  0.95497600  0.55943700  1
  C  C16  1  0.46983700  0.01082100  0.74913600  1
  C  C17  1  0.40472500  0.02016400  0.64967600  1
  C  C18  1  0.53851900  0.99390200  0.55403900  1
  C  C19  1  0.46798300  0.00271600  0.45533900  1
  C  C20  1  0.59677300  0.98375500  0.35693000  1
  C  C21  1  0.52284900  0.99291500  0.26013000  1
  C  C22  1  0.13667800  0.06073800  0.55228500  1
  C  C23  1  0.26513100  0.03488800  0.45518700  1
  C  C24  1  0.18972600  0.04054600  0.35835800  1
  C  C25  1  0.31755100  0.01747300  0.26030900  1
  N  N1  1  0.01265800  0.64943500  0.01066500  1
  N  N2  1  0.99210100  0.35359800  0.00978500  1
  N  N3  1  0.20776100  0.05268700  0.64713500  1
  O  O1  1  0.80527100  0.11770300  0.89187100  1
  O  O2  1  0.83318500  0.87185200  0.89139800  1
  O  O3  1  0.24676600  0.88493700  0.88833400  1
  O  O4  1  0.21884400  0.12907300  0.88107900  1
  O  O5  1  0.18058400  0.88484800  0.12326200  1
  O  O6  1  0.16161300  0.12990000  0.12098400  1
  O  O7  1  0.74467000  0.11991800  0.12215500  1
  O  O8  1  0.76382900  0.87408600  0.12445400  1
