# generated using pymatgen
data_CuH22C38N(ClO2)2
_symmetry_space_group_name_H-M   'P 1'
_cell_length_a   19.45557300
_cell_length_b   17.88905100
_cell_length_c   17.67025200
_cell_angle_alpha   90.00000000
_cell_angle_beta   90.00596600
_cell_angle_gamma   90.00000000
_symmetry_Int_Tables_number   1
_chemical_formula_structural   CuH22C38N(ClO2)2
_chemical_formula_sum   'Cu2 H44 C76 N2 Cl4 O8'
_cell_volume   6149.98517712
_cell_formula_units_Z   2
loop_
 _symmetry_equiv_pos_site_id
 _symmetry_equiv_pos_as_xyz
  1  'x, y, z'
loop_
 _atom_site_type_symbol
 _atom_site_label
 _atom_site_symmetry_multiplicity
 _atom_site_fract_x
 _atom_site_fract_y
 _atom_site_fract_z
 _atom_site_occupancy
  Cu  Cu1  1  0.50003900  0.57684200  0.50023600  1
  Cu  Cu2  1  0.49952300  0.42777200  0.50066500  1
  H  H1  1  0.49481100  0.62150700  0.87667900  1
  H  H2  1  0.49940300  0.38309000  0.12357500  1
  H  H3  1  0.49503800  0.62092400  0.12402900  1
  H  H4  1  0.50890900  0.38414200  0.87674600  1
  H  H5  1  0.49663900  0.62243400  0.73859700  1
  H  H6  1  0.49796400  0.38156600  0.26094900  1
  H  H7  1  0.49337400  0.62148600  0.26201000  1
  H  H8  1  0.51111300  0.38371500  0.73812500  1
  H  H9  1  0.84466200  0.38385600  0.48905900  1
  H  H10  1  0.15613300  0.62346800  0.51586800  1
  H  H11  1  0.15347800  0.38629500  0.50856800  1
  H  H12  1  0.84419200  0.62119500  0.48635500  1
  H  H13  1  0.93326900  0.59258100  0.57678700  1
  H  H14  1  0.06548200  0.41614800  0.42119000  1
  H  H15  1  0.05757900  0.59358400  0.58347400  1
  H  H16  1  0.94114800  0.41484600  0.41566700  1
  H  H17  1  0.44794200  0.69691300  0.39511800  1
  H  H18  1  0.55107000  0.30743200  0.60605800  1
  H  H19  1  0.55191000  0.69550200  0.60410300  1
  H  H20  1  0.45045900  0.30925400  0.39508000  1
  H  H21  1  0.44968200  0.83282500  0.39346300  1
  H  H22  1  0.54973400  0.17212500  0.60774100  1
  H  H23  1  0.55004900  0.83050100  0.60878100  1
  H  H24  1  0.45187600  0.17357200  0.39111200  1
  H  H25  1  0.60203200  0.93468200  0.54822000  1
  H  H26  1  0.39918300  0.06963200  0.45411300  1
  H  H27  1  0.39903500  0.93456500  0.45551700  1
  H  H28  1  0.60196900  0.07022500  0.54749000  1
  H  H29  1  0.69558800  0.19341600  0.55558100  1
  H  H30  1  0.64798600  0.16440500  0.42989700  1
  H  H31  1  0.64245200  0.26205300  0.33231200  1
  H  H32  1  0.68683800  0.38784500  0.35916500  1
  H  H33  1  0.36494800  0.73796200  0.67426200  1
  H  H34  1  0.35674000  0.83821100  0.57967200  1
  H  H35  1  0.30233100  0.81383000  0.45657300  1
  H  H36  1  0.25666100  0.68911800  0.42771100  1
  H  H37  1  0.30347100  0.19724900  0.43235000  1
  H  H38  1  0.34702900  0.16212400  0.55776500  1
  H  H39  1  0.35015400  0.25491400  0.66025600  1
  H  H40  1  0.30694200  0.38212300  0.63819000  1
  H  H41  1  0.64156500  0.74619100  0.33260400  1
  H  H42  1  0.64800700  0.84146100  0.43247400  1
  H  H43  1  0.69891500  0.81026600  0.55583300  1
  H  H44  1  0.74300200  0.68385000  0.57961700  1
  C  C1  1  0.36699800  0.50279500  0.50762900  1
  C  C2  1  0.63250300  0.50182300  0.49274100  1
  C  C3  1  0.49544100  0.50193900  0.35487800  1
  C  C4  1  0.50385800  0.50267600  0.64580600  1
  C  C5  1  0.49873200  0.56934000  0.84607000  1
  C  C6  1  0.49805300  0.43537400  0.15411700  1
  C  C7  1  0.49558300  0.56865200  0.15459900  1
  C  C8  1  0.50662500  0.43626700  0.84589100  1
  C  C9  1  0.49977400  0.56969500  0.76807800  1
  C  C10  1  0.49706300  0.43476300  0.23203600  1
  C  C11  1  0.49449300  0.56848700  0.23255400  1
  C  C12  1  0.50772000  0.43639200  0.76784800  1
  C  C13  1  0.50428800  0.50308500  0.72856200  1
  C  C14  1  0.49530200  0.50156200  0.27174600  1
  C  C15  1  0.50219000  0.50278800  0.88496100  1
  C  C16  1  0.49755400  0.50209200  0.11542100  1
  C  C17  1  0.50067800  0.50256500  0.96615600  1
  C  C18  1  0.49927500  0.50244700  0.03431600  1
  C  C19  1  0.74635400  0.43520100  0.48598600  1
  C  C20  1  0.25352200  0.57023400  0.51900900  1
  C  C21  1  0.25223100  0.43627400  0.51155700  1
  C  C22  1  0.74609800  0.56935500  0.48349000  1
  C  C23  1  0.81720300  0.43638200  0.48925700  1
  C  C24  1  0.18272700  0.57054100  0.51381100  1
  C  C25  1  0.18143300  0.43841500  0.50776500  1
  C  C26  1  0.81678800  0.56869700  0.48914100  1
  C  C27  1  0.85271000  0.50274100  0.49278400  1
  C  C28  1  0.14625900  0.50496100  0.50683400  1
  C  C29  1  0.70889300  0.50211700  0.48657300  1
  C  C30  1  0.29025300  0.50293600  0.51359800  1
  C  C31  1  0.96193400  0.55429300  0.54166400  1
  C  C32  1  0.03695400  0.45459500  0.45648200  1
  C  C33  1  0.03269400  0.55493300  0.54526800  1
  C  C34  1  0.96617800  0.45379300  0.45333600  1
  C  C35  1  0.07078000  0.50513300  0.50261400  1
  C  C36  1  0.92813700  0.50346900  0.49604900  1
  C  C37  1  0.47066100  0.72650600  0.44202300  1
  C  C38  1  0.52833500  0.27801900  0.55894600  1
  C  C39  1  0.52763000  0.72572000  0.55843100  1
  C  C40  1  0.47321000  0.27889900  0.44149100  1
  C  C41  1  0.47106500  0.80361100  0.44148100  1
  C  C42  1  0.52828800  0.20103900  0.55950200  1
  C  C43  1  0.52780000  0.80266000  0.56034000  1
  C  C44  1  0.47306700  0.20188700  0.43979300  1
  C  C45  1  0.49988300  0.84255300  0.50108700  1
  C  C46  1  0.50064400  0.16207400  0.49959600  1
  C  C47  1  0.55695800  0.96378800  0.52787300  1
  C  C48  1  0.44466200  0.04071800  0.47328400  1
  C  C49  1  0.44459200  0.96376300  0.47408500  1
  C  C50  1  0.55693000  0.04095200  0.52730100  1
  C  C51  1  0.50085000  0.07996300  0.49970400  1
  C  C52  1  0.50063300  0.92466900  0.50099400  1
  C  C53  1  0.71530700  0.36177000  0.47292500  1
  C  C54  1  0.71826100  0.30681100  0.52787400  1
  C  C55  1  0.69416100  0.23602600  0.51223000  1
  C  C56  1  0.66724200  0.21984000  0.44194200  1
  C  C57  1  0.66388800  0.27460300  0.38729800  1
  C  C58  1  0.68833300  0.34531300  0.40259900  1
  C  C59  1  0.28554200  0.64286600  0.53469300  1
  C  C60  1  0.31487300  0.65726000  0.60463200  1
  C  C61  1  0.34126100  0.72709500  0.62008100  1
  C  C62  1  0.33659900  0.78331900  0.56708200  1
  C  C63  1  0.30606800  0.76966500  0.49812700  1
  C  C64  1  0.28059800  0.69956000  0.48191600  1
  C  C65  1  0.28270700  0.36209500  0.52196700  1
  C  C66  1  0.28155900  0.30997300  0.46424300  1
  C  C67  1  0.30454500  0.23817000  0.47732700  1
  C  C68  1  0.32907500  0.21838800  0.54770500  1
  C  C69  1  0.33092700  0.27046400  0.60509100  1
  C  C70  1  0.30705400  0.34189700  0.59254200  1
  C  C71  1  0.71505900  0.64280600  0.47035800  1
  C  C72  1  0.68735800  0.66082700  0.40046600  1
  C  C73  1  0.66289400  0.73200000  0.38725900  1
  C  C74  1  0.66696800  0.78561700  0.44304500  1
  C  C75  1  0.69551200  0.76811600  0.51219500  1
  C  C76  1  0.71982300  0.69702000  0.52565900  1
  N  N1  1  0.49953500  0.68865900  0.49935800  1
  N  N2  1  0.49928800  0.31593300  0.50135000  1
  Cl  Cl1  1  0.75028400  0.32656700  0.61838300  1
  Cl  Cl2  1  0.31718700  0.58851800  0.67532200  1
  Cl  Cl3  1  0.25212200  0.33465300  0.37390200  1
  Cl  Cl4  1  0.68528000  0.59478300  0.32719000  1
  O  O1  1  0.39985100  0.56632600  0.50133800  1
  O  O2  1  0.59961100  0.43803100  0.49919500  1
  O  O3  1  0.59943900  0.56590600  0.49359300  1
  O  O4  1  0.40001700  0.43890100  0.50745200  1
  O  O5  1  0.49394800  0.56614100  0.39030400  1
  O  O6  1  0.50580300  0.43844800  0.61045200  1
  O  O7  1  0.50061600  0.56658400  0.61012400  1
  O  O8  1  0.49865700  0.43802000  0.39065400  1
