# generated using pymatgen
data_ZnH18C21NO5
_symmetry_space_group_name_H-M   'P 1'
_cell_length_a   10.77968400
_cell_length_b   12.55755400
_cell_length_c   13.71858700
_cell_angle_alpha   86.64647500
_cell_angle_beta   90.01524400
_cell_angle_gamma   101.85856900
_symmetry_Int_Tables_number   1
_chemical_formula_structural   ZnH18C21NO5
_chemical_formula_sum   'Zn2 H36 C42 N2 O10'
_cell_volume   1814.15999666
_cell_formula_units_Z   2
loop_
 _symmetry_equiv_pos_site_id
 _symmetry_equiv_pos_as_xyz
  1  'x, y, z'
loop_
 _atom_site_type_symbol
 _atom_site_label
 _atom_site_symmetry_multiplicity
 _atom_site_fract_x
 _atom_site_fract_y
 _atom_site_fract_z
 _atom_site_occupancy
  Zn  Zn1  1  0.47398100  0.37828500  0.48665000  1
  Zn  Zn2  1  0.53127900  0.61920700  0.52680400  1
  H  H1  1  0.85404300  0.35196600  0.59821200  1
  H  H2  1  0.89517200  0.47597100  0.66162100  1
  H  H3  1  0.09745600  0.45269800  0.66312300  1
  H  H4  1  0.05869700  0.34017400  0.58477000  1
  H  H5  1  0.87416700  0.36117900  0.41762600  1
  H  H6  1  0.08230300  0.37347400  0.40324600  1
  H  H7  1  0.93335600  0.65564900  0.57157700  1
  H  H8  1  0.13501000  0.64372400  0.58841900  1
  H  H9  1  0.15508100  0.66734000  0.45726700  1
  H  H10  1  0.89317000  0.48927700  0.34747900  1
  H  H11  1  0.10719200  0.51197700  0.35149000  1
  H  H12  1  0.46110400  0.73570000  0.23733800  1
  H  H13  1  0.38885100  0.72103200  0.90703400  1
  H  H14  1  0.42113100  0.77560700  0.06688900  1
  H  H15  1  0.54342400  0.43263700  0.17213100  1
  H  H16  1  0.55073600  0.26581000  0.77017500  1
  H  H17  1  0.56649000  0.32996100  0.06544000  1
  H  H18  1  0.58469700  0.21403100  0.93880000  1
  H  H19  1  0.39516600  0.59630700  0.78470200  1
  H  H20  1  0.27468000  0.86857100  0.35193500  1
  H  H21  1  0.22745600  0.04029800  0.34072800  1
  H  H22  1  0.57808800  0.18663800  0.55145000  1
  H  H23  1  0.70440000  0.74544200  0.65420800  1
  H  H24  1  0.66565000  0.07235800  0.62563000  1
  H  H25  1  0.76563800  0.93437900  0.69836300  1
  H  H26  1  0.39090000  0.74190700  0.41997700  1
  H  H27  1  0.24488800  0.17952400  0.22617900  1
  H  H28  1  0.39092600  0.27671600  0.24391100  1
  H  H29  1  0.25899200  0.42220700  0.24724600  1
  H  H30  1  0.24938100  0.35510000  0.13321500  1
  H  H31  1  0.12125300  0.31935900  0.22171500  1
  H  H32  1  0.03628300  0.81507800  0.48538600  1
  H  H33  1  0.86391000  0.79050300  0.48577300  1
  H  H34  1  0.86556500  0.82684500  0.30816400  1
  H  H35  1  0.95933700  0.94086600  0.36762600  1
  H  H36  1  0.03680100  0.84864200  0.30537700  1
  C  C1  1  0.49517800  0.44776100  0.69531000  1
  C  C2  1  0.74601500  0.50050800  0.50320300  1
  C  C3  1  0.51017200  0.54987500  0.31859200  1
  C  C4  1  0.25912700  0.49692900  0.51069700  1
  C  C5  1  0.91439600  0.43505700  0.59541900  1
  C  C6  1  0.05261000  0.42622800  0.59339600  1
  C  C7  1  0.92199700  0.44839900  0.41507700  1
  C  C8  1  0.96217300  0.61687500  0.50702800  1
  C  C9  1  0.88502300  0.50062700  0.50484400  1
  C  C10  1  0.12039600  0.49785600  0.50873200  1
  C  C11  1  0.06406500  0.45580400  0.41337500  1
  C  C12  1  0.10146800  0.61356100  0.51662600  1
  C  C13  1  0.44943300  0.69996400  0.08836800  1
  C  C14  1  0.50263900  0.57925900  0.21391000  1
  C  C15  1  0.53499000  0.31948000  0.82554500  1
  C  C16  1  0.55583400  0.29026100  0.92085300  1
  C  C17  1  0.54487800  0.35854300  0.99342100  1
  C  C18  1  0.50749000  0.45718400  0.97247500  1
  C  C19  1  0.48128500  0.48479500  0.87535000  1
  C  C20  1  0.49508000  0.52865300  0.04589600  1
  C  C21  1  0.45785500  0.62555700  0.01994900  1
  C  C22  1  0.42429300  0.64804700  0.92579600  1
  C  C23  1  0.43209000  0.57733100  0.85497500  1
  C  C24  1  0.51670500  0.50636900  0.14489000  1
  C  C25  1  0.47285700  0.67764100  0.18481500  1
  C  C26  1  0.50061700  0.41744800  0.80086700  1
  C  C27  1  0.30791100  0.07218200  0.38502700  1
  C  C28  1  0.65821700  0.80620800  0.61974900  1
  C  C29  1  0.69288300  0.91249500  0.64464100  1
  C  C30  1  0.63510500  0.99106800  0.60202300  1
  C  C31  1  0.54082400  0.96285400  0.53359000  1
  C  C32  1  0.50903700  0.85371900  0.51011800  1
  C  C33  1  0.47602200  0.03931600  0.48865300  1
  C  C34  1  0.37833400  0.00253400  0.42601400  1
  C  C35  1  0.34926100  0.89591600  0.40290700  1
  C  C36  1  0.41571100  0.82318400  0.44267700  1
  C  C37  1  0.50316500  0.15102500  0.50434200  1
  C  C38  1  0.33900100  0.18136600  0.40014900  1
  C  C39  1  0.28763900  0.25675300  0.25925300  1
  C  C40  1  0.22555000  0.34438200  0.21227900  1
  C  C41  1  0.94949400  0.78420500  0.44360800  1
  C  C42  1  0.95310500  0.85488500  0.34995300  1
  N  N1  1  0.43573100  0.21937000  0.45979500  1
  N  N2  1  0.56807300  0.77750900  0.55292400  1
  O  O1  1  0.47527500  0.36871400  0.63463600  1
  O  O2  1  0.52151700  0.55124500  0.66492200  1
  O  O3  1  0.66603500  0.40845700  0.48924100  1
  O  O4  1  0.70955300  0.59164600  0.51891600  1
  O  O5  1  0.48727700  0.44637300  0.34841500  1
  O  O6  1  0.53016500  0.62859700  0.37887700  1
  O  O7  1  0.29575000  0.40626800  0.49428600  1
  O  O8  1  0.33920400  0.58774700  0.52644200  1
  O  O9  1  0.26527800  0.24925800  0.36025400  1
  O  O10  1  0.94390900  0.67622700  0.42026300  1
