# generated using pymatgen
data_ZnH9C16BrNO4
_symmetry_space_group_name_H-M   'P 1'
_cell_length_a   6.72590400
_cell_length_b   14.26405300
_cell_length_c   13.38151200
_cell_angle_alpha   90.00000000
_cell_angle_beta   90.06731900
_cell_angle_gamma   90.00000000
_symmetry_Int_Tables_number   1
_chemical_formula_structural   ZnH9C16BrNO4
_chemical_formula_sum   'Zn2 H18 C32 Br2 N2 O8'
_cell_volume   1283.80332521
_cell_formula_units_Z   2
loop_
 _symmetry_equiv_pos_site_id
 _symmetry_equiv_pos_as_xyz
  1  'x, y, z'
loop_
 _atom_site_type_symbol
 _atom_site_label
 _atom_site_symmetry_multiplicity
 _atom_site_fract_x
 _atom_site_fract_y
 _atom_site_fract_z
 _atom_site_occupancy
  Zn  Zn1  1  0.36640800  0.89371700  0.49549800  1
  Zn  Zn2  1  0.36643100  0.10373200  0.50392300  1
  H  H1  1  0.51568700  0.93724500  0.81264500  1
  H  H2  1  0.69586500  0.93642600  0.97190700  1
  H  H3  1  0.69548000  0.06152700  0.02751100  1
  H  H4  1  0.51550000  0.06048300  0.18661900  1
  H  H5  1  0.34422900  0.03427500  0.75418800  1
  H  H6  1  0.51900700  0.03421900  0.91586500  1
  H  H7  1  0.51896700  0.96334700  0.08364600  1
  H  H8  1  0.34449100  0.96343900  0.24544200  1
  H  H9  1  0.05687000  0.58341300  0.46457800  1
  H  H10  1  0.05384900  0.42868300  0.50372000  1
  H  H11  1  0.21729100  0.56445700  0.35775600  1
  H  H12  1  0.16094200  0.40923100  0.38128600  1
  H  H13  1  0.47358600  0.58911100  0.64966300  1
  H  H14  1  0.53248100  0.43276700  0.64013900  1
  H  H15  1  0.20806500  0.57317900  0.63404100  1
  H  H16  1  0.26662800  0.41784900  0.65544200  1
  H  H17  1  0.68923000  0.56967700  0.49925200  1
  H  H18  1  0.68673700  0.41251800  0.47371900  1
  C  C1  1  0.76320300  0.98579800  0.72825400  1
  C  C2  1  0.66939500  0.95925300  0.81522200  1
  C  C3  1  0.76891100  0.96098800  0.90523500  1
  C  C4  1  0.76867300  0.03686100  0.09415900  1
  C  C5  1  0.96889200  0.99528800  0.72933200  1
  C  C6  1  0.06468800  0.00209400  0.82047100  1
  C  C7  1  0.96201300  0.99147200  0.90903200  1
  C  C8  1  0.06041900  0.99906300  0.99976200  1
  C  C9  1  0.66924500  0.03852200  0.18413600  1
  C  C10  1  0.76295800  0.01171100  0.27111700  1
  C  C11  1  0.96194300  0.00650700  0.09041900  1
  C  C12  1  0.06466200  0.99574200  0.17902700  1
  C  C13  1  0.96870100  0.00223700  0.27008100  1
  C  C14  1  0.26518700  0.01989100  0.82283200  1
  C  C15  1  0.36461100  0.01667300  0.91261200  1
  C  C16  1  0.26351400  0.99902600  0.99982400  1
  C  C17  1  0.36467400  0.98119500  0.08705900  1
  C  C18  1  0.26529000  0.97794600  0.17678300  1
  C  C19  1  0.63905500  0.99320500  0.63866800  1
  C  C20  1  0.09347700  0.99561600  0.63913300  1
  C  C21  1  0.09328600  0.00184300  0.36028900  1
  C  C22  1  0.63876600  0.00425300  0.36068600  1
  C  C23  1  0.56158700  0.54994500  0.45109900  1
  C  C24  1  0.54852000  0.44417300  0.44355500  1
  C  C25  1  0.19569900  0.54950700  0.43834100  1
  C  C26  1  0.18175200  0.44464500  0.45433500  1
  C  C27  1  0.37135100  0.58711300  0.49664400  1
  C  C28  1  0.37140200  0.41030500  0.50325700  1
  C  C29  1  0.38437500  0.44933500  0.60819600  1
  C  C30  1  0.35667200  0.55461400  0.60415800  1
  C  C31  1  0.37093300  0.30779300  0.50652000  1
  C  C32  1  0.37093500  0.68964100  0.49338600  1
  Br  Br1  1  0.51610000  0.40805200  0.30527400  1
  Br  Br2  1  0.59683200  0.60256000  0.31916100  1
  N  N1  1  0.37006700  0.22669500  0.50802200  1
  N  N2  1  0.37003600  0.77074100  0.49182200  1
  O  O1  1  0.57210100  0.07614300  0.60972500  1
  O  O2  1  0.57064600  0.91449600  0.60289700  1
  O  O3  1  0.16040800  0.91540700  0.60286600  1
  O  O4  1  0.16147300  0.07665800  0.60966900  1
  O  O5  1  0.16116500  0.92066100  0.38972000  1
  O  O6  1  0.16012600  0.08217400  0.39654700  1
  O  O7  1  0.57033200  0.08281400  0.39652400  1
  O  O8  1  0.57177900  0.92144600  0.38971400  1
