# generated using pymatgen
data_ZnH12C24NO5
_symmetry_space_group_name_H-M   'P 1'
_cell_length_a   11.92018600
_cell_length_b   12.52583800
_cell_length_c   13.78840700
_cell_angle_alpha   86.66929300
_cell_angle_beta   90.00502500
_cell_angle_gamma   101.75220600
_symmetry_Int_Tables_number   1
_chemical_formula_structural   ZnH12C24NO5
_chemical_formula_sum   'Zn2 H24 C48 N2 O10'
_cell_volume   2012.04512919
_cell_formula_units_Z   2
loop_
 _symmetry_equiv_pos_site_id
 _symmetry_equiv_pos_as_xyz
  1  'x, y, z'
loop_
 _atom_site_type_symbol
 _atom_site_label
 _atom_site_symmetry_multiplicity
 _atom_site_fract_x
 _atom_site_fract_y
 _atom_site_fract_z
 _atom_site_occupancy
  Zn  Zn1  1  0.48759000  0.38134900  0.50552200  1
  Zn  Zn2  1  0.54345300  0.62314300  0.54459500  1
  H  H1  1  0.51934600  0.75049300  0.25715000  1
  H  H2  1  0.50040200  0.80238700  0.09136700  1
  H  H3  1  0.51633700  0.42485700  0.19116800  1
  H  H4  1  0.50345000  0.25548600  0.79233800  1
  H  H5  1  0.51028400  0.31576300  0.08598800  1
  H  H6  1  0.50478900  0.19495700  0.96095800  1
  H  H7  1  0.45232900  0.62785200  0.80238100  1
  H  H8  1  0.32194700  0.24253800  0.38031400  1
  H  H9  1  0.31537200  0.87203800  0.36484900  1
  H  H10  1  0.27799100  0.04986800  0.34413700  1
  H  H11  1  0.57340100  0.18917000  0.57568700  1
  H  H12  1  0.66747600  0.08211900  0.63440500  1
  H  H13  1  0.76846700  0.95224700  0.69945400  1
  H  H14  1  0.41846400  0.74552800  0.43607300  1
  H  H15  1  0.90880600  0.67580700  0.77511400  1
  H  H16  1  0.11083600  0.70268700  0.73038900  1
  H  H17  1  0.18301600  0.80431600  0.57768200  1
  H  H18  1  0.05091100  0.87849600  0.46858600  1
  H  H19  1  0.84849400  0.85226300  0.51081300  1
  H  H20  1  0.50077900  0.00286600  0.86528200  1
  H  H21  1  0.67257300  0.14746600  0.86333900  1
  H  H22  1  0.85880900  0.10512800  0.90753200  1
  H  H23  1  0.87353300  0.91564200  0.95167700  1
  H  H24  1  0.70502300  0.76943100  0.95204600  1
  C  C1  1  0.50471700  0.45227800  0.71336200  1
  C  C2  1  0.73415900  0.49926300  0.52217500  1
  C  C3  1  0.52320500  0.55218100  0.33764300  1
  C  C4  1  0.29676800  0.50464600  0.52788200  1
  C  C5  1  0.85443800  0.49857500  0.52256300  1
  C  C6  1  0.95588100  0.50022000  0.52385600  1
  C  C7  1  0.07497000  0.50326900  0.52588800  1
  C  C8  1  0.17646100  0.50517700  0.52734200  1
  C  C9  1  0.50628700  0.71868000  0.10880600  1
  C  C10  1  0.51934200  0.58275500  0.23335400  1
  C  C11  1  0.50047200  0.31425000  0.84607400  1
  C  C12  1  0.50253400  0.27934700  0.94175800  1
  C  C13  1  0.50561200  0.35083800  0.01363500  1
  C  C14  1  0.50146500  0.45993100  0.99158900  1
  C  C15  1  0.49208300  0.49411800  0.89381100  1
  C  C16  1  0.50511100  0.53512500  0.06485000  1
  C  C17  1  0.50109300  0.64312800  0.03850700  1
  C  C18  1  0.48747400  0.67461300  0.94221000  1
  C  C19  1  0.47526400  0.59934700  0.87291700  1
  C  C20  1  0.51358100  0.50620000  0.16407300  1
  C  C21  1  0.51677900  0.68913100  0.20486300  1
  C  C22  1  0.49753700  0.42172600  0.81964900  1
  C  C23  1  0.34396600  0.07806700  0.39589500  1
  C  C24  1  0.66955200  0.81819700  0.63007800  1
  C  C25  1  0.69800600  0.92572000  0.65134400  1
  C  C26  1  0.63877000  0.00000000  0.61324800  1
  C  C27  1  0.55022300  0.96747100  0.54973100  1
  C  C28  1  0.52370400  0.85728400  0.52769000  1
  C  C29  1  0.48909500  0.04262700  0.50626300  1
  C  C30  1  0.40440200  0.00660800  0.44051200  1
  C  C31  1  0.38050500  0.89954600  0.41749800  1
  C  C32  1  0.43942200  0.82636600  0.45994900  1
  C  C33  1  0.51004600  0.15344500  0.52533400  1
  C  C34  1  0.36840100  0.18619300  0.41620000  1
  C  C35  1  0.74156700  0.74749600  0.67497300  1
  C  C36  1  0.86353600  0.76313000  0.64696700  1
  C  C37  1  0.93835300  0.72054100  0.70743300  1
  C  C38  1  0.05279000  0.73569100  0.68260600  1
  C  C39  1  0.09331200  0.79270400  0.59707200  1
  C  C40  1  0.01924100  0.83434700  0.53603900  1
  C  C41  1  0.90475800  0.81972000  0.56063600  1
  C  C42  1  0.48499000  0.78793300  0.90961700  1
  C  C43  1  0.58919300  0.87518200  0.90983700  1
  C  C44  1  0.58190900  0.98211400  0.88456900  1
  C  C45  1  0.67863100  0.06424800  0.88366600  1
  C  C46  1  0.78317800  0.04059100  0.90826800  1
  C  C47  1  0.79132900  0.93443800  0.93304300  1
  C  C48  1  0.69510100  0.85188300  0.93351800  1
  N  N1  1  0.45050300  0.22195400  0.48009300  1
  N  N2  1  0.58084300  0.78234000  0.57001000  1
  O  O1  1  0.48675300  0.37312200  0.65283800  1
  O  O2  1  0.53150300  0.55531300  0.68213100  1
  O  O3  1  0.66102300  0.40816200  0.50853600  1
  O  O4  1  0.70302000  0.59125000  0.53728100  1
  O  O5  1  0.50063900  0.44829400  0.36749000  1
  O  O6  1  0.54284200  0.63146800  0.39745300  1
  O  O7  1  0.32774700  0.41275800  0.51144200  1
  O  O8  1  0.36981400  0.59556900  0.54345800  1
  O  O9  1  0.70715100  0.69121600  0.74813600  1
  O  O10  1  0.39688300  0.80825200  0.87526100  1
