# generated using pymatgen
data_Fe2H20C41O17
_symmetry_space_group_name_H-M   'P 1'
_cell_length_a   16.22600600
_cell_length_b   11.98976400
_cell_length_c   12.57111700
_cell_angle_alpha   91.44766100
_cell_angle_beta   88.05028400
_cell_angle_gamma   105.07698700
_symmetry_Int_Tables_number   1
_chemical_formula_structural   Fe2H20C41O17
_chemical_formula_sum   'Fe2 H20 C41 O17'
_cell_volume   2359.76525092
_cell_formula_units_Z   1
loop_
 _symmetry_equiv_pos_site_id
 _symmetry_equiv_pos_as_xyz
  1  'x, y, z'
loop_
 _atom_site_type_symbol
 _atom_site_label
 _atom_site_symmetry_multiplicity
 _atom_site_fract_x
 _atom_site_fract_y
 _atom_site_fract_z
 _atom_site_occupancy
  Fe  Fe1  1  0.49080500  0.97017500  0.22078400  1
  Fe  Fe2  1  0.47608300  0.98364800  0.81610400  1
  H  H1  1  0.15335700  0.93442300  0.87367200  1
  H  H2  1  0.20951400  0.07826000  0.23738000  1
  H  H3  1  0.02581500  0.87291900  0.83952700  1
  H  H4  1  0.88326800  0.84185900  0.78862800  1
  H  H5  1  0.07726500  0.11101600  0.25798900  1
  H  H6  1  0.93823100  0.09313900  0.20198800  1
  H  H7  1  0.74381200  0.85794900  0.81605700  1
  H  H8  1  0.81629200  0.07203100  0.15163600  1
  H  H9  1  0.49889800  0.59950200  0.67419500  1
  H  H10  1  0.44112900  0.53780300  0.34246100  1
  H  H11  1  0.51000000  0.41448200  0.34112800  1
  H  H12  1  0.41643600  0.83998700  0.50652300  1
  H  H13  1  0.51133600  0.11135400  0.50076500  1
  H  H14  1  0.60762300  0.50792200  0.69181500  1
  H  H15  1  0.59398900  0.36813900  0.74907800  1
  H  H16  1  0.53567600  0.56842200  0.85524400  1
  H  H17  1  0.52499800  0.42727400  0.90988100  1
  H  H18  1  0.68290600  0.45973700  0.89959800  1
  H  H19  1  0.65170100  0.57059200  0.97902100  1
  H  H20  1  0.69353100  0.60129500  0.84477500  1
  C  C1  1  0.26011000  0.00760200  0.09988200  1
  C  C2  1  0.24380400  0.97044600  0.99392800  1
  C  C3  1  0.16255200  0.95982300  0.95577000  1
  C  C4  1  0.19765400  0.04376600  0.15758500  1
  C  C5  1  0.11843600  0.03473400  0.11785500  1
  C  C6  1  0.09748000  0.98708700  0.01861700  1
  C  C7  1  0.01278200  0.96940100  0.98544600  1
  C  C8  1  0.98559000  0.90995100  0.89129100  1
  C  C9  1  0.90256600  0.88984800  0.86154100  1
  C  C10  1  0.06002800  0.07229700  0.18059900  1
  C  C11  1  0.97905200  0.06125300  0.14694700  1
  C  C12  1  0.95294200  0.00760500  0.05000200  1
  C  C13  1  0.86797300  0.98875200  0.01761800  1
  C  C14  1  0.84406400  0.92801700  0.92368700  1
  C  C15  1  0.76107000  0.90368300  0.89056700  1
  C  C16  1  0.80507200  0.02587000  0.07702900  1
  C  C17  1  0.72195800  0.00049300  0.04368500  1
  C  C18  1  0.70019500  0.94001100  0.94996400  1
  C  C19  1  0.65446600  0.02491500  0.11350200  1
  C  C20  1  0.43607900  0.75455500  0.31424500  1
  C  C21  1  0.33574000  0.00275800  0.16047100  1
  C  C22  1  0.51863100  0.19694500  0.31137500  1
  C  C23  1  0.47530500  0.80289600  0.68349200  1
  C  C24  1  0.61518000  0.92380900  0.90778900  1
  C  C25  1  0.47943200  0.17504100  0.69392200  1
  C  C26  1  0.30846700  0.94447600  0.91762700  1
  C  C27  1  0.44718400  0.71545000  0.60045700  1
  C  C28  1  0.47126000  0.61350300  0.60188600  1
  C  C29  1  0.46687800  0.54136900  0.51170000  1
  C  C30  1  0.44463300  0.58423800  0.41707800  1
  C  C31  1  0.42879700  0.69216300  0.41432400  1
  C  C32  1  0.42452200  0.75339100  0.50720700  1
  C  C33  1  0.50415600  0.37170400  0.41614300  1
  C  C34  1  0.51500400  0.26082300  0.41228500  1
  C  C35  1  0.50941500  0.20068100  0.50447700  1
  C  C36  1  0.49353900  0.24921900  0.60034300  1
  C  C37  1  0.48889800  0.36321200  0.60691900  1
  C  C38  1  0.48863300  0.42553000  0.51286500  1
  C  C39  1  0.56613200  0.44286200  0.74489900  1
  C  C40  1  0.56419300  0.49393000  0.85633700  1
  C  C41  1  0.65405300  0.53393200  0.89744000  1
  O  O1  1  0.58881100  0.93830500  0.13894300  1
  O  O2  1  0.48477700  0.73030000  0.23632700  1
  O  O3  1  0.65894300  0.13068200  0.14702200  1
  O  O4  1  0.41772900  0.85507500  0.31733100  1
  O  O5  1  0.40571500  0.98763400  0.11449600  1
  O  O6  1  0.33175600  0.01079000  0.26470000  1
  O  O7  1  0.54913100  0.10514900  0.31268400  1
  O  O8  1  0.47324900  0.21293300  0.23156500  1
  O  O9  1  0.42252400  0.82438100  0.75862000  1
  O  O10  1  0.54896700  0.87841200  0.66724500  1
  O  O11  1  0.58672500  0.01516100  0.89239600  1
  O  O12  1  0.57175000  0.82067000  0.87710500  1
  O  O13  1  0.28366800  0.87433000  0.83644500  1
  O  O14  1  0.51070700  0.08467700  0.69155900  1
  O  O15  1  0.38826700  0.00573700  0.92213000  1
  O  O16  1  0.43171500  0.19334600  0.77547900  1
  O  O17  1  0.48257100  0.40970100  0.70660300  1
