# generated using pymatgen
data_ZnH14C20N5O6
_symmetry_space_group_name_H-M   'P 1'
_cell_length_a   14.52886300
_cell_length_b   15.91957600
_cell_length_c   17.11731400
_cell_angle_alpha   89.11976400
_cell_angle_beta   89.99592800
_cell_angle_gamma   92.53548700
_symmetry_Int_Tables_number   1
_chemical_formula_structural   ZnH14C20N5O6
_chemical_formula_sum   'Zn2 H28 C40 N10 O12'
_cell_volume   3954.77690936
_cell_formula_units_Z   2
loop_
 _symmetry_equiv_pos_site_id
 _symmetry_equiv_pos_as_xyz
  1  'x, y, z'
loop_
 _atom_site_type_symbol
 _atom_site_label
 _atom_site_symmetry_multiplicity
 _atom_site_fract_x
 _atom_site_fract_y
 _atom_site_fract_z
 _atom_site_occupancy
  Zn  Zn1  1  0.49239400  0.40799200  0.50191700  1
  Zn  Zn2  1  0.50552500  0.59921100  0.50780000  1
  H  H1  1  0.57153600  0.41608900  0.10757400  1
  H  H2  1  0.42591300  0.59063900  0.90209200  1
  H  H3  1  0.58544700  0.37179800  0.88778900  1
  H  H4  1  0.41421300  0.63627600  0.12181900  1
  H  H5  1  0.57575600  0.37926200  0.74559100  1
  H  H6  1  0.42359000  0.62864800  0.26400100  1
  H  H7  1  0.58548700  0.27042400  0.58193500  1
  H  H8  1  0.41136100  0.73675000  0.42875200  1
  H  H9  1  0.58266500  0.11879200  0.57823000  1
  H  H10  1  0.41397200  0.88835800  0.43268600  1
  H  H11  1  0.62641100  0.88235600  0.60572400  1
  H  H12  1  0.37233300  0.12488800  0.40334300  1
  H  H13  1  0.63610900  0.41121400  0.30401300  1
  H  H14  1  0.67060400  0.27447200  0.32991500  1
  H  H15  1  0.64452900  0.20301600  0.25116400  1
  H  H16  1  0.56367900  0.21201600  0.33032200  1
  H  H17  1  0.36054200  0.59404800  0.70579200  1
  H  H18  1  0.32461300  0.73020900  0.67897700  1
  H  H19  1  0.43147700  0.79273300  0.67679300  1
  H  H20  1  0.35155300  0.80304100  0.75644600  1
  H  H21  1  0.62490200  0.72371300  0.66827600  1
  H  H22  1  0.76951900  0.68461500  0.70041600  1
  H  H23  1  0.84385200  0.76285000  0.65126900  1
  H  H24  1  0.84005100  0.65500600  0.61940500  1
  H  H25  1  0.37545800  0.28350200  0.34035100  1
  H  H26  1  0.23165300  0.32311800  0.30632800  1
  H  H27  1  0.15990000  0.35314400  0.38640100  1
  H  H28  1  0.15610000  0.24524900  0.35465400  1
  C  C1  1  0.49747800  0.49481500  0.65769800  1
  C  C2  1  0.50047200  0.51237200  0.35200700  1
  C  C3  1  0.67851400  0.49901100  0.50475200  1
  C  C4  1  0.31940300  0.50819300  0.50494800  1
  C  C5  1  0.77721900  0.49852300  0.50468600  1
  C  C6  1  0.22069800  0.50870200  0.50490300  1
  C  C7  1  0.86019600  0.49977800  0.50466400  1
  C  C8  1  0.13772200  0.50748600  0.50483200  1
  C  C9  1  0.95745400  0.50240200  0.50469000  1
  C  C10  1  0.04046400  0.50490400  0.50474100  1
  C  C11  1  0.49801400  0.49036200  0.74336700  1
  C  C12  1  0.50010500  0.51679900  0.26631300  1
  C  C13  1  0.45686800  0.55024100  0.78839100  1
  C  C14  1  0.54062600  0.45651600  0.22128800  1
  C  C15  1  0.46201500  0.54501600  0.86907900  1
  C  C16  1  0.53584300  0.46198300  0.14058700  1
  C  C17  1  0.50939000  0.48138000  0.90521200  1
  C  C18  1  0.48923000  0.52607900  0.10442700  1
  C  C19  1  0.54902100  0.42192200  0.86003100  1
  C  C20  1  0.45008100  0.58581400  0.14959400  1
  C  C21  1  0.54290700  0.42596200  0.77980700  1
  C  C22  1  0.45600600  0.58165700  0.22982600  1
  C  C23  1  0.45933900  0.76919300  0.46735600  1
  C  C24  1  0.53793300  0.23799200  0.54296200  1
  C  C25  1  0.46110900  0.85584700  0.47010600  1
  C  C26  1  0.53605800  0.15133100  0.54033500  1
  C  C27  1  0.52167900  0.89746300  0.52038500  1
  C  C28  1  0.47600400  0.10973700  0.48961800  1
  C  C29  1  0.57910000  0.85086800  0.56589500  1
  C  C30  1  0.41917800  0.15635800  0.44356200  1
  C  C31  1  0.57634700  0.76441000  0.56101300  1
  C  C32  1  0.42208400  0.24283200  0.44826600  1
  C  C33  1  0.56821300  0.31434200  0.24826600  1
  C  C34  1  0.61475600  0.24705700  0.29283300  1
  C  C35  1  0.42801200  0.69181300  0.76034600  1
  C  C36  1  0.38088300  0.75830700  0.71519700  1
  C  C37  1  0.72383400  0.72483000  0.58687000  1
  C  C38  1  0.79869800  0.70565500  0.64317700  1
  C  C39  1  0.27515300  0.28282600  0.42050200  1
  C  C40  1  0.20138600  0.30226700  0.36322800  1
  N  N1  1  0.51717600  0.47451500  0.98746800  1
  N  N2  1  0.48155200  0.53300500  0.02216400  1
  N  N3  1  0.51605300  0.72473300  0.51256900  1
  N  N4  1  0.48186500  0.28247200  0.49716100  1
  N  N5  1  0.52648000  0.98602200  0.52688100  1
  N  N6  1  0.47120100  0.02117700  0.48315400  1
  N  N7  1  0.59665200  0.39577800  0.25599200  1
  N  N8  1  0.39985600  0.61019000  0.75370600  1
  N  N9  1  0.63469100  0.71780400  0.60912900  1
  N  N10  1  0.36467800  0.28950900  0.39935700  1
  O  O1  1  0.49420300  0.42408300  0.61911500  1
  O  O2  1  0.50373300  0.58311600  0.39059900  1
  O  O3  1  0.50265700  0.56907500  0.62321000  1
  O  O4  1  0.49526500  0.43812700  0.38651100  1
  O  O5  1  0.63121600  0.42694800  0.50298300  1
  O  O6  1  0.36670300  0.58025400  0.50672400  1
  O  O7  1  0.64038500  0.57201100  0.50655700  1
  O  O8  1  0.35753000  0.43518600  0.50315600  1
  O  O9  1  0.50401900  0.29513600  0.20527300  1
  O  O10  1  0.49243700  0.71180800  0.80280900  1
  O  O11  1  0.74358400  0.74562600  0.51987300  1
  O  O12  1  0.25415200  0.26215000  0.48726300  1
