# generated using pymatgen
data_CuH11C18NO6
_symmetry_space_group_name_H-M   'P 1'
_cell_length_a   12.99286900
_cell_length_b   15.13933700
_cell_length_c   13.67534400
_cell_angle_alpha   89.99675900
_cell_angle_beta   95.45334600
_cell_angle_gamma   90.00361600
_symmetry_Int_Tables_number   1
_chemical_formula_structural   CuH11C18NO6
_chemical_formula_sum   'Cu2 H22 C36 N2 O12'
_cell_volume   2677.81184142
_cell_formula_units_Z   2
loop_
 _symmetry_equiv_pos_site_id
 _symmetry_equiv_pos_as_xyz
  1  'x, y, z'
loop_
 _atom_site_type_symbol
 _atom_site_label
 _atom_site_symmetry_multiplicity
 _atom_site_fract_x
 _atom_site_fract_y
 _atom_site_fract_z
 _atom_site_occupancy
  Cu  Cu1  1  0.49999600  0.50160700  0.59764300  1
  Cu  Cu2  1  0.50155700  0.49844700  0.40240800  1
  H  H1  1  0.82522800  0.50896900  0.37548200  1
  H  H2  1  0.17726300  0.49239300  0.62481300  1
  H  H3  1  0.98110800  0.51434200  0.30043800  1
  H  H4  1  0.02062500  0.48553900  0.70008100  1
  H  H5  1  0.45218900  0.05843700  0.64475000  1
  H  H6  1  0.44146700  0.94046300  0.34755900  1
  H  H7  1  0.54734300  0.22286500  0.35719600  1
  H  H8  1  0.56115400  0.77802200  0.64792100  1
  H  H9  1  0.54924200  0.06345400  0.35465800  1
  H  H10  1  0.56125100  0.93758500  0.65020600  1
  H  H11  1  0.65016800  0.55987200  0.08314000  1
  H  H12  1  0.41487900  0.37871400  0.92067500  1
  H  H13  1  0.64387600  0.56411800  0.25934100  1
  H  H14  1  0.40994800  0.38688600  0.74433300  1
  H  H15  1  0.35659600  0.43405000  0.23219200  1
  H  H16  1  0.58611500  0.62050700  0.76282200  1
  H  H17  1  0.35238800  0.43650200  0.05503600  1
  H  H18  1  0.58387600  0.62223300  0.93985500  1
  H  H19  1  0.82216500  0.42094700  0.72106700  1
  H  H20  1  0.18086500  0.58179400  0.28200700  1
  H  H21  1  0.50872900  0.22426500  0.71318000  1
  H  H22  1  0.49536300  0.77465000  0.28647800  1
  C  C1  1  0.49972000  0.33003800  0.50250400  1
  C  C2  1  0.50215700  0.67006500  0.49741500  1
  C  C3  1  0.30159300  0.50186700  0.48020200  1
  C  C4  1  0.70004300  0.49880900  0.52003000  1
  C  C5  1  0.81412700  0.49788400  0.53052100  1
  C  C6  1  0.18772100  0.50277800  0.46965500  1
  C  C7  1  0.02462300  0.50925600  0.37168100  1
  C  C8  1  0.97732200  0.49097500  0.62869100  1
  C  C9  1  0.13111200  0.50920300  0.37828600  1
  C  C10  1  0.87069800  0.49134700  0.62191900  1
  C  C11  1  0.13528800  0.49711600  0.55299900  1
  C  C12  1  0.86681500  0.50351900  0.44731600  1
  C  C13  1  0.02867000  0.49718400  0.54547900  1
  C  C14  1  0.97341700  0.50320200  0.45495800  1
  C  C15  1  0.47538200  0.09396600  0.58191200  1
  C  C16  1  0.47044300  0.90571400  0.41356400  1
  C  C17  1  0.47479100  0.18501900  0.58399100  1
  C  C18  1  0.47075800  0.81458700  0.41192800  1
  C  C19  1  0.50005900  0.23280300  0.50306000  1
  C  C20  1  0.50271000  0.76724100  0.49633700  1
  C  C21  1  0.52551000  0.18767200  0.42077200  1
  C  C22  1  0.53413100  0.81300300  0.58159100  1
  C  C23  1  0.52632600  0.09651700  0.41923700  1
  C  C24  1  0.53416700  0.90411700  0.58283300  1
  C  C25  1  0.50149400  0.04876900  0.49998200  1
  C  C26  1  0.50246200  0.95131700  0.49871100  1
  C  C27  1  0.58316400  0.53278200  0.11352700  1
  C  C28  1  0.45145000  0.43422300  0.88847500  1
  C  C29  1  0.58102700  0.53362400  0.21417800  1
  C  C30  1  0.45069600  0.43749300  0.78781300  1
  C  C31  1  0.42139600  0.46198500  0.19935500  1
  C  C32  1  0.54793400  0.56743700  0.79826200  1
  C  C33  1  0.41968000  0.46207200  0.09836700  1
  C  C34  1  0.54762400  0.56759700  0.89918900  1
  C  C35  1  0.50127000  0.49795800  0.05392800  1
  C  C36  1  0.50063100  0.49966000  0.94593800  1
  N  N1  1  0.50195400  0.49674600  0.25607400  1
  N  N2  1  0.49852900  0.50351500  0.74384100  1
  O  O1  1  0.50314200  0.37298400  0.58588100  1
  O  O2  1  0.49872900  0.62717300  0.41395900  1
  O  O3  1  0.49635300  0.37048600  0.41756400  1
  O  O4  1  0.50485000  0.62966600  0.58252300  1
  O  O5  1  0.35000500  0.50525100  0.56880000  1
  O  O6  1  0.65148800  0.49471700  0.43127000  1
  O  O7  1  0.35098300  0.49689800  0.40150600  1
  O  O8  1  0.65052400  0.50377400  0.59894300  1
  O  O9  1  0.82301400  0.48503300  0.70654400  1
  O  O10  1  0.17868400  0.51732100  0.29384800  1
  O  O11  1  0.44607900  0.22645400  0.66595600  1
  O  O12  1  0.43598200  0.77252600  0.32676300  1
