# generated using pymatgen
data_Zn2H11C30Br(NO4)2
_symmetry_space_group_name_H-M   'P 1'
_cell_length_a   8.53286500
_cell_length_b   12.94858600
_cell_length_c   14.37105400
_cell_angle_alpha   90.95135300
_cell_angle_beta   90.07222500
_cell_angle_gamma   95.35191400
_symmetry_Int_Tables_number   1
_chemical_formula_structural   Zn2H11C30Br(NO4)2
_chemical_formula_sum   'Zn2 H11 C30 Br1 N2 O8'
_cell_volume   1580.69047983
_cell_formula_units_Z   1
loop_
 _symmetry_equiv_pos_site_id
 _symmetry_equiv_pos_as_xyz
  1  'x, y, z'
loop_
 _atom_site_type_symbol
 _atom_site_label
 _atom_site_symmetry_multiplicity
 _atom_site_fract_x
 _atom_site_fract_y
 _atom_site_fract_z
 _atom_site_occupancy
  Zn  Zn1  1  0.56338100  0.51418400  0.89829300  1
  Zn  Zn2  1  0.55862000  0.48797300  0.10400800  1
  H  H1  1  0.62640900  0.17383100  0.99785900  1
  H  H2  1  0.60378000  0.98682700  0.01174000  1
  H  H3  1  0.07095200  0.57170200  0.04428600  1
  H  H4  1  0.36072000  0.84932400  0.99622100  1
  H  H5  1  0.24804500  0.00477500  0.98824900  1
  H  H6  1  0.71730900  0.82818000  0.01723300  1
  H  H7  1  0.26963900  0.16192700  0.00714800  1
  H  H8  1  0.04604200  0.42999000  0.95516100  1
  H  H9  1  0.54006000  0.34626500  0.59872400  1
  H  H10  1  0.53613200  0.32691100  0.42814200  1
  H  H11  1  0.58640300  0.67516400  0.57416000  1
  C  C1  1  0.01411800  0.13616200  0.99458100  1
  C  C2  1  0.87889700  0.18872200  0.99173700  1
  C  C3  1  0.73251000  0.13442400  0.99931200  1
  C  C4  1  0.71935600  0.02823200  0.00676500  1
  C  C5  1  0.85169600  0.97473800  0.00621400  1
  C  C6  1  0.99998700  0.02773200  0.00027100  1
  C  C7  1  0.83409000  0.86768400  0.01177700  1
  C  C8  1  0.96453000  0.81216100  0.01378200  1
  C  C9  1  0.11261700  0.86409300  0.00657300  1
  C  C10  1  0.13001100  0.97032100  0.99776600  1
  C  C11  1  0.94993000  0.70551600  0.02428500  1
  C  C12  1  0.08269900  0.65420400  0.03389100  1
  C  C13  1  0.22959800  0.70476100  0.02169000  1
  C  C14  1  0.24492200  0.80977500  0.00631400  1
  C  C15  1  0.16025800  0.19408000  0.99439700  1
  C  C16  1  0.17054100  0.29874100  0.97871600  1
  C  C17  1  0.03677600  0.34769000  0.96659600  1
  C  C18  1  0.89145200  0.29541900  0.97966200  1
  C  C19  1  0.79988200  0.64178200  0.01682500  1
  C  C20  1  0.75809100  0.35867600  0.98673300  1
  C  C21  1  0.32072100  0.36182700  0.98576600  1
  C  C22  1  0.36310800  0.64246900  0.01530300  1
  C  C23  1  0.54716300  0.40339200  0.46015100  1
  C  C24  1  0.55901800  0.49020600  0.40550600  1
  C  C25  1  0.57315200  0.58777600  0.44651500  1
  C  C26  1  0.57539700  0.59868900  0.54214200  1
  C  C27  1  0.56353300  0.51187800  0.59678800  1
  C  C28  1  0.54941800  0.41430800  0.55577700  1
  C  C29  1  0.55706000  0.48002300  0.30590400  1
  C  C30  1  0.56537300  0.52206800  0.69639300  1
  Br  Br1  1  0.58962700  0.70774100  0.37079000  1
  N  N1  1  0.56621300  0.52709700  0.77685300  1
  N  N2  1  0.55609700  0.47501100  0.22544200  1
  O  O1  1  0.74397800  0.59521100  0.09168200  1
  O  O2  1  0.74248200  0.62041200  0.93316200  1
  O  O3  1  0.71621100  0.40567400  0.91175300  1
  O  O4  1  0.70615200  0.38047600  0.07014900  1
  O  O5  1  0.37745300  0.40739200  0.91057400  1
  O  O6  1  0.37940700  0.38186900  0.06925600  1
  O  O7  1  0.40529600  0.59615600  0.09064000  1
  O  O8  1  0.41592500  0.62165600  0.93198000  1
