# generated using pymatgen
data_ZnH6C8NO5
_symmetry_space_group_name_H-M   'P 1'
_cell_length_a   9.98009000
_cell_length_b   11.27755700
_cell_length_c   11.91952300
_cell_angle_alpha   89.97847700
_cell_angle_beta   80.81596700
_cell_angle_gamma   92.43406700
_symmetry_Int_Tables_number   1
_chemical_formula_structural   ZnH6C8NO5
_chemical_formula_sum   'Zn2 H12 C16 N2 O10'
_cell_volume   1323.12725209
_cell_formula_units_Z   2
loop_
 _symmetry_equiv_pos_site_id
 _symmetry_equiv_pos_as_xyz
  1  'x, y, z'
loop_
 _atom_site_type_symbol
 _atom_site_label
 _atom_site_symmetry_multiplicity
 _atom_site_fract_x
 _atom_site_fract_y
 _atom_site_fract_z
 _atom_site_occupancy
  Zn  Zn1  1  0.34917000  0.52349800  0.52451000  1
  Zn  Zn2  1  0.65086900  0.47652500  0.48424900  1
  H  H1  1  0.61433800  0.10230600  0.49094700  1
  H  H2  1  0.38572200  0.89771400  0.52204400  1
  H  H3  1  0.11701700  0.42428900  0.43772500  1
  H  H4  1  0.88302700  0.57576000  0.57100200  1
  H  H5  1  0.10345900  0.61596800  0.60538000  1
  H  H6  1  0.89656900  0.38401100  0.40341900  1
  H  H7  1  0.19349800  0.17160900  0.55095600  1
  H  H8  1  0.24160700  0.03685500  0.60723000  1
  H  H9  1  0.20905100  0.10372300  0.38733500  1
  H  H10  1  0.80658500  0.82840800  0.46735300  1
  H  H11  1  0.75893400  0.96307400  0.53678400  1
  H  H12  1  0.78980500  0.89651400  0.30819100  1
  C  C1  1  0.55748700  0.72932500  0.49652300  1
  C  C2  1  0.44255300  0.27069800  0.51227700  1
  C  C3  1  0.49995600  0.50013100  0.72367200  1
  C  C4  1  0.50008400  0.49989300  0.28508700  1
  C  C5  1  0.49995700  0.50010400  0.84406200  1
  C  C6  1  0.50008100  0.49991900  0.16469700  1
  C  C7  1  0.49999100  0.50004900  0.94515300  1
  C  C8  1  0.50004700  0.49997200  0.06360700  1
  C  C9  1  0.59025400  0.85847800  0.49125600  1
  C  C10  1  0.40978400  0.14154500  0.51591300  1
  C  C11  1  0.48860900  0.93450500  0.50610300  1
  C  C12  1  0.51143700  0.06551800  0.50303800  1
  C  C13  1  0.92663300  0.50894200  0.51250800  1
  C  C14  1  0.07340800  0.49108700  0.49624000  1
  C  C15  1  0.26342600  0.09796100  0.53302700  1
  C  C16  1  0.73659200  0.90206700  0.46854700  1
  N  N1  1  0.84931700  0.44580600  0.45775800  1
  N  N2  1  0.15072200  0.55421800  0.55099600  1
  O  O1  1  0.42930800  0.69200400  0.51373300  1
  O  O2  1  0.57073200  0.30801900  0.49507400  1
  O  O3  1  0.65781700  0.65634000  0.48300600  1
  O  O4  1  0.34222200  0.34368300  0.52555100  1
  O  O5  1  0.38547300  0.51801100  0.68683700  1
  O  O6  1  0.61454000  0.48190200  0.32192500  1
  O  O7  1  0.61443500  0.48220800  0.65626700  1
  O  O8  1  0.38563100  0.51792800  0.35248800  1
  O  O9  1  0.23528200  0.03993800  0.43555900  1
  O  O10  1  0.76398900  0.96023100  0.36356100  1
