# generated using pymatgen
data_Cu3H44(C25O8)2
_symmetry_space_group_name_H-M   'P 1'
_cell_length_a   29.78385600
_cell_length_b   30.32137900
_cell_length_c   21.38658900
_cell_angle_alpha   90.00000000
_cell_angle_beta   134.11344500
_cell_angle_gamma   90.00000000
_symmetry_Int_Tables_number   1
_chemical_formula_structural   Cu3H44(C25O8)2
_chemical_formula_sum   'Cu12 H176 C200 O64'
_cell_volume   13866.71036420
_cell_formula_units_Z   4
loop_
 _symmetry_equiv_pos_site_id
 _symmetry_equiv_pos_as_xyz
  1  'x, y, z'
loop_
 _atom_site_type_symbol
 _atom_site_label
 _atom_site_symmetry_multiplicity
 _atom_site_fract_x
 _atom_site_fract_y
 _atom_site_fract_z
 _atom_site_occupancy
  Cu  Cu1  1  0.28688700  0.72038800  0.06585900  1
  Cu  Cu2  1  0.46430000  0.00006400  0.51112400  1
  Cu  Cu3  1  0.04979500  0.49966300  0.50777200  1
  Cu  Cu4  1  0.96430000  0.50006400  0.51112400  1
  Cu  Cu5  1  0.72824900  0.72038600  0.95235500  1
  Cu  Cu6  1  0.78688700  0.22038800  0.06585900  1
  Cu  Cu7  1  0.22824900  0.22038600  0.95235500  1
  Cu  Cu8  1  0.22591800  0.78242900  0.94881100  1
  Cu  Cu9  1  0.78851000  0.78202400  0.07033300  1
  Cu  Cu10  1  0.72591800  0.28242900  0.94881100  1
  Cu  Cu11  1  0.28851000  0.28202400  0.07033300  1
  Cu  Cu12  1  0.54979500  0.99966300  0.50777200  1
  H  H1  1  0.62471600  0.82326400  0.02017800  1
  H  H2  1  0.45841900  0.64550000  0.99400400  1
  H  H3  1  0.93690400  0.75333100  0.27878500  1
  H  H4  1  0.96980900  0.69858300  0.31403700  1
  H  H5  1  0.98759100  0.77043000  0.43055700  1
  H  H6  1  0.02322700  0.71610700  0.46421500  1
  H  H7  1  0.07542500  0.73413400  0.41409800  1
  H  H8  1  0.09655800  0.77257700  0.49569300  1
  H  H9  1  0.04074200  0.78864000  0.38230300  1
  H  H10  1  0.57967300  0.25630500  0.73245200  1
  H  H11  1  0.54634000  0.20165600  0.69914900  1
  H  H12  1  0.53398500  0.27002800  0.58225500  1
  H  H13  1  0.03999400  0.14523100  0.99334200  1
  H  H14  1  0.49766300  0.21597700  0.55000200  1
  H  H15  1  0.44107800  0.23770100  0.59195200  1
  H  H16  1  0.42327200  0.27404800  0.51004600  1
  H  H17  1  0.47645300  0.29193200  0.62224100  1
  H  H18  1  0.43690400  0.25333100  0.27878500  1
  H  H19  1  0.46980900  0.19858300  0.31403700  1
  H  H20  1  0.48759100  0.27043000  0.43055700  1
  H  H21  1  0.52322700  0.21610700  0.46421500  1
  H  H22  1  0.57542500  0.23413400  0.41409800  1
  H  H23  1  0.59655800  0.27257700  0.49569300  1
  H  H24  1  0.95841900  0.14550000  0.99400400  1
  H  H25  1  0.54074200  0.28864000  0.38230300  1
  H  H26  1  0.17713000  0.59191000  0.05087400  1
  H  H27  1  0.24296400  0.58950400  0.06388600  1
  H  H28  1  0.13999700  0.51816500  0.97076600  1
  H  H29  1  0.21555900  0.51330800  0.00634500  1
  H  H30  1  0.26739700  0.52345300  0.16021700  1
  H  H31  1  0.21724100  0.47543800  0.10869800  1
  H  H32  1  0.19107300  0.52466300  0.12308500  1
  H  H33  1  0.82727100  0.59158900  0.95960300  1
  H  H34  1  0.76356700  0.59277200  0.95136100  1
  H  H35  1  0.26670500  0.88254100  0.13402000  1
  H  H36  1  0.85709600  0.51554500  0.02967100  1
  H  H37  1  0.78324500  0.51484100  0.99950300  1
  H  H38  1  0.72751100  0.52878000  0.84488600  1
  H  H39  1  0.77233700  0.47817500  0.88751200  1
  H  H40  1  0.80169400  0.52637700  0.87596200  1
  H  H41  1  0.67713000  0.09191000  0.05087400  1
  H  H42  1  0.74296400  0.08950400  0.06388600  1
  H  H43  1  0.63999700  0.01816500  0.97076600  1
  H  H44  1  0.71555900  0.01330800  0.00634500  1
  H  H45  1  0.76739700  0.02345300  0.16021700  1
  H  H46  1  0.74816000  0.88249000  0.88479000  1
  H  H47  1  0.71724100  0.97543800  0.10869800  1
  H  H48  1  0.69107300  0.02466300  0.12308500  1
  H  H49  1  0.32727100  0.09158900  0.95960300  1
  H  H50  1  0.26356700  0.09277200  0.95136100  1
  H  H51  1  0.35709600  0.01554500  0.02967100  1
  H  H52  1  0.28324500  0.01484100  0.99950300  1
  H  H53  1  0.22751100  0.02878000  0.84488600  1
  H  H54  1  0.27233700  0.97817500  0.88751200  1
  H  H55  1  0.30169400  0.02637700  0.87596200  1
  H  H56  1  0.36138600  0.87006100  0.89604900  1
  H  H57  1  0.76670500  0.38254100  0.13402000  1
  H  H58  1  0.40635100  0.87170100  0.86873300  1
  H  H59  1  0.38635000  0.94614200  0.94505700  1
  H  H60  1  0.43865800  0.95007600  0.92980700  1
  H  H61  1  0.34980700  0.93556500  0.77131500  1
  H  H62  1  0.33537600  0.98327400  0.80589000  1
  H  H63  1  0.29736100  0.93149100  0.78680800  1
  H  H64  1  0.48715800  0.90786800  0.89721300  1
  H  H65  1  0.51315900  0.85741300  0.88627500  1
  H  H66  1  0.58780200  0.94328600  0.97556400  1
  H  H67  1  0.61844400  0.89334000  0.97109100  1
  H  H68  1  0.24816000  0.38249000  0.88479000  1
  H  H69  1  0.53644700  0.89585200  0.80945300  1
  H  H70  1  0.58323800  0.94548100  0.85535700  1
  H  H71  1  0.50556500  0.94606200  0.81354600  1
  H  H72  1  0.86138600  0.37006100  0.89604900  1
  H  H73  1  0.90635100  0.37170100  0.86873300  1
  H  H74  1  0.88635000  0.44614200  0.94505700  1
  H  H75  1  0.93865800  0.45007600  0.92980700  1
  H  H76  1  0.84980700  0.43556500  0.77131500  1
  H  H77  1  0.83537600  0.48327400  0.80589000  1
  H  H78  1  0.79736100  0.43149100  0.78680800  1
  H  H79  1  0.32340900  0.93847700  0.24866600  1
  H  H80  1  0.98715800  0.40786800  0.89721300  1
  H  H81  1  0.01315900  0.35741300  0.88627500  1
  H  H82  1  0.08780200  0.44328600  0.97556400  1
  H  H83  1  0.11844400  0.39334000  0.97109100  1
  H  H84  1  0.03644700  0.39585200  0.80945300  1
  H  H85  1  0.08323800  0.44548100  0.85535700  1
  H  H86  1  0.00556500  0.44606200  0.81354600  1
  H  H87  1  0.69121600  0.93866000  0.77050000  1
  H  H88  1  0.82340900  0.43847700  0.24866600  1
  H  H89  1  0.39429800  0.82434600  0.00690900  1
  H  H90  1  0.19121600  0.43866000  0.77050000  1
  H  H91  1  0.53573900  0.86854500  0.38157800  1
  H  H92  1  0.47918200  0.87071700  0.64266500  1
  H  H93  1  0.03573900  0.36854500  0.38157800  1
  H  H94  1  0.97918200  0.37071700  0.64266500  1
  H  H95  1  0.52245000  0.83764700  0.44411700  1
  H  H96  1  0.49058400  0.83948100  0.57826400  1
  H  H97  1  0.02245000  0.33764700  0.44411700  1
  H  H98  1  0.99058400  0.33948100  0.57826400  1
  H  H99  1  0.47865800  0.81197800  0.26940500  1
  H  H100  1  0.12471600  0.32326400  0.02017800  1
  H  H101  1  0.53653300  0.81390000  0.75438600  1
  H  H102  1  0.97865800  0.31197800  0.26940500  1
  H  H103  1  0.03653300  0.31390000  0.75438600  1
  H  H104  1  0.46584000  0.78083200  0.33227700  1
  H  H105  1  0.54741000  0.78243000  0.68959400  1
  H  H106  1  0.96584000  0.28083200  0.33227700  1
  H  H107  1  0.04741000  0.28243000  0.68959400  1
  H  H108  1  0.82749000  0.74682000  0.87237600  1
  H  H109  1  0.18823300  0.74549500  0.14794500  1
  H  H110  1  0.32749000  0.24682000  0.87237600  1
  H  H111  1  0.89429800  0.32434600  0.00690900  1
  H  H112  1  0.68823300  0.24549500  0.14794500  1
  H  H113  1  0.96701400  0.75062000  0.14941800  1
  H  H114  1  0.04855500  0.74997900  0.87094400  1
  H  H115  1  0.46701400  0.25062000  0.14941800  1
  H  H116  1  0.54855500  0.24997900  0.87094400  1
  H  H117  1  0.07465500  0.74847600  0.22655800  1
  H  H118  1  0.94105000  0.74855900  0.79389500  1
  H  H119  1  0.57465500  0.24847600  0.22655800  1
  H  H120  1  0.44105000  0.24855900  0.79389500  1
  H  H121  1  0.07037800  0.64586500  0.60080900  1
  H  H122  1  0.61170600  0.68358200  0.99875000  1
  H  H123  1  0.94796900  0.64550200  0.41760200  1
  H  H124  1  0.57037800  0.14586500  0.60080900  1
  H  H125  1  0.44796900  0.14550200  0.41760200  1
  H  H126  1  0.10702200  0.53636300  0.82111900  1
  H  H127  1  0.90115500  0.53387900  0.19202000  1
  H  H128  1  0.60702200  0.03636300  0.82111900  1
  H  H129  1  0.40115500  0.03387900  0.19202000  1
  H  H130  1  0.17925600  0.52574800  0.84277200  1
  H  H131  1  0.83013500  0.52538000  0.17412300  1
  H  H132  1  0.67925600  0.02574800  0.84277200  1
  H  H133  1  0.39242100  0.68433900  0.99959700  1
  H  H134  1  0.33013500  0.02538000  0.17412300  1
  H  H135  1  0.23522900  0.58302900  0.95661500  1
  H  H136  1  0.77464300  0.58280900  0.06088400  1
  H  H137  1  0.73522900  0.08302900  0.95661500  1
  H  H138  1  0.27464300  0.08280900  0.06088400  1
  H  H139  1  0.22207500  0.69090000  0.27034400  1
  H  H140  1  0.14346000  0.67961300  0.22010400  1
  H  H141  1  0.25058700  0.71541700  0.40531700  1
  H  H142  1  0.17183100  0.70389100  0.35516100  1
  H  H143  1  0.18474000  0.62525300  0.33723400  1
  H  H144  1  0.11170600  0.18358200  0.99875000  1
  H  H145  1  0.24361600  0.64224800  0.45001300  1
  H  H146  1  0.26369200  0.63676700  0.38770800  1
  H  H147  1  0.79279400  0.69237200  0.74958900  1
  H  H148  1  0.87121800  0.68042500  0.79965900  1
  H  H149  1  0.76460200  0.71684400  0.61481700  1
  H  H150  1  0.84315800  0.70463500  0.66479900  1
  H  H151  1  0.82903100  0.62618200  0.68196800  1
  H  H152  1  0.77039900  0.64349100  0.56936100  1
  H  H153  1  0.75027700  0.63838100  0.63165700  1
  H  H154  1  0.72207500  0.19090000  0.27034400  1
  H  H155  1  0.89242100  0.18433900  0.99959700  1
  H  H156  1  0.64346000  0.17961300  0.22010400  1
  H  H157  1  0.75058700  0.21541700  0.40531700  1
  H  H158  1  0.67183100  0.20389100  0.35516100  1
  H  H159  1  0.68474000  0.12525300  0.33723400  1
  H  H160  1  0.74361600  0.14224800  0.45001300  1
  H  H161  1  0.76369200  0.13676700  0.38770800  1
  H  H162  1  0.29279400  0.19237200  0.74958900  1
  H  H163  1  0.37121800  0.18042500  0.79965900  1
  H  H164  1  0.26460200  0.21684400  0.61481700  1
  H  H165  1  0.34315800  0.20463500  0.66479900  1
  H  H166  1  0.53999400  0.64523100  0.99334200  1
  H  H167  1  0.32903100  0.12618200  0.68196800  1
  H  H168  1  0.27039900  0.14349100  0.56936100  1
  H  H169  1  0.25027700  0.13838100  0.63165700  1
  H  H170  1  0.07967300  0.75630500  0.73245200  1
  H  H171  1  0.04634000  0.70165600  0.69914900  1
  H  H172  1  0.03398500  0.77002800  0.58225500  1
  H  H173  1  0.99766300  0.71597700  0.55000200  1
  H  H174  1  0.94107800  0.73770100  0.59195200  1
  H  H175  1  0.92327200  0.77404800  0.51004600  1
  H  H176  1  0.97645300  0.79193200  0.62224100  1
  C  C1  1  0.31451600  0.80897800  0.12639700  1
  C  C2  1  0.81789800  0.69328100  0.13022300  1
  C  C3  1  0.53111100  0.24664000  0.01037500  1
  C  C4  1  0.92239600  0.74645900  0.93218100  1
  C  C5  1  0.09330400  0.74578100  0.08824500  1
  C  C6  1  0.42239600  0.24645900  0.93218100  1
  C  C7  1  0.59330400  0.24578100  0.08824500  1
  C  C8  1  0.06225400  0.74756700  0.16556600  1
  C  C9  1  0.95343600  0.74768300  0.85487600  1
  C  C10  1  0.56225400  0.24756700  0.16556600  1
  C  C11  1  0.45343600  0.24768300  0.85487600  1
  C  C12  1  0.10881700  0.74534700  0.16619400  1
  C  C13  1  0.69673500  0.19390100  0.88762300  1
  C  C14  1  0.90685900  0.74595000  0.85422500  1
  C  C15  1  0.60881700  0.24534700  0.16619400  1
  C  C16  1  0.40685900  0.24595000  0.85422500  1
  C  C17  1  0.16037600  0.61723500  0.83564900  1
  C  C18  1  0.85225500  0.61625900  0.18117100  1
  C  C19  1  0.66037600  0.11723500  0.83564900  1
  C  C20  1  0.35225500  0.11625900  0.18117100  1
  C  C21  1  0.16115100  0.66065000  0.81784900  1
  C  C22  1  0.85351000  0.65990700  0.19966800  1
  C  C23  1  0.66115100  0.16065000  0.81784900  1
  C  C24  1  0.31789800  0.19328100  0.13022300  1
  C  C25  1  0.35351000  0.15990700  0.19966800  1
  C  C26  1  0.12552700  0.67094800  0.73031100  1
  C  C27  1  0.89123600  0.67037800  0.28764900  1
  C  C28  1  0.62552700  0.17094800  0.73031100  1
  C  C29  1  0.39123600  0.17037800  0.28764900  1
  C  C30  1  0.09674300  0.63751300  0.66784100  1
  C  C31  1  0.91990800  0.63698300  0.35012100  1
  C  C32  1  0.59674300  0.13751300  0.66784100  1
  C  C33  1  0.41990800  0.13698300  0.35012100  1
  C  C34  1  0.09852500  0.59418500  0.68985500  1
  C  C35  1  0.17233500  0.74895300  0.00897100  1
  C  C36  1  0.91578000  0.59337700  0.32741500  1
  C  C37  1  0.59852500  0.09418500  0.68985500  1
  C  C38  1  0.41578000  0.09337700  0.32741500  1
  C  C39  1  0.12972100  0.58620000  0.77469800  1
  C  C40  1  0.88267600  0.58509500  0.24189000  1
  C  C41  1  0.62972100  0.08620000  0.77469800  1
  C  C42  1  0.38267600  0.08509500  0.24189000  1
  C  C43  1  0.14773900  0.54997700  0.83492900  1
  C  C44  1  0.86188600  0.54865000  0.18056300  1
  C  C45  1  0.64773900  0.04997700  0.83492900  1
  C  C46  1  0.84305700  0.74975100  0.01086400  1
  C  C47  1  0.36188600  0.04865000  0.18056300  1
  C  C48  1  0.18360900  0.58637500  0.90686200  1
  C  C49  1  0.82633000  0.58523000  0.10901900  1
  C  C50  1  0.68360900  0.08637500  0.90686200  1
  C  C51  1  0.32633000  0.08523000  0.10901900  1
  C  C52  1  0.94804100  0.55847800  0.39272300  1
  C  C53  1  0.06586500  0.55922400  0.62467100  1
  C  C54  1  0.44804100  0.05847800  0.39272300  1
  C  C55  1  0.56586500  0.05922400  0.62467100  1
  C  C56  1  0.44778400  0.94081200  0.39362700  1
  C  C57  1  0.67233500  0.24895300  0.00897100  1
  C  C58  1  0.56649700  0.94155700  0.62677600  1
  C  C59  1  0.94778400  0.44081200  0.39362700  1
  C  C60  1  0.06649700  0.44155700  0.62677600  1
  C  C61  1  0.18514900  0.70067300  0.26820800  1
  C  C62  1  0.20886000  0.69435300  0.35738300  1
  C  C63  1  0.22635300  0.64648300  0.38475500  1
  C  C64  1  0.82984800  0.70178100  0.75178100  1
  C  C65  1  0.80600000  0.69547500  0.66252000  1
  C  C66  1  0.78775100  0.64771800  0.63467500  1
  C  C67  1  0.68514900  0.20067300  0.26820800  1
  C  C68  1  0.34305700  0.24975100  0.01086400  1
  C  C69  1  0.70886000  0.19435300  0.35738300  1
  C  C70  1  0.72635300  0.14648300  0.38475500  1
  C  C71  1  0.32984800  0.20178100  0.75178100  1
  C  C72  1  0.30600000  0.19547500  0.66252000  1
  C  C73  1  0.28775100  0.14771800  0.63467500  1
  C  C74  1  0.06517100  0.72860000  0.68783200  1
  C  C75  1  0.01454300  0.74423200  0.59456500  1
  C  C76  1  0.96032600  0.76321700  0.57883400  1
  C  C77  1  0.95255100  0.72663900  0.32573700  1
  C  C78  1  0.00531100  0.74347200  0.41754100  1
  C  C79  1  0.60229400  0.79321200  0.01305800  1
  C  C80  1  0.05790800  0.76083300  0.42792800  1
  C  C81  1  0.56517100  0.22860000  0.68783200  1
  C  C82  1  0.51454300  0.24423200  0.59456500  1
  C  C83  1  0.46032600  0.26321700  0.57883400  1
  C  C84  1  0.45255100  0.22663900  0.32573700  1
  C  C85  1  0.50531100  0.24347200  0.41754100  1
  C  C86  1  0.55790800  0.26083300  0.42792800  1
  C  C87  1  0.19386600  0.57842500  0.02191000  1
  C  C88  1  0.18975800  0.52838400  0.02090200  1
  C  C89  1  0.21826700  0.51200500  0.10910300  1
  C  C90  1  0.41066500  0.79411700  0.00182900  1
  C  C91  1  0.81082900  0.57876300  0.98934100  1
  C  C92  1  0.80870600  0.52869600  0.98350900  1
  C  C93  1  0.77535200  0.51467400  0.89189100  1
  C  C94  1  0.69386600  0.07842500  0.02191000  1
  C  C95  1  0.68975800  0.02838400  0.02090200  1
  C  C96  1  0.71826700  0.01200500  0.10910300  1
  C  C97  1  0.31082900  0.07876300  0.98934100  1
  C  C98  1  0.30870600  0.02869600  0.98350900  1
  C  C99  1  0.27535200  0.01467400  0.89189100  1
  C  C100  1  0.40316200  0.88461100  0.91396000  1
  C  C101  1  0.10229400  0.29321200  0.01305800  1
  C  C102  1  0.39538100  0.93433200  0.90557100  1
  C  C103  1  0.34086500  0.94691100  0.81112600  1
  C  C104  1  0.52807700  0.88652000  0.92828200  1
  C  C105  1  0.57553300  0.91305300  0.93718900  1
  C  C106  1  0.54828600  0.92592900  0.84794000  1
  C  C107  1  0.90316200  0.38461100  0.91396000  1
  C  C108  1  0.89538100  0.43433200  0.90557100  1
  C  C109  1  0.84086500  0.44691100  0.81112600  1
  C  C110  1  0.02807700  0.38652000  0.92828200  1
  C  C111  1  0.07553300  0.41305300  0.93718900  1
  C  C112  1  0.70030000  0.80928400  0.89321900  1
  C  C113  1  0.91066500  0.29411700  0.00182900  1
  C  C114  1  0.04828600  0.42592900  0.84794000  1
  C  C115  1  0.62321400  0.75364000  0.00920300  1
  C  C116  1  0.38803300  0.75456200  0.00252700  1
  C  C117  1  0.12321400  0.25364000  0.00920300  1
  C  C118  1  0.88803300  0.25456200  0.00252700  1
  C  C119  1  0.59526400  0.71484900  0.00061700  1
  C  C120  1  0.41026200  0.71547800  0.99999700  1
  C  C121  1  0.09526400  0.21484900  0.00061700  1
  C  C122  1  0.91026200  0.21547800  0.99999700  1
  C  C123  1  0.54773400  0.71554400  0.99791300  1
  C  C124  1  0.81451600  0.30897800  0.12639700  1
  C  C125  1  0.45501300  0.71586700  0.99714100  1
  C  C126  1  0.04773400  0.21554400  0.99791300  1
  C  C127  1  0.95501300  0.21586700  0.99714100  1
  C  C128  1  0.52540900  0.75518300  0.99898000  1
  C  C129  1  0.47819200  0.75536400  0.99722800  1
  C  C130  1  0.02540900  0.25518300  0.99898000  1
  C  C131  1  0.97819200  0.25536400  0.99722800  1
  C  C132  1  0.55158500  0.79436000  0.00433300  1
  C  C133  1  0.45533300  0.79479300  0.99799600  1
  C  C134  1  0.05158500  0.29436000  0.00433300  1
  C  C135  1  0.20030000  0.30928400  0.89321900  1
  C  C136  1  0.95533300  0.29479300  0.99799600  1
  C  C137  1  0.52279100  0.67629900  0.99450900  1
  C  C138  1  0.47684800  0.67645000  0.99485600  1
  C  C139  1  0.02279100  0.17629900  0.99450900  1
  C  C140  1  0.97684800  0.17645000  0.99485600  1
  C  C141  1  0.47820900  0.83444200  0.99676500  1
  C  C142  1  0.52696500  0.83429700  0.00101900  1
  C  C143  1  0.97820900  0.33444200  0.99676500  1
  C  C144  1  0.02696500  0.33429700  0.00101900  1
  C  C145  1  0.41068200  0.84002800  0.26689400  1
  C  C146  1  0.34035100  0.75379800  0.00542100  1
  C  C147  1  0.60365600  0.84124600  0.75458100  1
  C  C148  1  0.91068200  0.34002800  0.26689400  1
  C  C149  1  0.10365600  0.34124600  0.75458100  1
  C  C150  1  0.34761100  0.84244000  0.19480900  1
  C  C151  1  0.66699300  0.84309400  0.82546300  1
  C  C152  1  0.84761100  0.34244000  0.19480900  1
  C  C153  1  0.16699300  0.34309400  0.82546300  1
  C  C154  1  0.31651800  0.87881500  0.18900000  1
  C  C155  1  0.69815500  0.87920100  0.83066200  1
  C  C156  1  0.81651800  0.37881500  0.18900000  1
  C  C157  1  0.67355100  0.75265900  0.01158100  1
  C  C158  1  0.19815500  0.37920100  0.83066200  1
  C  C159  1  0.34878200  0.91058600  0.25464300  1
  C  C160  1  0.66573400  0.91110200  0.76524300  1
  C  C161  1  0.84878200  0.41058600  0.25464300  1
  C  C162  1  0.16573400  0.41110200  0.76524300  1
  C  C163  1  0.41296700  0.90724100  0.32543800  1
  C  C164  1  0.60135400  0.90819100  0.69539500  1
  C  C165  1  0.91296700  0.40724100  0.32543800  1
  C  C166  1  0.10135400  0.40819100  0.69539500  1
  C  C167  1  0.44177000  0.87111800  0.32771900  1
  C  C168  1  0.84035100  0.25379800  0.00542100  1
  C  C169  1  0.57245500  0.87248200  0.69406600  1
  C  C170  1  0.94177000  0.37111800  0.32771900  1
  C  C171  1  0.07245500  0.37248200  0.69406600  1
  C  C172  1  0.50346000  0.84935700  0.38040100  1
  C  C173  1  0.51059800  0.85119400  0.64252800  1
  C  C174  1  0.00346000  0.34935700  0.38040100  1
  C  C175  1  0.01059800  0.35119400  0.64252800  1
  C  C176  1  0.46696000  0.81294100  0.30856400  1
  C  C177  1  0.54724700  0.81462100  0.71404400  1
  C  C178  1  0.96696000  0.31294100  0.30856400  1
  C  C179  1  0.17355100  0.25265900  0.01158100  1
  C  C180  1  0.04724700  0.31462100  0.71404400  1
  C  C181  1  0.87622800  0.74682200  0.93276900  1
  C  C182  1  0.13947400  0.74573400  0.08760400  1
  C  C183  1  0.37622800  0.24682200  0.93276900  1
  C  C184  1  0.63947400  0.24573400  0.08760400  1
  C  C185  1  0.89204600  0.74876000  0.01061600  1
  C  C186  1  0.12359300  0.74772600  0.00970100  1
  C  C187  1  0.39204600  0.24876000  0.01061600  1
  C  C188  1  0.62359300  0.24772600  0.00970100  1
  C  C189  1  0.95418300  0.74967300  0.08812100  1
  C  C190  1  0.19673500  0.69390100  0.88762300  1
  C  C191  1  0.06145600  0.74896100  0.93228400  1
  C  C192  1  0.45418300  0.24967300  0.08812100  1
  C  C193  1  0.56145600  0.24896100  0.93228400  1
  C  C194  1  0.00029400  0.74803900  0.08781300  1
  C  C195  1  0.01538200  0.74772400  0.93263600  1
  C  C196  1  0.50029400  0.24803900  0.08781300  1
  C  C197  1  0.51538200  0.24772400  0.93263600  1
  C  C198  1  0.98458200  0.74689400  0.01007900  1
  C  C199  1  0.03111100  0.74664000  0.01037500  1
  C  C200  1  0.48458200  0.24689400  0.01007900  1
  O  O1  1  0.33907000  0.76902600  0.14596900  1
  O  O2  1  0.67838800  0.71731300  0.98040600  1
  O  O3  1  0.83613300  0.21815800  0.03673800  1
  O  O4  1  0.17838800  0.21731300  0.98040600  1
  O  O5  1  0.30303600  0.78834200  0.97528900  1
  O  O6  1  0.71099100  0.78724700  0.04298900  1
  O  O7  1  0.80303600  0.28834200  0.97528900  1
  O  O8  1  0.21099100  0.28724700  0.04298900  1
  O  O9  1  0.22495800  0.68157900  0.96723600  1
  O  O10  1  0.79004700  0.68134700  0.05059100  1
  O  O11  1  0.72495800  0.18157900  0.96723600  1
  O  O12  1  0.67605900  0.76918800  0.87279300  1
  O  O13  1  0.29004700  0.18134700  0.05059100  1
  O  O14  1  0.19985300  0.73451800  0.86837600  1
  O  O15  1  0.81444500  0.73366600  0.14990100  1
  O  O16  1  0.69985300  0.23451800  0.86837600  1
  O  O17  1  0.31444500  0.23366600  0.14990100  1
  O  O18  1  0.22796000  0.73243100  0.07642800  1
  O  O19  1  0.78762900  0.73321400  0.94293100  1
  O  O20  1  0.72796000  0.23243100  0.07642800  1
  O  O21  1  0.28762900  0.23321400  0.94293100  1
  O  O22  1  0.15844100  0.76671800  0.94078800  1
  O  O23  1  0.83907000  0.26902600  0.14596900  1
  O  O24  1  0.85649600  0.76706800  0.07902500  1
  O  O25  1  0.65844100  0.26671800  0.94078800  1
  O  O26  1  0.35649600  0.26706800  0.07902500  1
  O  O27  1  0.98885300  0.53409200  0.40129100  1
  O  O28  1  0.02514800  0.53510100  0.61672500  1
  O  O29  1  0.48885300  0.03409200  0.40129100  1
  O  O30  1  0.52514800  0.03510100  0.61672500  1
  O  O31  1  0.93615700  0.55371700  0.44157800  1
  O  O32  1  0.07778100  0.55382300  0.57596200  1
  O  O33  1  0.43615700  0.05371700  0.44157800  1
  O  O34  1  0.17605900  0.26918800  0.87279300  1
  O  O35  1  0.57778100  0.05382300  0.57596200  1
  O  O36  1  0.50810700  0.94565900  0.44003200  1
  O  O37  1  0.50615200  0.94643200  0.58022400  1
  O  O38  1  0.00810700  0.44565900  0.44003200  1
  O  O39  1  0.00615200  0.44643200  0.58022400  1
  O  O40  1  0.41700500  0.96502100  0.40504600  1
  O  O41  1  0.59718600  0.96536000  0.61472100  1
  O  O42  1  0.91700500  0.46502100  0.40504600  1
  O  O43  1  0.09718600  0.46536000  0.61472100  1
  O  O44  1  0.17006000  0.74504400  0.24421500  1
  O  O45  1  0.26148000  0.82049800  0.04779100  1
  O  O46  1  0.84561400  0.74606000  0.77619800  1
  O  O47  1  0.67006000  0.24504400  0.24421500  1
  O  O48  1  0.34561400  0.24606000  0.77619800  1
  O  O49  1  0.11683900  0.71377200  0.70361800  1
  O  O50  1  0.90239200  0.71331900  0.31474200  1
  O  O51  1  0.61683900  0.21377200  0.70361800  1
  O  O52  1  0.40239200  0.21331900  0.31474200  1
  O  O53  1  0.15517100  0.59514200  0.93702800  1
  O  O54  1  0.85338400  0.59260100  0.07646600  1
  O  O55  1  0.65517100  0.09514200  0.93702800  1
  O  O56  1  0.75318900  0.82063100  0.97209500  1
  O  O57  1  0.35338400  0.09260100  0.07646600  1
  O  O58  1  0.45719200  0.87381300  0.00010200  1
  O  O59  1  0.55462500  0.87351500  0.01109200  1
  O  O60  1  0.95719200  0.37381300  0.00010200  1
  O  O61  1  0.05462500  0.37351500  0.01109200  1
  O  O62  1  0.76148000  0.32049800  0.04779100  1
  O  O63  1  0.25318900  0.32063100  0.97209500  1
  O  O64  1  0.33613300  0.71815800  0.03673800  1
