# generated using pymatgen
data_Cu3H18C30O29
_symmetry_space_group_name_H-M   'P 1'
_cell_length_a   30.37914200
_cell_length_b   21.52294800
_cell_length_c   21.50654600
_cell_angle_alpha   90.00000000
_cell_angle_beta   134.93281300
_cell_angle_gamma   90.00000000
_symmetry_Int_Tables_number   1
_chemical_formula_structural   Cu3H18C30O29
_chemical_formula_sum   'Cu12 H72 C120 O116'
_cell_volume   9955.00773267
_cell_formula_units_Z   4
loop_
 _symmetry_equiv_pos_site_id
 _symmetry_equiv_pos_as_xyz
  1  'x, y, z'
loop_
 _atom_site_type_symbol
 _atom_site_label
 _atom_site_symmetry_multiplicity
 _atom_site_fract_x
 _atom_site_fract_y
 _atom_site_fract_z
 _atom_site_occupancy
  Cu  Cu1  1  0.99966500  0.50075600  0.06278200  1
  Cu  Cu2  1  0.49981800  0.43968700  0.49861700  1
  Cu  Cu3  1  0.00074200  0.06116100  0.49977600  1
  Cu  Cu4  1  0.99989300  0.93727300  0.49870600  1
  Cu  Cu5  1  0.50021800  0.00013000  0.06303600  1
  Cu  Cu6  1  0.00017000  0.49962500  0.93933900  1
  Cu  Cu7  1  0.50038500  0.99975700  0.93921500  1
  Cu  Cu8  1  0.93789400  0.99993200  0.93807200  1
  Cu  Cu9  1  0.43764800  0.49987000  0.93782800  1
  Cu  Cu10  1  0.06182600  0.00057400  0.06090000  1
  Cu  Cu11  1  0.56161500  0.50023800  0.06098300  1
  Cu  Cu12  1  0.49999500  0.56357700  0.49935700  1
  H  H1  1  0.08555200  0.93366000  0.29701000  1
  H  H2  1  0.74877400  0.01386400  0.39216600  1
  H  H3  1  0.74795600  0.45400400  0.61228300  1
  H  H4  1  0.24847400  0.98072000  0.60631900  1
  H  H5  1  0.75453100  0.59359700  0.64466900  1
  H  H6  1  0.75241500  0.35964500  0.72753300  1
  H  H7  1  0.25337400  0.11276500  0.66635000  1
  H  H8  1  0.25471400  0.86539900  0.70171900  1
  H  H9  1  0.74810800  0.64271900  0.77312000  1
  H  H10  1  0.74501200  0.40919100  0.85579200  1
  H  H11  1  0.24646700  0.13197000  0.80087500  1
  H  H12  1  0.01686900  0.10632800  0.22910300  1
  H  H13  1  0.24729900  0.88490600  0.83578100  1
  H  H14  1  0.75096400  0.54867700  0.88697100  1
  H  H15  1  0.25110100  0.01803800  0.89423400  1
  H  H16  1  0.64290100  0.50081000  0.88906800  1
  H  H17  1  0.14132900  0.02025200  0.88730400  1
  H  H18  1  0.04985300  0.13381600  0.80108300  1
  H  H19  1  0.08786000  0.88644300  0.84099700  1
  H  H20  1  0.56889200  0.62597400  0.82199500  1
  H  H21  1  0.57023000  0.37550800  0.82195700  1
  H  H22  1  0.42766400  0.62515500  0.67513100  1
  H  H23  1  0.57170200  0.42105900  0.28447700  1
  H  H24  1  0.42867700  0.37507500  0.67473200  1
  H  H25  1  0.90981500  0.11211300  0.65534500  1
  H  H26  1  0.94793700  0.86504700  0.69564300  1
  H  H27  1  0.85675300  0.97832900  0.60817800  1
  H  H28  1  0.35524500  0.49973500  0.60674300  1
  H  H29  1  0.64136800  0.52393500  0.39632800  1
  H  H30  1  0.13629800  0.04587700  0.39117200  1
  H  H31  1  0.13010200  0.74693700  0.06785600  1
  H  H32  1  0.12234100  0.25354600  0.04885600  1
  H  H33  1  0.62435000  0.24692200  0.05211000  1
  H  H34  1  0.53475700  0.60314100  0.24588400  1
  H  H35  1  0.62755600  0.75238500  0.06226500  1
  H  H36  1  0.45669400  0.36466700  0.20993800  1
  H  H37  1  0.40617300  0.61072900  0.15793500  1
  H  H38  1  0.98232800  0.85732400  0.23354200  1
  H  H39  1  0.88784800  0.08889400  0.14106100  1
  H  H40  1  0.86700100  0.94777000  0.11284600  1
  H  H41  1  0.35922200  0.47340500  0.10550300  1
  H  H42  1  0.11947700  0.75331300  0.19962100  1
  H  H43  1  0.12685800  0.24688600  0.19514100  1
  H  H44  1  0.62547800  0.25275500  0.19600000  1
  H  H45  1  0.01088300  0.75305300  0.86732000  1
  H  H46  1  0.62152800  0.74595000  0.19863700  1
  H  H47  1  0.98966000  0.74870200  0.13302500  1
  H  H48  1  0.00430100  0.25136400  0.14973100  1
  H  H49  1  0.50094700  0.24806800  0.14514500  1
  H  H50  1  0.49407800  0.75134800  0.13874400  1
  H  H51  1  0.87045300  0.75295000  0.93262900  1
  H  H52  1  0.87685000  0.24707200  0.95385100  1
  H  H53  1  0.37583700  0.25275200  0.94906800  1
  H  H54  1  0.37191200  0.74782000  0.93915500  1
  H  H55  1  0.88096300  0.74691300  0.80079000  1
  H  H56  1  0.99566600  0.24816300  0.85357600  1
  H  H57  1  0.87203300  0.25381300  0.80762600  1
  H  H58  1  0.37448000  0.24689400  0.80500100  1
  H  H59  1  0.37752500  0.75416900  0.80302200  1
  H  H60  1  0.25269900  0.46521900  0.11418400  1
  H  H61  1  0.75306500  0.98739800  0.10991600  1
  H  H62  1  0.24780000  0.36238300  0.21161000  1
  H  H63  1  0.24541900  0.60367400  0.14525500  1
  H  H64  1  0.74696300  0.86933300  0.18834600  1
  H  H65  1  0.74699800  0.11803000  0.16435100  1
  H  H66  1  0.25448200  0.39960500  0.35687000  1
  H  H67  1  0.49947300  0.25313400  0.85604100  1
  H  H68  1  0.25141100  0.64036800  0.28870700  1
  H  H69  1  0.75345900  0.88322100  0.33679400  1
  H  H70  1  0.75334900  0.13153600  0.31265000  1
  H  H71  1  0.50595100  0.74747900  0.86315700  1
  H  H72  1  0.24818500  0.53759000  0.38817600  1
  C  C1  1  0.11919600  0.50023700  0.12053700  1
  C  C2  1  0.04812900  0.27062700  0.01971700  1
  C  C3  1  0.97816100  0.94601600  0.70743100  1
  C  C4  1  0.94231700  0.99094300  0.71190300  1
  C  C5  1  0.44172000  0.50003900  0.71145100  1
  C  C6  1  0.99872300  0.99984900  0.80980500  1
  C  C7  1  0.49880900  0.50004100  0.81006000  1
  C  C8  1  0.04679300  0.96331000  0.27495300  1
  C  C9  1  0.00912800  0.05809100  0.23776300  1
  C  C10  1  0.53880700  0.45731600  0.26778100  1
  C  C11  1  0.51854100  0.55725200  0.24663500  1
  C  C12  1  0.55482300  0.51299200  0.32416800  1
  C  C13  1  0.54929900  0.22970300  0.02067000  1
  C  C14  1  0.05285000  0.02046200  0.32206900  1
  C  C15  1  0.49909500  0.50203500  0.30966800  1
  C  C16  1  0.00013500  0.99928100  0.31054400  1
  C  C17  1  0.48176800  0.44774600  0.25143300  1
  C  C18  1  0.46206400  0.54452900  0.23096800  1
  C  C19  1  0.99252300  0.94326800  0.26136800  1
  C  C20  1  0.95599400  0.03505900  0.22535300  1
  C  C21  1  0.94802300  0.97894100  0.17689600  1
  C  C22  1  0.44435600  0.49020800  0.17343500  1
  C  C23  1  0.00114500  0.00020000  0.18935000  1
  C  C24  1  0.55049400  0.77003200  0.02493800  1
  C  C25  1  0.50049000  0.50117900  0.18884300  1
  C  C26  1  0.00446600  0.77042500  0.94737100  1
  C  C27  1  0.99767900  0.23026100  0.94212900  1
  C  C28  1  0.49953300  0.27033700  0.94282100  1
  C  C29  1  0.50194600  0.72988100  0.94570900  1
  C  C30  1  0.00023400  0.81200700  0.00007200  1
  C  C31  1  0.99947000  0.18843800  0.00074800  1
  C  C32  1  0.50005200  0.31178900  0.00050700  1
  C  C33  1  0.61956100  0.00063900  0.12026400  1
  C  C34  1  0.49928500  0.68820300  0.99996300  1
  C  C35  1  0.04748000  0.77067800  0.07951900  1
  C  C36  1  0.04994000  0.22962400  0.07838500  1
  C  C37  1  0.54979900  0.27036700  0.07832800  1
  C  C38  1  0.54786000  0.72915100  0.07924500  1
  C  C39  1  0.99602400  0.73015400  0.05315800  1
  C  C40  1  0.00145800  0.27008600  0.06053700  1
  C  C41  1  0.50055100  0.22978400  0.05824800  1
  C  C42  1  0.49752600  0.76995100  0.05582000  1
  C  C43  1  0.94874900  0.77060600  0.97366900  1
  C  C44  1  0.00038800  0.61940100  0.00098200  1
  C  C45  1  0.95099400  0.22971900  0.98291100  1
  C  C46  1  0.45079500  0.27034600  0.98040500  1
  C  C47  1  0.44894300  0.72983400  0.97652600  1
  C  C48  1  0.95296900  0.72980600  0.92098400  1
  C  C49  1  0.94921700  0.27075200  0.92425000  1
  C  C50  1  0.45028500  0.22967200  0.92273400  1
  C  C51  1  0.45159300  0.77073900  0.92224000  1
  C  C52  1  0.00023400  0.68848500  0.00045600  1
  C  C53  1  0.99966800  0.31193500  0.00188300  1
  C  C54  1  0.50004400  0.18826100  0.00058100  1
  C  C55  1  0.00004500  0.38099100  0.00177400  1
  C  C56  1  0.50017200  0.81169100  0.00153500  1
  C  C57  1  0.23003100  0.44602200  0.21610400  1
  C  C58  1  0.22906300  0.54165100  0.18973300  1
  C  C59  1  0.72991300  0.94856700  0.20650200  1
  C  C60  1  0.72994800  0.04706000  0.19715100  1
  C  C61  1  0.27008700  0.48679500  0.21548700  1
  C  C62  1  0.77047200  0.99504000  0.21363200  1
  C  C63  1  0.31168400  0.50190700  0.31199300  1
  C  C64  1  0.81209800  0.00047300  0.31192400  1
  C  C65  1  0.27084700  0.46110800  0.31188000  1
  C  C66  1  0.50030700  0.11917100  0.00082900  1
  C  C67  1  0.26987900  0.55673100  0.28545000  1
  C  C68  1  0.77076100  0.95399000  0.30404800  1
  C  C69  1  0.77081200  0.05248300  0.29467700  1
  C  C70  1  0.22985900  0.51589300  0.28616600  1
  C  C71  1  0.73030500  0.00597200  0.28763400  1
  C  C72  1  0.18822200  0.50081900  0.18960200  1
  C  C73  1  0.68861100  0.00055100  0.18927300  1
  C  C74  1  0.77086400  0.53796600  0.72767000  1
  C  C75  1  0.76997400  0.44486700  0.76029600  1
  C  C76  1  0.27060300  0.04404500  0.73635400  1
  C  C77  1  0.50077900  0.88075300  0.00195700  1
  C  C78  1  0.27112300  0.94602300  0.75027400  1
  C  C79  1  0.73002100  0.48190900  0.67633100  1
  C  C80  1  0.23048700  0.99087500  0.67433300  1
  C  C81  1  0.68812200  0.50154300  0.68785000  1
  C  C82  1  0.18852700  0.99834200  0.68876100  1
  C  C83  1  0.72976500  0.55757200  0.73999400  1
  C  C84  1  0.72885600  0.46448600  0.77264600  1
  C  C85  1  0.22945900  0.05151400  0.75158700  1
  C  C86  1  0.22992100  0.95349800  0.76551300  1
  C  C87  1  0.76968000  0.52046200  0.82397500  1
  C  C88  1  0.88064900  0.50043500  0.88161800  1
  C  C89  1  0.27002400  0.00662800  0.82750100  1
  C  C90  1  0.81161100  0.50086600  0.81245600  1
  C  C91  1  0.31202400  0.99918600  0.81309500  1
  C  C92  1  0.99909400  0.00032300  0.87936600  1
  C  C93  1  0.49910700  0.49961100  0.87955500  1
  C  C94  1  0.00001000  0.88106800  0.00027300  1
  C  C95  1  0.99973300  0.11940100  0.00071900  1
  C  C96  1  0.49993300  0.38085600  0.00079100  1
  C  C97  1  0.49935400  0.61917900  0.00001800  1
  C  C98  1  0.00061100  0.00006100  0.11962100  1
  C  C99  1  0.38106600  0.99992000  0.88202900  1
  C  C100  1  0.50014100  0.50007500  0.11928400  1
  C  C101  1  0.49910300  0.50211500  0.37888200  1
  C  C102  1  0.00017300  0.99937300  0.37978300  1
  C  C103  1  0.38069100  0.50181300  0.38073000  1
  C  C104  1  0.88110800  0.00001800  0.38091300  1
  C  C105  1  0.49890100  0.50108500  0.61729200  1
  C  C106  1  0.99911000  0.99901700  0.61734300  1
  C  C107  1  0.61910300  0.50149400  0.61858700  1
  C  C108  1  0.11950000  0.99846800  0.61957500  1
  C  C109  1  0.01974300  0.05271100  0.78893200  1
  C  C110  1  0.05172400  0.72986400  0.02683000  1
  C  C111  1  0.03455100  0.95492300  0.80447100  1
  C  C112  1  0.52732500  0.54983900  0.79733600  1
  C  C113  1  0.52772200  0.45093500  0.79718000  1
  C  C114  1  0.55620200  0.50073000  0.78521600  1
  C  C115  1  0.05552400  0.00783500  0.78436000  1
  C  C116  1  0.49910800  0.50073700  0.68666700  1
  C  C117  1  0.99912400  0.99891900  0.68652100  1
  C  C118  1  0.47021800  0.54984200  0.69956900  1
  C  C119  1  0.47062300  0.45092700  0.69942000  1
  C  C120  1  0.96330200  0.04381900  0.69186000  1
  O  O1  1  0.09005800  0.50344200  0.14484900  1
  O  O2  1  0.99743100  0.40935300  0.94530600  1
  O  O3  1  0.89883800  0.20870100  0.96311400  1
  O  O4  1  0.39793200  0.29119400  0.95884600  1
  O  O5  1  0.39442900  0.70926200  0.95053900  1
  O  O6  1  0.90225800  0.70861300  0.83603400  1
  O  O7  1  0.89523100  0.29204400  0.84156300  1
  O  O8  1  0.39691800  0.20856500  0.83937100  1
  O  O9  1  0.39997500  0.79229200  0.83802400  1
  O  O10  1  0.29110500  0.47132100  0.17712200  1
  O  O11  1  0.79147300  0.98924100  0.17353100  1
  O  O12  1  0.20928500  0.38671600  0.17967800  1
  O  O13  1  0.49765000  0.09010100  0.94468500  1
  O  O14  1  0.20731900  0.58487100  0.12493400  1
  O  O15  1  0.70866300  0.89286800  0.15998300  1
  O  O16  1  0.70869300  0.09696000  0.14051000  1
  O  O17  1  0.29259000  0.41793300  0.37672400  1
  O  O18  1  0.29013300  0.61618000  0.32155200  1
  O  O19  1  0.79184400  0.90407100  0.36060400  1
  O  O20  1  0.79177900  0.10825700  0.34103400  1
  O  O21  1  0.49841100  0.90943700  0.94580700  1
  O  O22  1  0.90931100  0.50313800  0.96398100  1
  O  O23  1  0.40984800  0.99770800  0.96445700  1
  O  O24  1  0.90973500  0.49746400  0.85708500  1
  O  O25  1  0.40998700  0.99703300  0.85724200  1
  O  O26  1  0.94564500  0.99751200  0.85535300  1
  O  O27  1  0.44559800  0.50254300  0.85533700  1
  O  O28  1  0.05292300  0.00329200  0.96167200  1
  O  O29  1  0.59059700  0.99787000  0.14485700  1
  O  O30  1  0.55292700  0.50195000  0.96192300  1
  O  O31  1  0.94627100  0.90962900  0.94396500  1
  O  O32  1  0.94628000  0.09026700  0.94424400  1
  O  O33  1  0.44636200  0.40959200  0.94388400  1
  O  O34  1  0.44572800  0.59023000  0.94390400  1
  O  O35  1  0.05343100  0.91024100  0.05008200  1
  O  O36  1  0.05343500  0.09088800  0.05051200  1
  O  O37  1  0.55339700  0.40988300  0.05114400  1
  O  O38  1  0.55303100  0.59052000  0.04956700  1
  O  O39  1  0.94689300  0.99726100  0.03737500  1
  O  O40  1  0.09050000  0.49678000  0.03828800  1
  O  O41  1  0.44644300  0.50191300  0.03696100  1
  O  O42  1  0.05397000  0.00293100  0.14351400  1
  O  O43  1  0.55354900  0.50320500  0.14335000  1
  O  O44  1  0.50257100  0.55561500  0.41147500  1
  O  O45  1  0.50187500  0.44841200  0.41031800  1
  O  O46  1  0.00329800  0.05295400  0.41190200  1
  O  O47  1  0.00256100  0.94573800  0.41100500  1
  O  O48  1  0.40962100  0.55527400  0.40661300  1
  O  O49  1  0.40944500  0.44824300  0.40637100  1
  O  O50  1  0.91032200  0.05332200  0.40700600  1
  O  O51  1  0.59076700  0.99781800  0.03794000  1
  O  O52  1  0.90958500  0.94632700  0.40600400  1
  O  O53  1  0.50199200  0.55473100  0.59170900  1
  O  O54  1  0.50232600  0.44773800  0.59153800  1
  O  O55  1  0.00272500  0.05256200  0.59213900  1
  O  O56  1  0.00189800  0.94553900  0.59111800  1
  O  O57  1  0.59036500  0.55515200  0.58747900  1
  O  O58  1  0.59022400  0.44790700  0.58631200  1
  O  O59  1  0.09106300  0.05223800  0.58790500  1
  O  O60  1  0.09036000  0.94501300  0.58701100  1
  O  O61  1  0.00898900  0.79142700  0.89073100  1
  O  O62  1  0.99719500  0.59101500  0.05158900  1
  O  O63  1  0.99557400  0.20964400  0.87863400  1
  O  O64  1  0.49900200  0.29145400  0.88101900  1
  O  O65  1  0.50423600  0.70904500  0.88666700  1
  O  O66  1  0.20950300  0.53152700  0.32538400  1
  O  O67  1  0.71005000  0.01185500  0.32872800  1
  O  O68  1  0.70940300  0.46126700  0.59789000  1
  O  O69  1  0.20992000  0.98240500  0.59294000  1
  O  O70  1  0.79262700  0.57743000  0.70281500  1
  O  O71  1  0.79086500  0.38447600  0.77064700  1
  O  O72  1  0.29173500  0.09262000  0.72013000  1
  O  O73  1  0.99751100  0.41039300  0.05258400  1
  O  O74  1  0.29282600  0.88947400  0.74898600  1
  O  O75  1  0.70942000  0.61814600  0.73036100  1
  O  O76  1  0.70697500  0.42510300  0.79739500  1
  O  O77  1  0.20816900  0.10817500  0.75344900  1
  O  O78  1  0.20889100  0.90493600  0.78191700  1
  O  O79  1  0.78975400  0.54120800  0.90204100  1
  O  O80  1  0.28995300  0.01516100  0.90847900  1
  O  O81  1  0.61751600  0.50109900  0.82534900  1
  O  O82  1  0.11617100  0.01681500  0.82381500  1
  O  O83  1  0.04205900  0.10989900  0.83184200  1
  O  O84  1  0.49781200  0.09040200  0.05193200  1
  O  O85  1  0.07274000  0.90721100  0.86409600  1
  O  O86  1  0.55770900  0.60289900  0.84905200  1
  O  O87  1  0.55852600  0.39789000  0.84874900  1
  O  O88  1  0.43932400  0.60294800  0.64817800  1
  O  O89  1  0.44016700  0.39780400  0.64786400  1
  O  O90  1  0.92504200  0.09153400  0.63229200  1
  O  O91  1  0.95582400  0.88869600  0.66482800  1
  O  O92  1  0.88143400  0.98186700  0.67149500  1
  O  O93  1  0.38014600  0.49965100  0.67029900  1
  O  O94  1  0.61418900  0.52519700  0.40633700  1
  O  O95  1  0.49794300  0.90978400  0.05269100  1
  O  O96  1  0.10922300  0.04270900  0.40124600  1
  O  O97  1  0.10693700  0.70865000  0.05540900  1
  O  O98  1  0.10021400  0.29183100  0.03946900  1
  O  O99  1  0.60212600  0.20859300  0.04232000  1
  O  O100  1  0.60493500  0.79083800  0.05092000  1
  O  O101  1  0.46077600  0.39034900  0.25197700  1
  O  O102  1  0.42043800  0.58951900  0.21043700  1
  O  O103  1  0.98218200  0.88276100  0.27174600  1
  O  O104  1  0.90713500  0.07164600  0.19836400  1
  O  O105  1  0.89117200  0.95634800  0.09873800  1
  O  O106  1  0.99816500  0.59001300  0.94536300  1
  O  O107  1  0.38440000  0.47775700  0.09233400  1
  O  O108  1  0.09818100  0.79168900  0.16458500  1
  O  O109  1  0.10404200  0.20854200  0.16117000  1
  O  O110  1  0.60319900  0.29120200  0.16186400  1
  O  O111  1  0.59954000  0.70774100  0.16354700  1
  O  O112  1  0.99144300  0.70998100  0.11002400  1
  O  O113  1  0.00352600  0.29013700  0.12420700  1
  O  O114  1  0.50107100  0.20942400  0.12030700  1
  O  O115  1  0.49518700  0.79008600  0.11505900  1
  O  O116  1  0.89346600  0.79141000  0.94521200  1
