# generated using pymatgen
data_Zn2H33C49S4N3O8
_symmetry_space_group_name_H-M   'P 1'
_cell_length_a   13.45420400
_cell_length_b   15.36896300
_cell_length_c   11.70318500
_cell_angle_alpha   90.00000000
_cell_angle_beta   90.14651100
_cell_angle_gamma   90.00000000
_symmetry_Int_Tables_number   1
_chemical_formula_structural   Zn2H33C49S4N3O8
_chemical_formula_sum   'Zn2 H33 C49 S4 N3 O8'
_cell_volume   2419.94348614
_cell_formula_units_Z   1
loop_
 _symmetry_equiv_pos_site_id
 _symmetry_equiv_pos_as_xyz
  1  'x, y, z'
loop_
 _atom_site_type_symbol
 _atom_site_label
 _atom_site_symmetry_multiplicity
 _atom_site_fract_x
 _atom_site_fract_y
 _atom_site_fract_z
 _atom_site_occupancy
  Zn  Zn1  1  0.89078100  0.50683200  0.49244700  1
  Zn  Zn2  1  0.11296900  0.50728800  0.48319300  1
  H  H1  1  0.15433700  0.20284100  0.90958300  1
  H  H2  1  0.15538300  0.86939500  0.80504600  1
  H  H3  1  0.86254900  0.26961800  0.67206100  1
  H  H4  1  0.85812900  0.68495800  0.77626100  1
  H  H5  1  0.15718600  0.33050300  0.78383000  1
  H  H6  1  0.15970800  0.73956800  0.68547300  1
  H  H7  1  0.86084400  0.14332800  0.79671100  1
  H  H8  1  0.85607700  0.81347300  0.89742400  1
  H  H9  1  0.84752800  0.19569600  0.07654800  1
  H  H10  1  0.83688500  0.84118900  0.12039100  1
  H  H11  1  0.14630000  0.27702000  0.29333400  1
  H  H12  1  0.15296900  0.71350300  0.24766700  1
  H  H13  1  0.84383900  0.32455900  0.19996800  1
  H  H14  1  0.83481700  0.71274100  0.24307700  1
  H  H15  1  0.01172500  0.00791000  0.77817500  1
  H  H16  1  0.98798200  0.00539500  0.19650000  1
  H  H17  1  0.24323400  0.50259400  0.65480900  1
  H  H18  1  0.75057800  0.51173200  0.32245000  1
  H  H19  1  0.59982900  0.52009300  0.21738000  1
  H  H20  1  0.41727300  0.50214300  0.67556800  1
  H  H21  1  0.57103000  0.51210100  0.68307000  1
  H  H22  1  0.22606400  0.37842800  0.14631800  1
  H  H23  1  0.29661000  0.36846700  0.27723700  1
  H  H24  1  0.35501500  0.41063500  0.14913700  1
  H  H25  1  0.76926400  0.36526700  0.83473400  1
  H  H26  1  0.70671000  0.35913600  0.69854700  1
  H  H27  1  0.64438400  0.40716900  0.82076500  1
  H  H28  1  0.22634400  0.12497600  0.37009500  1
  H  H29  1  0.21048700  0.01619900  0.31290600  1
  H  H30  1  0.10337100  0.08413800  0.33596900  1
  H  H31  1  0.28632500  0.78705800  0.95521600  1
  H  H32  1  0.17661400  0.72814100  0.99714600  1
  H  H33  1  0.28761700  0.72299400  0.08518000  1
  C  C1  1  0.00920600  0.31013000  0.72094100  1
  C  C2  1  0.00968900  0.70202300  0.72363300  1
  C  C3  1  0.00565400  0.08525700  0.92923900  1
  C  C4  1  0.00298100  0.92906100  0.92763100  1
  C  C5  1  0.08942500  0.21885700  0.85923900  1
  C  C6  1  0.09074500  0.82775300  0.80038100  1
  C  C7  1  0.92629500  0.25725100  0.72590100  1
  C  C8  1  0.92476500  0.72368800  0.78358400  1
  C  C9  1  0.09130200  0.29035400  0.78737700  1
  C  C10  1  0.09312300  0.75402400  0.73329400  1
  C  C11  1  0.00616200  0.16623600  0.86352800  1
  C  C12  1  0.00651300  0.84835900  0.86161300  1
  C  C13  1  0.92526800  0.18536000  0.79583100  1
  C  C14  1  0.92351000  0.79615500  0.85291200  1
  C  C15  1  0.99556800  0.31097600  0.25359000  1
  C  C16  1  0.99383900  0.70263900  0.25245900  1
  C  C17  1  0.99957200  0.08463800  0.04735800  1
  C  C18  1  0.99564300  0.92838500  0.04553800  1
  C  C19  1  0.91368600  0.21468100  0.12285700  1
  C  C20  1  0.90626600  0.81145900  0.14600300  1
  C  C21  1  0.08075000  0.26131600  0.24420000  1
  C  C22  1  0.08283000  0.73899800  0.21760200  1
  C  C23  1  0.91153300  0.28707600  0.19305600  1
  C  C24  1  0.90535800  0.73903600  0.21577200  1
  C  C25  1  0.99917000  0.16522900  0.11403100  1
  C  C26  1  0.99520400  0.84702400  0.11049300  1
  C  C27  1  0.08254700  0.18852600  0.17579400  1
  C  C28  1  0.08368400  0.81048900  0.14644700  1
  C  C29  1  0.00722800  0.00743600  0.87039400  1
  C  C30  1  0.99334800  0.00612500  0.10439000  1
  C  C31  1  0.00863500  0.62862600  0.64366400  1
  C  C32  1  0.00915700  0.38415200  0.64189300  1
  C  C33  1  0.99455800  0.62962200  0.33328500  1
  C  C34  1  0.99529900  0.38544400  0.33202200  1
  C  C35  1  0.30082800  0.51134300  0.37958700  1
  C  C36  1  0.28754500  0.50504800  0.57813900  1
  C  C37  1  0.38924500  0.50566600  0.58961700  1
  C  C38  1  0.44957400  0.51021200  0.49399300  1
  C  C39  1  0.40360700  0.51342200  0.38853000  1
  C  C40  1  0.60624800  0.50956400  0.60089200  1
  C  C41  1  0.55352200  0.51067700  0.49942300  1
  C  C42  1  0.60726100  0.51251300  0.39948000  1
  C  C43  1  0.55825500  0.51727800  0.29620800  1
  C  C44  1  0.70851400  0.50617300  0.60138600  1
  C  C45  1  0.71013900  0.51039800  0.40203400  1
  C  C46  1  0.28527400  0.40830800  0.19931500  1
  C  C47  1  0.71666000  0.39901300  0.77669900  1
  C  C48  1  0.18261600  0.08406800  0.31024100  1
  C  C49  1  0.24158700  0.76521800  0.02932100  1
  S  S1  1  0.24770700  0.51773300  0.23904600  1
  S  S2  1  0.76734400  0.50475600  0.73906800  1
  S  S3  1  0.19459400  0.12616800  0.16588800  1
  S  S4  1  0.19975900  0.85971300  0.10910100  1
  N  N1  1  0.24339800  0.50774600  0.47479900  1
  N  N2  1  0.45841700  0.51798900  0.29264500  1
  N  N3  1  0.76037200  0.50661300  0.50187900  1
  O  O1  1  0.09314600  0.60094500  0.60149100  1
  O  O2  1  0.09381800  0.41318100  0.60122800  1
  O  O3  1  0.92232100  0.59726700  0.61181700  1
  O  O4  1  0.92274300  0.41485000  0.60948500  1
  O  O5  1  0.90985200  0.60124900  0.37491200  1
  O  O6  1  0.91021000  0.41370600  0.37314700  1
  O  O7  1  0.08113500  0.59854200  0.36509300  1
  O  O8  1  0.08189200  0.41643400  0.36432300  1
