# generated using pymatgen
data_CuH4C18NO12
_symmetry_space_group_name_H-M   'P 1'
_cell_length_a   16.05270500
_cell_length_b   14.62966300
_cell_length_c   14.44058200
_cell_angle_alpha   90.00000000
_cell_angle_beta   89.99002900
_cell_angle_gamma   90.00000000
_symmetry_Int_Tables_number   1
_chemical_formula_structural   CuH4C18NO12
_chemical_formula_sum   'Cu2 H8 C36 N2 O24'
_cell_volume   3391.30802259
_cell_formula_units_Z   2
loop_
 _symmetry_equiv_pos_site_id
 _symmetry_equiv_pos_as_xyz
  1  'x, y, z'
loop_
 _atom_site_type_symbol
 _atom_site_label
 _atom_site_symmetry_multiplicity
 _atom_site_fract_x
 _atom_site_fract_y
 _atom_site_fract_z
 _atom_site_occupancy
  Cu  Cu1  1  0.50144900  0.59146400  0.50053900  1
  Cu  Cu2  1  0.50155400  0.40852100  0.50065900  1
  H  H1  1  0.67609300  0.11546300  0.73055400  1
  H  H2  1  0.25875600  0.88407300  0.36777400  1
  H  H3  1  0.32685600  0.11531300  0.27061400  1
  H  H4  1  0.74427700  0.88421600  0.63348500  1
  H  H5  1  0.10694700  0.79081700  0.43915200  1
  H  H6  1  0.89622800  0.20924800  0.43953400  1
  H  H7  1  0.89582100  0.79076500  0.56182300  1
  H  H8  1  0.10701100  0.20939800  0.56191500  1
  C  C1  1  0.25229400  0.50016200  0.50063400  1
  C  C2  1  0.75070900  0.49987800  0.50057200  1
  C  C3  1  0.34164800  0.50022600  0.50063400  1
  C  C4  1  0.66135500  0.49976900  0.50056400  1
  C  C5  1  0.50155400  0.50022100  0.32289300  1
  C  C6  1  0.50145000  0.49976600  0.67830500  1
  C  C7  1  0.50152900  0.80726400  0.50062900  1
  C  C8  1  0.50147400  0.19271700  0.50056900  1
  C  C9  1  0.50155400  0.50013100  0.22353600  1
  C  C10  1  0.50145100  0.49985500  0.77766200  1
  C  C11  1  0.50154000  0.50007200  0.14009400  1
  C  C12  1  0.50146500  0.49991300  0.86110400  1
  C  C13  1  0.50151500  0.50001400  0.04232000  1
  C  C14  1  0.50149100  0.49996900  0.95887800  1
  C  C15  1  0.56046200  0.95257600  0.55206400  1
  C  C16  1  0.44240600  0.04738100  0.44931400  1
  C  C17  1  0.44255400  0.95253600  0.44915400  1
  C  C18  1  0.56058000  0.04742100  0.55186800  1
  C  C19  1  0.95824800  0.58232100  0.50041400  1
  C  C20  1  0.04475100  0.41787000  0.50047600  1
  C  C21  1  0.04468600  0.58236300  0.50073600  1
  C  C22  1  0.95832000  0.41782800  0.50080800  1
  C  C23  1  0.91541600  0.50004800  0.50060500  1
  C  C24  1  0.08758800  0.50013200  0.50061000  1
  C  C25  1  0.82580900  0.49997300  0.50058600  1
  C  C26  1  0.17719500  0.50015200  0.50062400  1
  C  C27  1  0.50151600  0.90555500  0.50061700  1
  C  C28  1  0.50148600  0.09441700  0.50058200  1
  C  C29  1  0.62050000  0.09842200  0.60930000  1
  C  C30  1  0.37803600  0.90148200  0.39830200  1
  C  C31  1  0.38246600  0.09833900  0.39186800  1
  C  C32  1  0.62499400  0.90156500  0.60293800  1
  C  C33  1  0.09107600  0.66914600  0.49675200  1
  C  C34  1  0.91194500  0.33103700  0.49691000  1
  C  C35  1  0.91178700  0.66906200  0.50432700  1
  C  C36  1  0.09119800  0.33112700  0.50444500  1
  N  N1  1  0.50147700  0.27181600  0.50057300  1
  N  N2  1  0.50152700  0.72816700  0.50062500  1
  O  O1  1  0.38037600  0.57887800  0.49728800  1
  O  O2  1  0.62263000  0.42111000  0.50391700  1
  O  O3  1  0.62248500  0.57835300  0.49727600  1
  O  O4  1  0.38051700  0.42163300  0.50391500  1
  O  O5  1  0.49853800  0.57889800  0.36594300  1
  O  O6  1  0.50446000  0.42108800  0.63525400  1
  O  O7  1  0.49850600  0.57837500  0.63509100  1
  O  O8  1  0.50450400  0.42161200  0.36610600  1
  O  O9  1  0.65998200  0.16194700  0.57662300  1
  O  O10  1  0.63292600  0.07404800  0.70146100  1
  O  O11  1  0.39715300  0.83807500  0.34773000  1
  O  O12  1  0.29452700  0.92561600  0.40723700  1
  O  O13  1  0.34297200  0.16186600  0.42452300  1
  O  O14  1  0.37003600  0.07392400  0.29971900  1
  O  O15  1  0.60589500  0.83816400  0.65352600  1
  O  O16  1  0.70849500  0.92573200  0.59400600  1
  O  O17  1  0.14847600  0.68363500  0.55010600  1
  O  O18  1  0.06928400  0.73576400  0.43231500  1
  O  O19  1  0.85455000  0.31656600  0.55029900  1
  O  O20  1  0.93380300  0.26435500  0.43256200  1
  O  O21  1  0.85436800  0.68344700  0.45097000  1
  O  O22  1  0.93353100  0.73575600  0.56870400  1
  O  O23  1  0.14861100  0.31667500  0.45107400  1
  O  O24  1  0.06938900  0.26447200  0.56884100  1
