# generated using pymatgen
data_ZnH15C28N(ClO2)2
_symmetry_space_group_name_H-M   'P 1'
_cell_length_a   14.07604600
_cell_length_b   14.03442600
_cell_length_c   15.21258000
_cell_angle_alpha   89.98859200
_cell_angle_beta   90.00487300
_cell_angle_gamma   85.31065200
_symmetry_Int_Tables_number   1
_chemical_formula_structural   ZnH15C28N(ClO2)2
_chemical_formula_sum   'Zn2 H30 C56 N2 Cl4 O8'
_cell_volume   2995.17361967
_cell_formula_units_Z   2
loop_
 _symmetry_equiv_pos_site_id
 _symmetry_equiv_pos_as_xyz
  1  'x, y, z'
loop_
 _atom_site_type_symbol
 _atom_site_label
 _atom_site_symmetry_multiplicity
 _atom_site_fract_x
 _atom_site_fract_y
 _atom_site_fract_z
 _atom_site_occupancy
  Zn  Zn1  1  0.61107100  0.48098300  0.49893000  1
  Zn  Zn2  1  0.39523400  0.47487900  0.49055600  1
  H  H1  1  0.60517200  0.95887200  0.46127200  1
  H  H2  1  0.40532800  0.99596600  0.53937200  1
  H  H3  1  0.64391200  0.52640500  0.04645300  1
  H  H4  1  0.36096400  0.53225900  0.94295200  1
  H  H5  1  0.38069100  0.41627200  0.21874000  1
  H  H6  1  0.63511200  0.40338600  0.76900400  1
  H  H7  1  0.37387900  0.41057500  0.06050500  1
  H  H8  1  0.64462400  0.40184800  0.92803100  1
  H  H9  1  0.07372800  0.33882200  0.43318000  1
  H  H10  1  0.93499500  0.57193700  0.61108600  1
  H  H11  1  0.24002800  0.60249100  0.54864600  1
  H  H12  1  0.76284600  0.39433200  0.39592900  1
  H  H13  1  0.06853300  0.61553200  0.55101700  1
  H  H14  1  0.93330700  0.39217400  0.38379400  1
  H  H15  1  0.72872100  0.75973700  0.30217200  1
  H  H16  1  0.88765800  0.67303200  0.29844500  1
  H  H17  1  0.90786000  0.51058400  0.23705400  1
  H  H18  1  0.76895500  0.43388800  0.18178700  1
  H  H19  1  0.24032100  0.77025000  0.70087300  1
  H  H20  1  0.09163200  0.69018700  0.70840300  1
  H  H21  1  0.09450000  0.52404300  0.76025500  1
  H  H22  1  0.24564700  0.43874400  0.80644700  1
  H  H23  1  0.26868300  0.25252700  0.18510000  1
  H  H24  1  0.33337800  0.10301300  0.25489600  1
  H  H25  1  0.33582300  0.08970700  0.41574000  1
  H  H26  1  0.28013300  0.22744300  0.50728000  1
  H  H27  1  0.67060200  0.82953800  0.66074200  1
  H  H28  1  0.65157700  0.76898100  0.81088100  1
  H  H29  1  0.70302100  0.60164200  0.84581100  1
  H  H30  1  0.77064900  0.49421800  0.72997900  1
  C  C1  1  0.51155500  0.47993500  0.32242600  1
  C  C2  1  0.49486700  0.47626100  0.66690200  1
  C  C3  1  0.52520900  0.29122500  0.49373600  1
  C  C4  1  0.48142300  0.66460200  0.49633600  1
  C  C5  1  0.47251300  0.76703100  0.50116500  1
  C  C6  1  0.53480100  0.18858000  0.49253200  1
  C  C7  1  0.46776200  0.95519600  0.51335000  1
  C  C8  1  0.54277400  0.99975400  0.48730200  1
  C  C9  1  0.53964800  0.10243700  0.49070900  1
  C  C10  1  0.46923100  0.85289600  0.50650500  1
  C  C11  1  0.58650500  0.50070500  0.08464900  1
  C  C12  1  0.42090400  0.50251500  0.90465500  1
  C  C13  1  0.58906700  0.50811900  0.17530900  1
  C  C14  1  0.41581600  0.50761500  0.81412400  1
  C  C15  1  0.51420400  0.47763200  0.22534600  1
  C  C16  1  0.49359500  0.47255000  0.76370100  1
  C  C17  1  0.43818200  0.44249000  0.18214300  1
  C  C18  1  0.57464900  0.43357100  0.80622000  1
  C  C19  1  0.43462400  0.43851300  0.09194000  1
  C  C20  1  0.58013800  0.43199500  0.89662700  1
  C  C21  1  0.50885700  0.46746100  0.04256000  1
  C  C22  1  0.50320900  0.46660700  0.94634200  1
  C  C23  1  0.10766200  0.39959900  0.45785000  1
  C  C24  1  0.89930300  0.53346600  0.56118500  1
  C  C25  1  0.20533500  0.39788600  0.45014500  1
  C  C26  1  0.80098700  0.53796700  0.56289600  1
  C  C27  1  0.20333200  0.54473800  0.52160300  1
  C  C28  1  0.80107000  0.43420600  0.44309000  1
  C  C29  1  0.10497400  0.55113600  0.52477700  1
  C  C30  1  0.89890900  0.43173800  0.43738600  1
  C  C31  1  0.05539100  0.47706900  0.49400400  1
  C  C32  1  0.95002500  0.48075900  0.49762900  1
  C  C33  1  0.66996300  0.55235000  0.21377400  1
  C  C34  1  0.65900500  0.64451700  0.24660600  1
  C  C35  1  0.73724800  0.68749700  0.27710100  1
  C  C36  1  0.82644500  0.63913600  0.27450600  1
  C  C37  1  0.83775200  0.54811100  0.24011800  1
  C  C38  1  0.75972200  0.50501800  0.20936300  1
  C  C39  1  0.32879200  0.55524200  0.77656700  1
  C  C40  1  0.32691800  0.64883100  0.74768400  1
  C  C41  1  0.24179800  0.69688300  0.72280600  1
  C  C42  1  0.15835600  0.65216500  0.72739500  1
  C  C43  1  0.16000000  0.55901400  0.75634300  1
  C  C44  1  0.24494700  0.51094500  0.78155800  1
  C  C45  1  0.25088800  0.32023600  0.39753100  1
  C  C46  1  0.24274800  0.32520800  0.30710200  1
  C  C47  1  0.27408600  0.24792600  0.25588000  1
  C  C48  1  0.30978200  0.16401200  0.29495900  1
  C  C49  1  0.31168100  0.15674000  0.38524400  1
  C  C50  1  0.28106400  0.23427000  0.43650800  1
  C  C51  1  0.75254900  0.59965000  0.62906100  1
  C  C52  1  0.72804500  0.69489300  0.61059200  1
  C  C53  1  0.69043100  0.75522700  0.67554600  1
  C  C54  1  0.68025600  0.72144500  0.75978700  1
  C  C55  1  0.70882200  0.62758400  0.77928200  1
  C  C56  1  0.74587200  0.56710700  0.71417900  1
  N  N1  1  0.25348600  0.46918800  0.48447400  1
  N  N2  1  0.75265100  0.48670600  0.50497600  1
  Cl  Cl1  1  0.54727900  0.70958300  0.24597800  1
  Cl  Cl2  1  0.43076600  0.70954100  0.74753900  1
  Cl  Cl3  1  0.18722300  0.42782600  0.25701700  1
  Cl  Cl4  1  0.74925000  0.74109700  0.50612700  1
  O  O1  1  0.59146700  0.48128700  0.36692000  1
  O  O2  1  0.41467700  0.47509400  0.62261500  1
  O  O3  1  0.42808000  0.47698900  0.36090300  1
  O  O4  1  0.57837200  0.47774900  0.62851300  1
  O  O5  1  0.60247100  0.33755800  0.49642700  1
  O  O6  1  0.40407400  0.61833400  0.49264300  1
  O  O7  1  0.43880800  0.33375500  0.49154000  1
  O  O8  1  0.56767700  0.62210300  0.49895800  1
