# generated using pymatgen
data_Cu3H47C37O12
_symmetry_space_group_name_H-M   'P 1'
_cell_length_a   18.44922800
_cell_length_b   18.45348000
_cell_length_c   18.56414200
_cell_angle_alpha   109.32135500
_cell_angle_beta   109.49026500
_cell_angle_gamma   109.34663100
_symmetry_Int_Tables_number   1
_chemical_formula_structural   Cu3H47C37O12
_chemical_formula_sum   'Cu6 H94 C74 O24'
_cell_volume   4880.56470259
_cell_formula_units_Z   2
loop_
 _symmetry_equiv_pos_site_id
 _symmetry_equiv_pos_as_xyz
  1  'x, y, z'
loop_
 _atom_site_type_symbol
 _atom_site_label
 _atom_site_symmetry_multiplicity
 _atom_site_fract_x
 _atom_site_fract_y
 _atom_site_fract_z
 _atom_site_occupancy
  Cu  Cu1  1  0.50251900  0.44714000  0.44503300  1
  Cu  Cu2  1  0.49648900  0.56673300  0.56799900  1
  Cu  Cu3  1  0.94424400  0.44398500  0.00025700  1
  Cu  Cu4  1  0.06841400  0.57344300  0.00450500  1
  Cu  Cu5  1  0.05936900  0.00064000  0.55783400  1
  Cu  Cu6  1  0.93420300  0.00492800  0.43825400  1
  H  H1  1  0.27252600  0.65759100  0.30564200  1
  H  H2  1  0.40282000  0.61301900  0.29425200  1
  H  H3  1  0.23642000  0.36211200  0.20457100  1
  H  H4  1  0.10739300  0.40698100  0.21699400  1
  H  H5  1  0.23798400  0.55297500  0.38467800  1
  H  H6  1  0.66738000  0.61987200  0.38581200  1
  H  H7  1  0.74493400  0.61759300  0.47441400  1
  H  H8  1  0.86069800  0.72984900  0.49436800  1
  H  H9  1  0.78523000  0.71452600  0.39205900  1
  H  H10  1  0.59482100  0.70336800  0.41124500  1
  H  H11  1  0.69658300  0.79421100  0.39673200  1
  H  H12  1  0.81020700  0.73106500  0.61915600  1
  H  H13  1  0.90595200  0.85186400  0.63679200  1
  H  H14  1  0.84298900  0.90741600  0.63964500  1
  H  H15  1  0.63190900  0.78793200  0.51797800  1
  H  H16  1  0.72934400  0.88335600  0.50113100  1
  H  H17  1  0.64832500  0.36968000  0.62406200  1
  H  H18  1  0.59790300  0.39489000  0.69015000  1
  H  H19  1  0.70374500  0.40853100  0.80512200  1
  H  H20  1  0.74412200  0.36629800  0.73505000  1
  H  H21  1  0.75445000  0.49286100  0.61835800  1
  H  H22  1  0.73602400  0.64057500  0.79179700  1
  H  H23  1  0.65677100  0.55571000  0.79685500  1
  H  H24  1  0.76442600  0.55769300  0.89873300  1
  H  H25  1  0.79826800  0.60497700  0.69922400  1
  H  H26  1  0.90514900  0.59585700  0.79016700  1
  H  H27  1  0.32194500  0.20269800  0.42785700  1
  H  H28  1  0.24838500  0.22289100  0.35525500  1
  H  H29  1  0.12922900  0.13021200  0.35262700  1
  H  H30  1  0.19996900  0.09345400  0.40399800  1
  H  H31  1  0.40248700  0.29959300  0.58863700  1
  H  H32  1  0.29564000  0.17829900  0.56786700  1
  H  H33  1  0.25826000  0.39680700  0.54846300  1
  H  H34  1  0.09545600  0.23457700  0.44305900  1
  H  H35  1  0.16524200  0.29518900  0.56064900  1
  H  H36  1  0.36291600  0.36854800  0.63694600  1
  H  H37  1  0.27037700  0.25186700  0.63460600  1
  H  H38  1  0.85846600  0.59686400  0.13915500  1
  H  H39  1  0.87569600  0.67487700  0.10001100  1
  H  H40  1  0.87047300  0.68663700  0.26309700  1
  H  H41  1  0.99231300  0.63168200  0.27055200  1
  H  H42  1  0.01743900  0.74902700  0.38571900  1
  H  H43  1  0.11785900  0.80596000  0.23367300  1
  H  H44  1  0.02407700  0.77990700  0.13654700  1
  H  H45  1  0.98455100  0.86320400  0.21666100  1
  H  H46  1  0.09132200  0.90819600  0.30891200  1
  H  H47  1  0.10210400  0.70249500  0.29458900  1
  H  H48  1  0.11139100  0.82481900  0.38775800  1
  H  H49  1  0.89028600  0.21772200  0.77901500  1
  H  H50  1  0.98665800  0.23498700  0.86650400  1
  H  H51  1  0.99835100  0.13455600  0.76941100  1
  H  H52  1  0.89415600  0.10847000  0.68509000  1
  H  H53  1  0.90060200  0.30307900  0.70952500  1
  H  H54  1  0.89464600  0.19620400  0.60492400  1
  H  H55  1  0.12801600  0.32122700  0.89196400  1
  H  H56  1  0.13949600  0.23534100  0.78909700  1
  H  H57  1  0.13976600  0.29684700  0.73211100  1
  H  H58  1  0.00186300  0.38133800  0.72758300  1
  H  H59  1  0.99929500  0.27265700  0.62312800  1
  H  H60  1  0.73753000  0.90486000  0.66980100  1
  H  H61  1  0.64516600  0.81231900  0.65235700  1
  H  H62  1  0.73398500  0.89412900  0.76109200  1
  H  H63  1  0.73650200  0.74961600  0.70119600  1
  H  H64  1  0.83486800  0.84921500  0.74666600  1
  H  H65  1  0.89616600  0.52625900  0.62967700  1
  H  H66  1  0.99033900  0.55631600  0.72919100  1
  H  H67  1  0.93562200  0.44941200  0.63284700  1
  H  H68  1  0.89801000  0.44130700  0.74628600  1
  H  H69  1  0.80254400  0.40237500  0.64539100  1
  H  H70  1  0.80925100  0.75879000  0.92892300  1
  H  H71  1  0.79499700  0.69889400  0.98753600  1
  H  H72  1  0.90135600  0.79188400  0.03026600  1
  H  H73  1  0.92232400  0.67519900  0.97044400  1
  H  H74  1  0.89280500  0.70100500  0.88313200  1
  H  H75  1  0.41100100  0.49433400  0.17656300  1
  H  H76  1  0.33055200  0.37965200  0.13008300  1
  H  H77  1  0.35430500  0.41955200  0.05945800  1
  H  H78  1  0.21112000  0.40278800  0.04872100  1
  H  H79  1  0.29138700  0.51699600  0.09291700  1
  H  H80  1  0.09053800  0.36155400  0.43941700  1
  H  H81  1  0.18962500  0.45896000  0.47307600  1
  H  H82  1  0.10529800  0.38875400  0.35861100  1
  H  H83  1  0.23462300  0.36749700  0.39047500  1
  H  H84  1  0.13610500  0.26810700  0.35033400  1
  H  H85  1  0.72234700  0.66520900  0.21448300  1
  H  H86  1  0.79878200  0.77714000  0.30388600  1
  H  H87  1  0.71065500  0.75563700  0.20552400  1
  H  H88  1  0.84378000  0.80935600  0.19469800  1
  H  H89  1  0.77364000  0.69371000  0.12017300  1
  H  H90  1  0.14889700  0.42493700  0.74765600  1
  H  H91  1  0.13698000  0.50402400  0.82522300  1
  H  H92  1  0.24431800  0.52528600  0.84095700  1
  H  H93  1  0.20294700  0.47505500  0.94118100  1
  H  H94  1  0.24616900  0.42119900  0.88473000  1
  C  C1  1  0.62258500  0.63207200  0.51369100  1
  C  C2  1  0.38048300  0.50732800  0.38592500  1
  C  C3  1  0.37727100  0.38227400  0.50004900  1
  C  C4  1  0.61886600  0.50649800  0.62738000  1
  C  C5  1  0.33501900  0.56661700  0.27610600  1
  C  C6  1  0.26532100  0.59069500  0.28350800  1
  C  C7  1  0.19624100  0.51075800  0.19398100  1
  C  C8  1  0.26465600  0.48687200  0.18667600  1
  C  C9  1  0.24407000  0.42918900  0.22700200  1
  C  C10  1  0.17485600  0.45371900  0.23467300  1
  C  C11  1  0.24499200  0.53359700  0.32516600  1
  C  C12  1  0.31318800  0.50927500  0.31631700  1
  C  C13  1  0.72262100  0.66045100  0.45491500  1
  C  C14  1  0.79896000  0.73017700  0.45967000  1
  C  C15  1  0.65382200  0.75240300  0.47729800  1
  C  C16  1  0.77613200  0.76887100  0.60739300  1
  C  C17  1  0.69286000  0.70426500  0.51557700  1
  C  C18  1  0.80959800  0.82014700  0.50877300  1
  C  C19  1  0.72133600  0.81676400  0.46779400  1
  C  C20  1  0.83917300  0.84379000  0.60408700  1
  C  C21  1  0.66036500  0.41726000  0.68783300  1
  C  C22  1  0.73049600  0.42029400  0.76223800  1
  C  C23  1  0.77249100  0.53597200  0.68662800  1
  C  C24  1  0.71513800  0.57498600  0.78739400  1
  C  C25  1  0.69111700  0.50848200  0.69700200  1
  C  C26  1  0.81417300  0.51060200  0.81478000  1
  C  C27  1  0.84391600  0.53081600  0.75212600  1
  C  C28  1  0.78975700  0.57838200  0.85841100  1
  C  C29  1  0.26941800  0.22117900  0.41774100  1
  C  C30  1  0.19112100  0.15153600  0.41108400  1
  C  C31  1  0.34323200  0.30684000  0.57951200  1
  C  C32  1  0.23021900  0.33154600  0.49082700  1
  C  C33  1  0.30483300  0.31066800  0.49574300  1
  C  C34  1  0.18560700  0.19010700  0.49364100  1
  C  C35  1  0.27465900  0.22881800  0.57365400  1
  C  C36  1  0.16312100  0.26291200  0.49728700  1
  C  C37  1  0.00097200  0.62413000  0.12159700  1
  C  C38  1  0.12720700  0.50999700  0.12297900  1
  C  C39  1  0.01310200  0.39297100  0.88409600  1
  C  C40  1  0.88492900  0.50990700  0.88414100  1
  C  C41  1  0.98648500  0.87658800  0.37358900  1
  C  C42  1  0.87799300  0.88741900  0.50459400  1
  C  C43  1  0.00538000  0.12729000  0.62193300  1
  C  C44  1  0.11588200  0.11950300  0.49317400  1
  C  C45  1  0.89948100  0.66658700  0.15824500  1
  C  C46  1  0.89170600  0.72511900  0.23198000  1
  C  C47  1  0.03495200  0.69414200  0.27582600  1
  C  C48  1  0.04570700  0.78224600  0.20100300  1
  C  C49  1  0.99550800  0.69111300  0.18865700  1
  C  C50  1  0.98473300  0.80574200  0.30192200  1
  C  C51  1  0.04101500  0.77160500  0.34527700  1
  C  C52  1  0.02771600  0.84652200  0.25785200  1
  C  C53  1  0.96045200  0.23428200  0.80294300  1
  C  C54  1  0.96285600  0.16210500  0.73602000  1
  C  C55  1  0.96938400  0.31846200  0.72613100  1
  C  C56  1  0.10925900  0.33702700  0.83832000  1
  C  C57  1  0.01536700  0.32410600  0.81421100  1
  C  C58  1  0.00972200  0.19988300  0.69323700  1
  C  C59  1  0.96535600  0.24465600  0.65461700  1
  C  C60  1  0.10543500  0.26759100  0.76246300  1
  C  C61  1  0.76673400  0.80431000  0.68957900  1
  C  C62  1  0.71771900  0.85671200  0.69206900  1
  C  C63  1  0.86411100  0.46223500  0.70287600  1
  C  C64  1  0.92532500  0.50137900  0.67165600  1
  C  C65  1  0.86770900  0.67347300  0.92000500  1
  C  C66  1  0.84108400  0.73406800  0.96941200  1
  C  C67  1  0.27450400  0.46070700  0.10560600  1
  C  C68  1  0.34740100  0.43707000  0.11906500  1
  C  C69  1  0.18546500  0.33541500  0.40726900  1
  C  C70  1  0.13975400  0.38954400  0.42077900  1
  C  C71  1  0.81791700  0.74410200  0.19082600  1
  C  C72  1  0.75898400  0.73516800  0.23170600  1
  C  C73  1  0.18713500  0.42902300  0.87501300  1
  C  C74  1  0.17752400  0.47236800  0.81788600  1
  O  O1  1  0.59342900  0.54974400  0.45707000  1
  O  O2  1  0.58982800  0.65309100  0.56501300  1
  O  O3  1  0.41633200  0.46001100  0.36212200  1
  O  O4  1  0.40776100  0.56010300  0.46833400  1
  O  O5  1  0.40586200  0.36098900  0.44470300  1
  O  O6  1  0.40901100  0.46411200  0.55918000  1
  O  O7  1  0.59268500  0.45533300  0.54482900  1
  O  O8  1  0.59081000  0.56213000  0.65126200  1
  O  O9  1  0.94558400  0.54004500  0.08758400  1
  O  O10  1  0.05929000  0.65192200  0.09767500  1
  O  O11  1  0.04437300  0.45164800  0.08964500  1
  O  O12  1  0.15199000  0.56236200  0.09204900  1
  O  O13  1  0.95500100  0.36556800  0.90856400  1
  O  O14  1  0.06580100  0.47733600  0.91580700  1
  O  O15  1  0.86108500  0.44965000  0.90698700  1
  O  O16  1  0.96825100  0.56267900  0.91204700  1
  O  O17  1  0.04181200  0.90465600  0.45585800  1
  O  O18  1  0.93830800  0.91264000  0.35245300  1
  O  O19  1  0.96128300  0.91552500  0.55661200  1
  O  O20  1  0.85267700  0.91494900  0.44889700  1
  O  O21  1  0.05450200  0.09209700  0.64380600  1
  O  O22  1  0.95226100  0.10152800  0.53995300  1
  O  O23  1  0.14094100  0.09174200  0.54847500  1
  O  O24  1  0.03245800  0.08922300  0.43881700  1
