# generated using pymatgen
data_CuH35C51NO4
_symmetry_space_group_name_H-M   'P 1'
_cell_length_a   15.95591100
_cell_length_b   14.96174200
_cell_length_c   13.56653800
_cell_angle_alpha   89.98763200
_cell_angle_beta   90.00939900
_cell_angle_gamma   89.99452100
_symmetry_Int_Tables_number   1
_chemical_formula_structural   CuH35C51NO4
_chemical_formula_sum   'Cu2 H70 C102 N2 O8'
_cell_volume   3238.71538542
_cell_formula_units_Z   2
loop_
 _symmetry_equiv_pos_site_id
 _symmetry_equiv_pos_as_xyz
  1  'x, y, z'
loop_
 _atom_site_type_symbol
 _atom_site_label
 _atom_site_symmetry_multiplicity
 _atom_site_fract_x
 _atom_site_fract_y
 _atom_site_fract_z
 _atom_site_occupancy
  Cu  Cu1  1  0.49789400  0.50085000  0.59517100  1
  Cu  Cu2  1  0.49235500  0.51475600  0.39838100  1
  H  H1  1  0.04892500  0.35965000  0.44211700  1
  H  H2  1  0.94500300  0.64507800  0.56440000  1
  H  H3  1  0.36709200  0.78340000  0.47542800  1
  H  H4  1  0.61723500  0.23238600  0.52655700  1
  H  H5  1  0.69741800  0.94057600  0.56920600  1
  H  H6  1  0.28898400  0.07584200  0.42420200  1
  H  H7  1  0.69113100  0.09889000  0.55725600  1
  H  H8  1  0.29350100  0.91751500  0.44228800  1
  H  H9  1  0.40499900  0.58524800  0.74371600  1
  H  H10  1  0.58557900  0.43085000  0.24974800  1
  H  H11  1  0.33676700  0.63832800  0.88581500  1
  H  H12  1  0.65142600  0.37486200  0.10761300  1
  H  H13  1  0.32522400  0.64874300  0.06048000  1
  H  H14  1  0.66105800  0.36172900  0.93314600  1
  H  H15  1  0.97098700  0.30071600  0.60289600  1
  H  H16  1  0.86786000  0.33786600  0.57180000  1
  H  H17  1  0.98906400  0.26921100  0.76670400  1
  H  H18  1  0.95873200  0.29476400  0.94094800  1
  H  H19  1  0.86087500  0.41343700  0.99058500  1
  H  H20  1  0.79249600  0.50614700  0.86440600  1
  H  H21  1  0.82168200  0.48105600  0.68990700  1
  H  H22  1  0.02398400  0.65194800  0.31863200  1
  H  H23  1  0.12691200  0.61875900  0.35548200  1
  H  H24  1  0.99664300  0.80115800  0.33771400  1
  H  H25  1  0.01369700  0.94313300  0.42402300  1
  H  H26  1  0.10340600  0.95263800  0.57098300  1
  H  H27  1  0.17682800  0.81878100  0.63090500  1
  H  H28  1  0.16020300  0.67642100  0.54587100  1
  H  H29  1  0.00012400  0.49219100  0.25363700  1
  H  H30  1  0.89864500  0.53580800  0.28543400  1
  H  H31  1  0.78083700  0.43921900  0.28766500  1
  H  H32  1  0.72081200  0.29190400  0.25313100  1
  H  H33  1  0.81304900  0.16284400  0.22464800  1
  H  H34  1  0.96609600  0.18170100  0.23040200  1
  H  H35  1  0.02682300  0.32867000  0.26592200  1
  H  H36  1  0.99482200  0.54778700  0.74505200  1
  H  H37  1  0.08226500  0.60318300  0.69144000  1
  H  H38  1  0.12386800  0.56505700  0.86796900  1
  H  H39  1  0.22217100  0.46972100  0.95841800  1
  H  H40  1  0.26416400  0.32419000  0.89030700  1
  H  H41  1  0.20683200  0.27427900  0.73152400  1
  H  H42  1  0.10957100  0.36683000  0.64120300  1
  H  H43  1  0.63879800  0.70511900  0.57589900  1
  H  H44  1  0.68583300  0.80388100  0.61262700  1
  H  H45  1  0.80156100  0.70849800  0.53419700  1
  H  H46  1  0.88710300  0.69118700  0.38571100  1
  H  H47  1  0.83674600  0.74639200  0.22615200  1
  H  H48  1  0.69785800  0.81632600  0.21458600  1
  H  H49  1  0.61017700  0.83059200  0.35830200  1
  H  H50  1  0.34729000  0.31385300  0.42709700  1
  H  H51  1  0.28736800  0.22155300  0.46407500  1
  H  H52  1  0.19539700  0.18901900  0.33454100  1
  H  H53  1  0.16603900  0.16456000  0.15958200  1
  H  H54  1  0.27674500  0.18727400  0.03603100  1
  H  H55  1  0.41722000  0.23549600  0.08820200  1
  H  H56  1  0.44756300  0.26021400  0.26271400  1
  H  H57  1  0.67855100  0.38512900  0.77181200  1
  H  H58  1  0.61160000  0.37687500  0.67065100  1
  H  H59  1  0.71331900  0.23688000  0.80917500  1
  H  H60  1  0.67371800  0.08247700  0.84654800  1
  H  H61  1  0.52657100  0.03520900  0.83339700  1
  H  H62  1  0.41879400  0.14316400  0.78230600  1
  H  H63  1  0.45717200  0.29749900  0.74478800  1
  H  H64  1  0.37727700  0.63710300  0.32325200  1
  H  H65  1  0.30765000  0.62038500  0.22489500  1
  H  H66  1  0.26024200  0.76559700  0.19363800  1
  H  H67  1  0.28638200  0.92207000  0.15089700  1
  H  H68  1  0.43035600  0.98049200  0.14844900  1
  H  H69  1  0.54827700  0.88197200  0.19002400  1
  H  H70  1  0.52327200  0.72556500  0.23427300  1
  C  C1  1  0.49416900  0.33673300  0.48162500  1
  C  C2  1  0.49433900  0.67899300  0.51200300  1
  C  C3  1  0.33444100  0.50522600  0.50353300  1
  C  C4  1  0.65620100  0.50916700  0.49010300  1
  C  C5  1  0.96500400  0.43778100  0.55588900  1
  C  C6  1  0.02661900  0.56773500  0.44772800  1
  C  C7  1  0.02358200  0.42460200  0.46760000  1
  C  C8  1  0.96855600  0.58060400  0.53524100  1
  C  C9  1  0.24466300  0.50214900  0.50607300  1
  C  C10  1  0.74658700  0.50810500  0.48845100  1
  C  C11  1  0.02067300  0.51268300  0.59356400  1
  C  C12  1  0.97242800  0.49207800  0.40960700  1
  C  C13  1  0.07743400  0.50109500  0.50548300  1
  C  C14  1  0.91451000  0.50442700  0.49653600  1
  C  C15  1  0.16919300  0.50048700  0.50653500  1
  C  C16  1  0.82238100  0.50668400  0.49066800  1
  C  C17  1  0.42281600  0.82139100  0.49274800  1
  C  C18  1  0.56201800  0.19446900  0.50698700  1
  C  C19  1  0.49487900  0.77677200  0.51853600  1
  C  C20  1  0.49160000  0.23908300  0.47613300  1
  C  C21  1  0.56801900  0.82458600  0.53730200  1
  C  C22  1  0.41924000  0.19144500  0.45160200  1
  C  C23  1  0.56658000  0.91825100  0.53164500  1
  C  C24  1  0.41931100  0.09801100  0.46263300  1
  C  C25  1  0.49333500  0.96193500  0.50416200  1
  C  C26  1  0.49170200  0.05433700  0.49335700  1
  C  C27  1  0.42206300  0.91308400  0.48510500  1
  C  C28  1  0.56278200  0.10300300  0.51365800  1
  C  C29  1  0.63790000  0.96917100  0.54927400  1
  C  C30  1  0.34794800  0.04702400  0.44561200  1
  C  C31  1  0.63520300  0.06058300  0.54189000  1
  C  C32  1  0.34969300  0.95570700  0.45669000  1
  C  C33  1  0.55562700  0.43963100  0.79827200  1
  C  C34  1  0.43309800  0.57452000  0.19533900  1
  C  C35  1  0.44714200  0.54500400  0.78725500  1
  C  C36  1  0.54310800  0.47076700  0.20625900  1
  C  C37  1  0.44186800  0.55011200  0.88815300  1
  C  C38  1  0.54754400  0.46467400  0.10537400  1
  C  C39  1  0.49651700  0.50310500  0.94593100  1
  C  C40  1  0.49263300  0.51136600  0.04764200  1
  C  C41  1  0.55493700  0.44816600  0.90141800  1
  C  C42  1  0.43364300  0.56562500  0.09216300  1
  C  C43  1  0.38137300  0.60263100  0.93107700  1
  C  C44  1  0.60713100  0.41098400  0.06242600  1
  C  C45  1  0.37603500  0.60921900  0.03198700  1
  C  C46  1  0.61155300  0.40313600  0.96157400  1
  C  C47  1  0.92680200  0.35754400  0.60923800  1
  C  C48  1  0.90909300  0.37493800  0.71587300  1
  C  C49  1  0.94626500  0.32203100  0.78717800  1
  C  C50  1  0.92919100  0.33610100  0.88558200  1
  C  C51  1  0.87436800  0.40255000  0.91342700  1
  C  C52  1  0.83618800  0.45456200  0.84270300  1
  C  C53  1  0.85285700  0.44033100  0.74418900  1
  C  C54  1  0.06500700  0.64094800  0.38332400  1
  C  C55  1  0.07494500  0.72756500  0.43757600  1
  C  C56  1  0.03530700  0.80362000  0.40303400  1
  C  C57  1  0.04517900  0.88408200  0.45118600  1
  C  C58  1  0.09549800  0.88948500  0.53343600  1
  C  C59  1  0.13650200  0.81445200  0.56705400  1
  C  C60  1  0.12663300  0.73390600  0.51909000  1
  C  C61  1  0.94508200  0.48288700  0.30246100  1
  C  C62  1  0.90790100  0.39309300  0.28269900  1
  C  C63  1  0.82201200  0.38277600  0.27664300  1
  C  C64  1  0.78805700  0.29999300  0.25664200  1
  C  C65  1  0.83973300  0.22763200  0.24067400  1
  C  C66  1  0.92546900  0.23816800  0.24410100  1
  C  C67  1  0.95949800  0.32078200  0.26461900  1
  C  C68  1  0.05018800  0.53768000  0.69719400  1
  C  C69  1  0.10956200  0.47430600  0.74764400  1
  C  C70  1  0.14188400  0.50117100  0.83738500  1
  C  C71  1  0.19721400  0.44766900  0.88844900  1
  C  C72  1  0.22076100  0.36623900  0.85037000  1
  C  C73  1  0.18867500  0.33841600  0.76133300  1
  C  C74  1  0.13334900  0.39186500  0.70999700  1
  C  C75  1  0.64903900  0.77464600  0.55146600  1
  C  C76  1  0.70035800  0.77134500  0.45878300  1
  C  C77  1  0.77862600  0.73291100  0.46426400  1
  C  C78  1  0.82697000  0.72336300  0.38090700  1
  C  C79  1  0.79845700  0.75381200  0.29136200  1
  C  C80  1  0.72071100  0.79298500  0.28502900  1
  C  C81  1  0.67131600  0.80127600  0.36790700  1
  C  C82  1  0.34169500  0.24086600  0.41787800  1
  C  C83  1  0.32411900  0.22421400  0.31103700  1
  C  C84  1  0.24485700  0.19848400  0.28111700  1
  C  C85  1  0.22803800  0.18493100  0.18256100  1
  C  C86  1  0.29002600  0.19774700  0.11330500  1
  C  C87  1  0.36876200  0.22467700  0.14259400  1
  C  C88  1  0.38575300  0.23827800  0.24112700  1
  C  C89  1  0.61274400  0.37208200  0.75077700  1
  C  C90  1  0.58783300  0.27834900  0.77613600  1
  C  C91  1  0.64829600  0.21712900  0.80394300  1
  C  C92  1  0.62622800  0.13006500  0.82474400  1
  C  C93  1  0.54379000  0.10354500  0.81730500  1
  C  C94  1  0.48340900  0.16407400  0.78871800  1
  C  C95  1  0.50528800  0.25119100  0.76783300  1
  C  C96  1  0.37302900  0.63920700  0.24314900  1
  C  C97  1  0.39007300  0.73425600  0.21478300  1
  C  C98  1  0.32387500  0.79036000  0.19237800  1
  C  C99  1  0.33836300  0.87855800  0.16849900  1
  C  C100  1  0.41900100  0.91132300  0.16723800  1
  C  C101  1  0.48510600  0.85598100  0.19058400  1
  C  C102  1  0.47079500  0.76778100  0.21507400  1
  N  N1  1  0.50234100  0.49017100  0.74244000  1
  N  N2  1  0.48782300  0.52550100  0.25110400  1
  O  O1  1  0.49463400  0.37253300  0.56945000  1
  O  O2  1  0.49520300  0.64314200  0.42413100  1
  O  O3  1  0.49622600  0.38421400  0.40036800  1
  O  O4  1  0.49392100  0.63139000  0.59320500  1
  O  O5  1  0.37571100  0.50373100  0.58688400  1
  O  O6  1  0.61463800  0.51187000  0.40669900  1
  O  O7  1  0.37115600  0.50890400  0.41746200  1
  O  O8  1  0.61912200  0.50630000  0.57603100  1
