# generated using pymatgen
data_V4H18C43O23
_symmetry_space_group_name_H-M   'P 1'
_cell_length_a   6.70376600
_cell_length_b   17.92532500
_cell_length_c   20.78904900
_cell_angle_alpha   107.29296400
_cell_angle_beta   89.34452000
_cell_angle_gamma   90.77375100
_symmetry_Int_Tables_number   1
_chemical_formula_structural   V4H18C43O23
_chemical_formula_sum   'V4 H18 C43 O23'
_cell_volume   2384.94822064
_cell_formula_units_Z   1
loop_
 _symmetry_equiv_pos_site_id
 _symmetry_equiv_pos_as_xyz
  1  'x, y, z'
loop_
 _atom_site_type_symbol
 _atom_site_label
 _atom_site_symmetry_multiplicity
 _atom_site_fract_x
 _atom_site_fract_y
 _atom_site_fract_z
 _atom_site_occupancy
  V  V1  1  0.92161200  0.48923000  0.49680500  1
  V  V2  1  0.42222100  0.50906400  0.49984500  1
  V  V3  1  0.31545200  0.00792500  0.99973600  1
  V  V4  1  0.81505100  0.99044100  0.99675300  1
  H  H1  1  0.87581100  0.85434000  0.28665800  1
  H  H2  1  0.22455500  0.82996900  0.35334300  1
  H  H3  1  0.78335400  0.69291500  0.25691100  1
  H  H4  1  0.34514600  0.64135700  0.20137400  1
  H  H5  1  0.69783700  0.16220900  0.63166600  1
  H  H6  1  0.36066600  0.13482400  0.70579800  1
  H  H7  1  0.93129000  0.18477700  0.74809400  1
  H  H8  1  0.84700500  0.34577900  0.78396300  1
  H  H9  1  0.50991700  0.31841100  0.85801600  1
  H  H10  1  0.12008800  0.28503600  0.77429100  1
  H  H11  1  0.17125500  0.28494900  0.68854000  1
  H  H12  1  0.32778200  0.39750100  0.80299500  1
  H  H13  1  0.83821500  0.67700600  0.10495500  1
  H  H14  1  0.95201000  0.59254900  0.11926200  1
  H  H15  1  0.08217000  0.69484800  0.04999700  1
  H  H16  1  0.53473300  0.78994600  0.17541100  1
  H  H17  1  0.59909600  0.79332800  0.26044000  1
  H  H18  1  0.47200100  0.90597100  0.20594700  1
  C  C1  1  0.63434400  0.42051100  0.57851500  1
  C  C2  1  0.63992700  0.39228700  0.39029000  1
  C  C3  1  0.14575000  0.57748100  0.41796900  1
  C  C4  1  0.13978700  0.60631300  0.60624200  1
  C  C5  1  0.12759800  0.67020600  0.66717000  1
  C  C6  1  0.11832600  0.72401800  0.71823500  1
  C  C7  1  0.10945100  0.78704400  0.77814900  1
  C  C8  1  0.10444800  0.84056400  0.82950900  1
  C  C9  1  0.17116900  0.79331300  0.30352900  1
  C  C10  1  0.98211600  0.80564700  0.26792000  1
  C  C11  1  0.07874100  0.87374200  0.11721700  1
  C  C12  1  0.13751700  0.62325500  0.37201000  1
  C  C13  1  0.28557900  0.77653700  0.23760500  1
  C  C14  1  0.09959200  0.78883800  0.20270100  1
  C  C15  1  0.23857300  0.68988300  0.22050300  1
  C  C16  1  0.12035600  0.70718100  0.28566800  1
  C  C17  1  0.05000300  0.70334800  0.18609800  1
  C  C18  1  0.93118200  0.71875600  0.25105300  1
  C  C19  1  0.08893300  0.83493700  0.15544600  1
  C  C20  1  0.13013700  0.66127700  0.33309200  1
  C  C21  1  0.47222200  0.18272300  0.72282600  1
  C  C22  1  0.65488700  0.19696000  0.68347300  1
  C  C23  1  0.62044100  0.37274600  0.62294000  1
  C  C24  1  0.60055900  0.11018800  0.86873400  1
  C  C25  1  0.42905000  0.26933400  0.74370400  1
  C  C26  1  0.60853700  0.28310400  0.70500500  1
  C  C27  1  0.55422100  0.28354100  0.80638700  1
  C  C28  1  0.60074000  0.19738000  0.78464100  1
  C  C29  1  0.73659800  0.29746900  0.76686100  1
  C  C30  1  0.78297300  0.21060100  0.74603800  1
  C  C31  1  0.61297100  0.33231900  0.66003700  1
  C  C32  1  0.59989600  0.14909200  0.83037800  1
  C  C33  1  0.62787000  0.33004000  0.32828700  1
  C  C34  1  0.61668400  0.27801500  0.27608300  1
  C  C35  1  0.60229900  0.21708700  0.21493800  1
  C  C36  1  0.58886400  0.16485800  0.16294300  1
  C  C37  1  0.57140900  0.10212300  0.10144600  1
  C  C38  1  0.60230300  0.06511500  0.91540700  1
  C  C39  1  0.10253800  0.90371200  0.89112500  1
  C  C40  1  0.06479800  0.92115300  0.07273100  1
  C  C41  1  0.22628500  0.30445500  0.74107400  1
  C  C42  1  0.97904600  0.65322000  0.11786000  1
  C  C43  1  0.48768300  0.81124300  0.22902500  1
  O  O1  1  0.47367400  0.42397800  0.41652600  1
  O  O2  1  0.80970300  0.42863900  0.55423700  1
  O  O3  1  0.97320700  0.57434700  0.58012000  1
  O  O4  1  0.81390000  0.40803500  0.41814300  1
  O  O5  1  0.97763200  0.55242900  0.43563600  1
  O  O6  1  0.46924300  0.44582300  0.56101100  1
  O  O7  1  0.64947900  0.54785200  0.50561700  1
  O  O8  1  0.31889600  0.56962600  0.44235400  1
  O  O9  1  0.31466400  0.59028600  0.57846500  1
  O  O10  1  0.14631300  0.45044000  0.49103500  1
  O  O11  1  0.77610600  0.03174100  0.92006100  1
  O  O12  1  0.40328500  0.06119200  0.09257100  1
  O  O13  1  0.21928600  0.92078600  0.03210400  1
  O  O14  1  0.46369000  0.08349500  0.96404300  1
  O  O15  1  0.27476600  0.94276600  0.90615600  1
  O  O16  1  0.72486000  0.09108500  0.05877600  1
  O  O17  1  0.58849000  0.94729100  0.98933700  1
  O  O18  1  0.95800200  0.90095100  0.93527000  1
  O  O19  1  0.90053100  0.96211500  0.07693800  1
  O  O20  1  0.09175200  0.05096000  0.00526100  1
  O  O21  1  0.24252600  0.38571800  0.76256000  1
  O  O22  1  0.12381100  0.65318000  0.06917800  1
  O  O23  1  0.47563000  0.89249400  0.24877100  1
