# generated using pymatgen
data_Cu2H22C39S3(NO4)2
_symmetry_space_group_name_H-M   'P 1'
_cell_length_a   13.58405600
_cell_length_b   14.61140400
_cell_length_c   16.03493000
_cell_angle_alpha   90.00869300
_cell_angle_beta   89.98333100
_cell_angle_gamma   73.63320000
_symmetry_Int_Tables_number   1
_chemical_formula_structural   Cu2H22C39S3(NO4)2
_chemical_formula_sum   'Cu2 H22 C39 S3 N2 O8'
_cell_volume   3053.67776095
_cell_formula_units_Z   1
loop_
 _symmetry_equiv_pos_site_id
 _symmetry_equiv_pos_as_xyz
  1  'x, y, z'
loop_
 _atom_site_type_symbol
 _atom_site_label
 _atom_site_symmetry_multiplicity
 _atom_site_fract_x
 _atom_site_fract_y
 _atom_site_fract_z
 _atom_site_occupancy
  Cu  Cu1  1  0.51551200  0.41137700  0.49230600  1
  Cu  Cu2  1  0.50845100  0.59618400  0.49186100  1
  H  H1  1  0.19311100  0.71381000  0.55687800  1
  H  H2  1  0.85705200  0.69644000  0.60638200  1
  H  H3  1  0.19410700  0.44251600  0.46611600  1
  H  H4  1  0.82457600  0.29979600  0.41961800  1
  H  H5  1  0.10789100  0.35848100  0.42219900  1
  H  H6  1  0.00631100  0.25624300  0.38938700  1
  H  H7  1  0.76557600  0.58631900  0.58040400  1
  H  H8  1  0.46922300  0.37588800  0.91349800  1
  H  H9  1  0.46267300  0.37668200  0.06680500  1
  H  H10  1  0.55447500  0.63241100  0.07077900  1
  H  H11  1  0.35281200  0.96609900  0.45272500  1
  H  H12  1  0.67169700  0.04122100  0.53078200  1
  H  H13  1  0.66514400  0.87468400  0.53052600  1
  H  H14  1  0.43809400  0.78578400  0.96693100  1
  H  H15  1  0.38920500  0.71028600  0.89782100  1
  H  H16  1  0.43556600  0.80445900  0.85515000  1
  H  H17  1  0.30960700  0.09004500  0.30983500  1
  H  H18  1  0.42320800  0.13161400  0.31889600  1
  H  H19  1  0.30070400  0.21523300  0.29635000  1
  H  H20  1  0.89839000  0.91960900  0.51365100  1
  H  H21  1  0.94575900  0.80649200  0.46150700  1
  H  H22  1  0.03313100  0.87643900  0.48644400  1
  C  C1  1  0.51955800  0.50249700  0.65199400  1
  C  C2  1  0.70943400  0.45846600  0.48700700  1
  C  C3  1  0.50426600  0.50510600  0.33213200  1
  C  C4  1  0.31509600  0.54908600  0.49904300  1
  C  C5  1  0.05011800  0.68269100  0.56130300  1
  C  C6  1  0.20336400  0.57463200  0.50947600  1
  C  C7  1  0.86875700  0.34659200  0.44011900  1
  C  C8  1  0.97135100  0.32205500  0.42214700  1
  C  C9  1  0.02940300  0.38205000  0.44224000  1
  C  C10  1  0.98661300  0.46727300  0.48483700  1
  C  C11  1  0.88253300  0.49053600  0.50526400  1
  C  C12  1  0.04460500  0.53022900  0.50652900  1
  C  C13  1  0.99642700  0.61623100  0.54552700  1
  C  C14  1  0.89572600  0.63406400  0.57084200  1
  C  C15  1  0.84104800  0.57078400  0.55347300  1
  C  C16  1  0.14992400  0.50946300  0.49126700  1
  C  C17  1  0.15245900  0.66210400  0.54202100  1
  C  C18  1  0.82237800  0.43170300  0.47949800  1
  C  C19  1  0.48412800  0.43278100  0.03398500  1
  C  C20  1  0.50791800  0.50474600  0.07804500  1
  C  C21  1  0.53554800  0.57616400  0.03617500  1
  C  C22  1  0.53907400  0.57588000  0.95021300  1
  C  C23  1  0.51554900  0.50369700  0.90612500  1
  C  C24  1  0.48793700  0.43228100  0.94804600  1
  C  C25  1  0.50512100  0.50484300  0.16750400  1
  C  C26  1  0.51854500  0.50325900  0.81663700  1
  C  C27  1  0.51986100  0.50280900  0.74148200  1
  C  C28  1  0.50387900  0.50496400  0.24264400  1
  C  C29  1  0.42664100  0.07595000  0.46961100  1
  C  C30  1  0.51599200  0.09706000  0.49169300  1
  C  C31  1  0.60167000  0.02474300  0.51353200  1
  C  C32  1  0.59794600  0.93139000  0.51344600  1
  C  C33  1  0.50853400  0.91032300  0.49166600  1
  C  C34  1  0.42288200  0.98260300  0.46978300  1
  C  C35  1  0.51934800  0.19438500  0.49221000  1
  C  C36  1  0.50504600  0.81306300  0.49154700  1
  C  C37  1  0.44712000  0.75010800  0.90521400  1
  C  C38  1  0.33958100  0.14930800  0.33104100  1
  C  C39  1  0.96493700  0.85532800  0.50765800  1
  S  S1  1  0.57506700  0.66852600  0.89624400  1
  S  S2  1  0.31530000  0.16959300  0.44178600  1
  S  S3  1  0.99107900  0.79632200  0.60816000  1
  N  N1  1  0.50345900  0.73430000  0.49151800  1
  N  N2  1  0.52079100  0.27319200  0.49250800  1
  O  O1  1  0.51601100  0.42452900  0.61349200  1
  O  O2  1  0.51997700  0.58093500  0.61278000  1
  O  O3  1  0.66387800  0.39031500  0.48599700  1
  O  O4  1  0.65753200  0.54865900  0.48306700  1
  O  O5  1  0.50680400  0.42580300  0.37122200  1
  O  O6  1  0.50505500  0.58386600  0.37069900  1
  O  O7  1  0.36598600  0.45871200  0.49357900  1
  O  O8  1  0.35996200  0.61753000  0.49567200  1
