# generated using pymatgen
data_Fe2H19C56I(NO5)4
_symmetry_space_group_name_H-M   'P 1'
_cell_length_a   14.93230300
_cell_length_b   29.35007500
_cell_length_c   11.52754800
_cell_angle_alpha   50.74948700
_cell_angle_beta   78.88236800
_cell_angle_gamma   96.43805900
_symmetry_Int_Tables_number   1
_chemical_formula_structural   Fe2H19C56I(NO5)4
_chemical_formula_sum   'Fe2 H19 C56 I1 N4 O20'
_cell_volume   3652.09068843
_cell_formula_units_Z   1
loop_
 _symmetry_equiv_pos_site_id
 _symmetry_equiv_pos_as_xyz
  1  'x, y, z'
loop_
 _atom_site_type_symbol
 _atom_site_label
 _atom_site_symmetry_multiplicity
 _atom_site_fract_x
 _atom_site_fract_y
 _atom_site_fract_z
 _atom_site_occupancy
  Fe  Fe1  1  0.50169500  0.99933700  0.25432600  1
  Fe  Fe2  1  0.49838800  0.99980100  0.74662500  1
  H  H1  1  0.77334100  0.97061000  0.76573100  1
  H  H2  1  0.92891400  0.96843800  0.80513300  1
  H  H3  1  0.84999100  0.01294700  0.09135200  1
  H  H4  1  0.07155800  0.03148400  0.19534300  1
  H  H5  1  0.15095400  0.98883900  0.90498200  1
  H  H6  1  0.71986000  0.22059500  0.88275600  1
  H  H7  1  0.79727700  0.30621300  0.85468800  1
  H  H8  1  0.78956800  0.47710000  0.77085000  1
  H  H9  1  0.31670600  0.80747400  0.64073000  1
  H  H10  1  0.05871500  0.71547600  0.63238900  1
  H  H11  1  0.97213600  0.63383100  0.66416800  1
  H  H12  1  0.87392900  0.56157800  0.73037900  1
  H  H13  1  0.68678500  0.19143900  0.36003600  1
  H  H14  1  0.95997000  0.28677700  0.33877900  1
  H  H15  1  0.09959700  0.43563200  0.30166500  1
  H  H16  1  0.26927100  0.78108800  0.11617800  1
  H  H17  1  0.18683300  0.52050400  0.25689000  1
  H  H18  1  0.19135600  0.69583400  0.14365500  1
  H  H19  1  0.04994800  0.36869300  0.30274000  1
  C  C1  1  0.79002900  0.97923700  0.83864000  1
  C  C2  1  0.87771200  0.97854300  0.85962900  1
  C  C3  1  0.90150600  0.99223800  0.94630500  1
  C  C4  1  0.83504000  0.00445300  0.01747100  1
  C  C5  1  0.74663000  0.00461800  0.99750200  1
  C  C6  1  0.72543300  0.99380400  0.90385200  1
  C  C7  1  0.12280400  0.02164800  0.14011200  1
  C  C8  1  0.21032500  0.02053100  0.16169400  1
  C  C9  1  0.27490700  0.00617600  0.09579600  1
  C  C10  1  0.25397900  0.99617500  0.00052200  1
  C  C11  1  0.16574500  0.99678100  0.97994200  1
  C  C12  1  0.09918200  0.00861100  0.05210000  1
  C  C13  1  0.39609800  0.91100600  0.56940000  1
  C  C14  1  0.36163500  0.99785500  0.13724800  1
  C  C15  1  0.67356900  0.01108900  0.08659300  1
  C  C16  1  0.61468200  0.10622300  0.15108500  1
  C  C17  1  0.38148400  0.89384200  0.84928000  1
  C  C18  1  0.32696000  0.98991200  0.91076300  1
  C  C19  1  0.63846200  0.00168500  0.86303900  1
  C  C20  1  0.60402500  0.08851000  0.43105900  1
  C  C21  1  0.79015600  0.36188100  0.97678000  1
  C  C22  1  0.84829600  0.29448300  0.17988900  1
  C  C23  1  0.69491400  0.19798800  0.25474700  1
  C  C24  1  0.65341400  0.14881400  0.27125800  1
  C  C25  1  0.71261900  0.21374400  0.98832300  1
  C  C26  1  0.75498400  0.26255300  0.97215100  1
  C  C27  1  0.74679900  0.25481800  0.10531900  1
  C  C28  1  0.89549100  0.40174900  0.04574700  1
  C  C29  1  0.84016100  0.41096600  0.95438800  1
  C  C30  1  0.83425700  0.46915300  0.84153000  1
  C  C31  1  0.89894200  0.34283600  0.15968200  1
  C  C32  1  0.66207300  0.15660200  0.13769900  1
  C  C33  1  0.33362800  0.84367800  0.86227600  1
  C  C34  1  0.99916000  0.55992700  0.87742500  1
  C  C35  1  0.05072500  0.48937400  0.09862900  1
  C  C36  1  0.05058800  0.54901000  0.97656100  1
  C  C37  1  0.00473700  0.62078100  0.75195100  1
  C  C38  1  0.05633500  0.66887000  0.73052400  1
  C  C39  1  0.10443200  0.65772100  0.83199800  1
  C  C40  1  0.10209600  0.59816500  0.95373000  1
  C  C41  1  0.15145900  0.58834600  0.05290300  1
  C  C42  1  0.20152500  0.63751200  0.03014700  1
  C  C43  1  0.15443900  0.70610900  0.81223400  1
  C  C44  1  0.30508000  0.80147700  0.74566600  1
  C  C45  1  0.34556800  0.85083700  0.72912100  1
  C  C46  1  0.27948000  0.78732100  0.01103000  1
  C  C47  1  0.23701000  0.73859400  0.02700100  1
  C  C48  1  0.24958300  0.74536600  0.89447200  1
  C  C49  1  0.94414200  0.51019800  0.90465900  1
  C  C50  1  0.94712400  0.45088200  0.02288500  1
  C  C51  1  0.00146800  0.44027600  0.11814800  1
  C  C52  1  0.88510800  0.51821500  0.81709500  1
  C  C53  1  0.95482800  0.33253100  0.25078300  1
  C  C54  1  0.09983000  0.48027600  0.19949000  1
  C  C55  1  0.14978600  0.52928600  0.17605500  1
  C  C56  1  0.00579800  0.38051100  0.23033300  1
  I  I1  1  0.24259400  0.03629300  0.30558800  1
  N  N1  1  0.99325800  0.99282900  0.96144800  1
  N  N2  1  0.00743700  0.00811800  0.03691300  1
  N  N3  1  0.79499200  0.30456500  0.08840200  1
  N  N4  1  0.20206400  0.69549400  0.91118200  1
  O  O1  1  0.46514000  0.91613100  0.46865100  1
  O  O2  1  0.38563900  0.94830200  0.18548800  1
  O  O3  1  0.36521800  0.95848000  0.52062300  1
  O  O4  1  0.40546300  0.03368300  0.15368400  1
  O  O5  1  0.58349300  0.99690100  0.09951500  1
  O  O6  1  0.69581600  0.02364200  0.17025300  1
  O  O7  1  0.55884900  0.05300400  0.28974600  1
  O  O8  1  0.62384400  0.11545800  0.02157800  1
  O  O9  1  0.44112200  0.94588500  0.71187500  1
  O  O10  1  0.36966900  0.88520600  0.97839500  1
  O  O11  1  0.41664500  0.00229100  0.90146800  1
  O  O12  1  0.30515700  0.97913300  0.82356600  1
  O  O13  1  0.63601200  0.04146600  0.47925400  1
  O  O14  1  0.59493100  0.96572900  0.84674300  1
  O  O15  1  0.53438900  0.08292700  0.53208600  1
  O  O16  1  0.61376100  0.05097200  0.81548000  1
  O  O17  1  0.73490200  0.37112600  0.88893700  1
  O  O18  1  0.15219000  0.76365400  0.69784200  1
  O  O19  1  0.85522600  0.23756500  0.28708000  1
  O  O20  1  0.25158000  0.62756900  0.12519500  1
