# generated using pymatgen
data_ZnH11C24N3O4F
_symmetry_space_group_name_H-M   'P 1'
_cell_length_a   11.36254100
_cell_length_b   13.34065900
_cell_length_c   16.22977600
_cell_angle_alpha   90.04940400
_cell_angle_beta   94.71722600
_cell_angle_gamma   96.66077700
_symmetry_Int_Tables_number   1
_chemical_formula_structural   ZnH11C24N3O4F
_chemical_formula_sum   'Zn2 H22 C48 N6 O8 F2'
_cell_volume   2435.15391339
_cell_formula_units_Z   2
loop_
 _symmetry_equiv_pos_site_id
 _symmetry_equiv_pos_as_xyz
  1  'x, y, z'
loop_
 _atom_site_type_symbol
 _atom_site_label
 _atom_site_symmetry_multiplicity
 _atom_site_fract_x
 _atom_site_fract_y
 _atom_site_fract_z
 _atom_site_occupancy
  Zn  Zn1  1  0.13146600  0.49891500  0.51004200  1
  Zn  Zn2  1  0.86853300  0.50108500  0.48995800  1
  H  H1  1  0.86059300  0.29805900  0.98017600  1
  H  H2  1  0.13940600  0.70194100  0.01982400  1
  H  H3  1  0.96504400  0.99091300  0.27758500  1
  H  H4  1  0.03495600  0.00908700  0.72241500  1
  H  H5  1  0.91008000  0.02748000  0.04335700  1
  H  H6  1  0.08992000  0.97252000  0.95664300  1
  H  H7  1  0.09533600  0.60773900  0.90169000  1
  H  H8  1  0.90466300  0.39226100  0.09831000  1
  H  H9  1  0.99342600  0.82966800  0.66740200  1
  H  H10  1  0.00657300  0.17033200  0.33259800  1
  H  H11  1  0.03487400  0.16922800  0.66332800  1
  H  H12  1  0.96512600  0.83077100  0.33667200  1
  H  H13  1  0.87592200  0.43341500  0.72196600  1
  H  H14  1  0.12407800  0.56658400  0.27803400  1
  H  H15  1  0.84298600  0.37203300  0.85937900  1
  H  H16  1  0.15701400  0.62796700  0.14062100  1
  H  H17  1  0.06384200  0.54032500  0.76090400  1
  H  H18  1  0.93615800  0.45967500  0.23909500  1
  H  H19  1  0.69697300  0.64067200  0.51844500  1
  H  H20  1  0.30302700  0.35932700  0.48155400  1
  H  H21  1  0.70514600  0.33751900  0.44987600  1
  H  H22  1  0.29485400  0.66248100  0.55012400  1
  C  C1  1  0.96673600  0.17690800  0.78333700  1
  C  C2  1  0.03326400  0.82309200  0.21666300  1
  C  C3  1  0.91888500  0.23439600  0.83807200  1
  C  C4  1  0.08111500  0.76560400  0.16192800  1
  C  C5  1  0.91851300  0.18418300  0.91188500  1
  C  C6  1  0.08148700  0.81581700  0.08811500  1
  C  C7  1  0.98816400  0.08902500  0.82352800  1
  C  C8  1  0.01183500  0.91097500  0.17647200  1
  C  C9  1  0.89049900  0.22422800  0.98244700  1
  C  C10  1  0.10950100  0.77577200  0.01755300  1
  C  C11  1  0.91706300  0.18484400  0.06562600  1
  C  C12  1  0.08293600  0.81515600  0.93437400  1
  C  C13  1  0.93537900  0.24281000  0.13700400  1
  C  C14  1  0.06462100  0.75719000  0.86299600  1
  C  C15  1  0.96212300  0.18120200  0.20100300  1
  C  C16  1  0.03787600  0.81879700  0.79899700  1
  C  C17  1  0.95823800  0.08493400  0.16680100  1
  C  C18  1  0.04176200  0.91506600  0.83319900  1
  C  C19  1  0.97579400  0.99161400  0.21192600  1
  C  C20  1  0.02420600  0.00838600  0.78807400  1
  C  C21  1  0.07212300  0.65643200  0.85129900  1
  C  C22  1  0.92787700  0.34356800  0.14870100  1
  C  C23  1  0.05296000  0.61840400  0.77173500  1
  C  C24  1  0.94703900  0.38159600  0.22826500  1
  C  C25  1  0.02129100  0.67827000  0.70540100  1
  C  C26  1  0.97870800  0.32173000  0.29459900  1
  C  C27  1  0.01390700  0.78102200  0.71853000  1
  C  C28  1  0.98609300  0.21897800  0.28146900  1
  C  C29  1  0.99195800  0.21217700  0.70607700  1
  C  C30  1  0.00804100  0.78782200  0.29392300  1
  C  C31  1  0.96116300  0.30695600  0.68570200  1
  C  C32  1  0.03883700  0.69304400  0.31429800  1
  C  C33  1  0.90273000  0.36081800  0.73959200  1
  C  C34  1  0.09727000  0.63918100  0.26040800  1
  C  C35  1  0.88395800  0.32651200  0.81748600  1
  C  C36  1  0.11604100  0.67348800  0.18251400  1
  C  C37  1  0.01045500  0.62937700  0.62309000  1
  C  C38  1  0.98954500  0.37062300  0.37691000  1
  C  C39  1  0.98172200  0.35507500  0.60738600  1
  C  C40  1  0.01827800  0.64492500  0.39261400  1
  C  C41  1  0.46480400  0.62186200  0.53250300  1
  C  C42  1  0.53519600  0.37813800  0.46749700  1
  C  C43  1  0.34396100  0.60082000  0.53666200  1
  C  C44  1  0.65603800  0.39918000  0.46333800  1
  C  C45  1  0.34921000  0.43305700  0.49739800  1
  C  C46  1  0.65079000  0.56694300  0.50260200  1
  C  C47  1  0.47078200  0.45257800  0.49128700  1
  C  C48  1  0.52921800  0.54742200  0.50871200  1
  N  N1  1  0.96035600  0.09426300  0.90306600  1
  N  N2  1  0.03964400  0.90573700  0.09693300  1
  N  N3  1  0.92911600  0.08825200  0.08435900  1
  N  N4  1  0.07088400  0.91174700  0.91564100  1
  N  N5  1  0.71267900  0.49276600  0.47980000  1
  N  N6  1  0.28732100  0.50723400  0.52020000  1
  O  O1  1  0.90441300  0.59842300  0.58658300  1
  O  O2  1  0.09558700  0.40157700  0.41341700  1
  O  O3  1  0.10733200  0.59743900  0.59958400  1
  O  O4  1  0.89266700  0.40256100  0.40041600  1
  O  O5  1  0.09113200  0.38874000  0.59160900  1
  O  O6  1  0.90886800  0.61126000  0.40839100  1
  O  O7  1  0.88805000  0.38962100  0.57139700  1
  O  O8  1  0.11194900  0.61037900  0.42860300  1
  F  F1  1  0.51809600  0.71680500  0.54896700  1
  F  F2  1  0.48190300  0.28319500  0.45103300  1
