# generated using pymatgen
data_Cu2H40C67N2O11
_symmetry_space_group_name_H-M   'P 1'
_cell_length_a   14.97577700
_cell_length_b   13.53825400
_cell_length_c   15.85561900
_cell_angle_alpha   90.00000000
_cell_angle_beta   89.98893700
_cell_angle_gamma   90.00000000
_symmetry_Int_Tables_number   1
_chemical_formula_structural   Cu2H40C67N2O11
_chemical_formula_sum   'Cu2 H40 C67 N2 O11'
_cell_volume   3214.66125418
_cell_formula_units_Z   1
loop_
 _symmetry_equiv_pos_site_id
 _symmetry_equiv_pos_as_xyz
  1  'x, y, z'
loop_
 _atom_site_type_symbol
 _atom_site_label
 _atom_site_symmetry_multiplicity
 _atom_site_fract_x
 _atom_site_fract_y
 _atom_site_fract_z
 _atom_site_occupancy
  Cu  Cu1  1  0.49119500  0.57974600  0.50927500  1
  Cu  Cu2  1  0.49102600  0.38199400  0.50736800  1
  H  H1  1  0.38191200  0.57980100  0.93737900  1
  H  H2  1  0.37142600  0.39620800  0.93500100  1
  H  H3  1  0.38746400  0.59112800  0.07926900  1
  H  H4  1  0.36539100  0.40888700  0.07654200  1
  H  H5  1  0.46061800  0.32735800  0.08297800  1
  H  H6  1  0.49920000  0.64133200  0.07432600  1
  H  H7  1  0.47224300  0.32313700  0.94175800  1
  H  H8  1  0.48956900  0.63937500  0.93236900  1
  H  H9  1  0.63103500  0.52876900  0.08177500  1
  H  H10  1  0.61356300  0.39679400  0.07813400  1
  H  H11  1  0.62756000  0.53755000  0.93966100  1
  H  H12  1  0.62070000  0.40431200  0.93652300  1
  H  H13  1  0.77177400  0.34247800  0.44349500  1
  H  H14  1  0.77044900  0.61829300  0.57358800  1
  H  H15  1  0.90695800  0.68895600  0.61978700  1
  H  H16  1  0.21378100  0.61541500  0.57778800  1
  H  H17  1  0.21126000  0.34276500  0.44554500  1
  H  H18  1  0.07320000  0.26634000  0.40795600  1
  H  H19  1  0.91030600  0.26606900  0.40738700  1
  H  H20  1  0.38707900  0.73815000  0.59887300  1
  H  H21  1  0.38816500  0.22408700  0.59636700  1
  H  H22  1  0.59013000  0.73236700  0.41744200  1
  H  H23  1  0.59146400  0.22792600  0.41465800  1
  H  H24  1  0.32928700  0.07248100  0.64787000  1
  H  H25  1  0.32933500  0.89133300  0.64956000  1
  H  H26  1  0.17693100  0.82204500  0.74766400  1
  H  H27  1  0.23853600  0.78159200  0.88555100  1
  H  H28  1  0.21589800  0.61674100  0.94688900  1
  H  H29  1  0.13070300  0.49145000  0.86848900  1
  H  H30  1  0.06763100  0.52963600  0.73139600  1
  H  H31  1  0.79577700  0.78467200  0.25449900  1
  H  H32  1  0.94756400  0.74367100  0.29749800  1
  H  H33  1  0.00043800  0.78485200  0.43994700  1
  H  H34  1  0.90109000  0.87155000  0.53865200  1
  H  H35  1  0.74934400  0.91291200  0.49808700  1
  H  H36  1  0.77477700  0.17712000  0.23438700  1
  H  H37  1  0.73751000  0.22381300  0.09018200  1
  H  H38  1  0.58984900  0.18540800  0.03158800  1
  H  H39  1  0.47781300  0.10133200  0.11913500  1
  H  H40  1  0.51283600  0.05361800  0.26329400  1
  C  C1  1  0.31966600  0.48053000  0.51001300  1
  C  C2  1  0.49032700  0.48252000  0.34628800  1
  C  C3  1  0.66277700  0.48110500  0.50710500  1
  C  C4  1  0.49302000  0.47922300  0.66995100  1
  C  C5  1  0.45573100  0.57935600  0.05420200  1
  C  C6  1  0.43562500  0.39785200  0.05640200  1
  C  C7  1  0.43998800  0.39326700  0.96119800  1
  C  C8  1  0.45231800  0.57564600  0.95880800  1
  C  C9  1  0.49391600  0.47825000  0.76045100  1
  C  C10  1  0.49278600  0.48270500  0.08757000  1
  C  C11  1  0.49388900  0.47989300  0.92857200  1
  C  C12  1  0.58881900  0.47244700  0.96106500  1
  C  C13  1  0.58775100  0.46921500  0.05649800  1
  C  C14  1  0.49421100  0.47849700  0.83638500  1
  C  C15  1  0.49190400  0.48354900  0.17980800  1
  C  C16  1  0.49109000  0.48342200  0.25580700  1
  C  C17  1  0.80714500  0.40285900  0.47309500  1
  C  C18  1  0.76049600  0.48086700  0.50778300  1
  C  C19  1  0.80645000  0.55800700  0.54460100  1
  C  C20  1  0.89849800  0.55663100  0.54736000  1
  C  C21  1  0.94511300  0.47985900  0.51119700  1
  C  C22  1  0.89930400  0.40310800  0.47371200  1
  C  C23  1  0.94374200  0.63083300  0.58852300  1
  C  C24  1  0.03562700  0.62934300  0.59324900  1
  C  C25  1  0.08327700  0.55536700  0.55219900  1
  C  C26  1  0.03734700  0.47960200  0.51281200  1
  C  C27  1  0.08354700  0.40291700  0.47547700  1
  C  C28  1  0.03759000  0.32650600  0.43754400  1
  C  C29  1  0.94567400  0.32634900  0.43705900  1
  C  C30  1  0.17591500  0.55615100  0.54970800  1
  C  C31  1  0.22193400  0.47994000  0.51159900  1
  C  C32  1  0.17562900  0.40246600  0.47581200  1
  C  C33  1  0.43299100  0.77767100  0.55847500  1
  C  C34  1  0.43378400  0.18449100  0.55581900  1
  C  C35  1  0.54665600  0.77560200  0.45708800  1
  C  C36  1  0.54743700  0.18549700  0.45442000  1
  C  C37  1  0.54867800  0.87808200  0.45471700  1
  C  C38  1  0.54912100  0.08312900  0.45373600  1
  C  C39  1  0.49126200  0.92993100  0.50600400  1
  C  C40  1  0.49170700  0.03179000  0.50555800  1
  C  C41  1  0.43314200  0.87946000  0.55776700  1
  C  C42  1  0.43375700  0.08281500  0.55666600  1
  C  C43  1  0.60740800  0.92927300  0.40272400  1
  C  C44  1  0.60699300  0.03143800  0.40166400  1
  C  C45  1  0.37540100  0.03241900  0.60830400  1
  C  C46  1  0.37521100  0.93069700  0.60909400  1
  C  C47  1  0.07969400  0.70435000  0.64553800  1
  C  C48  1  0.11855600  0.67866700  0.72824000  1
  C  C49  1  0.16626300  0.74887100  0.77297500  1
  C  C50  1  0.20128900  0.72640100  0.85109500  1
  C  C51  1  0.18870400  0.63402900  0.88544400  1
  C  C52  1  0.14106700  0.56388600  0.84151400  1
  C  C53  1  0.10590800  0.58589800  0.76336400  1
  C  C54  1  0.66910500  0.87696400  0.34632900  1
  C  C55  1  0.76051100  0.85116300  0.37315800  1
  C  C56  1  0.81732700  0.80338800  0.31755600  1
  C  C57  1  0.90331400  0.78008900  0.34149000  1
  C  C58  1  0.93317200  0.80365600  0.42110600  1
  C  C59  1  0.87732100  0.85178000  0.47653500  1
  C  C60  1  0.79121100  0.87502200  0.45307000  1
  C  C61  1  0.67063400  0.08311300  0.34687000  1
  C  C62  1  0.64727500  0.11059500  0.25955500  1
  C  C63  1  0.70945700  0.15904800  0.20997900  1
  C  C64  1  0.68862700  0.18592900  0.12847300  1
  C  C65  1  0.60574700  0.16468700  0.09568700  1
  C  C66  1  0.54314600  0.11730700  0.14476300  1
  C  C67  1  0.56361700  0.09018300  0.22639200  1
  N  N1  1  0.49136400  0.72748800  0.50988500  1
  N  N2  1  0.49127000  0.23428900  0.50600200  1
  O  O1  1  0.36161000  0.56546100  0.51307100  1
  O  O2  1  0.36143600  0.39599100  0.50535400  1
  O  O3  1  0.49317800  0.56701000  0.38634900  1
  O  O4  1  0.49302300  0.39723800  0.38473800  1
  O  O5  1  0.62118500  0.56604300  0.51101200  1
  O  O6  1  0.62094300  0.39600700  0.50345600  1
  O  O7  1  0.49533800  0.56465200  0.63149000  1
  O  O8  1  0.49501400  0.39458300  0.62986800  1
  O  O9  1  0.07788100  0.79040000  0.62295300  1
  O  O10  1  0.64304300  0.85292000  0.27642000  1
  O  O11  1  0.74438200  0.10321400  0.37460500  1
