# generated using pymatgen
data_FeH9C19O8
_symmetry_space_group_name_H-M   'P 1'
_cell_length_a   15.51349200
_cell_length_b   12.35393500
_cell_length_c   13.44368100
_cell_angle_alpha   99.94470000
_cell_angle_beta   102.02547600
_cell_angle_gamma   108.54007300
_symmetry_Int_Tables_number   1
_chemical_formula_structural   FeH9C19O8
_chemical_formula_sum   'Fe2 H18 C38 O16'
_cell_volume   2308.51085666
_cell_formula_units_Z   2
loop_
 _symmetry_equiv_pos_site_id
 _symmetry_equiv_pos_as_xyz
  1  'x, y, z'
loop_
 _atom_site_type_symbol
 _atom_site_label
 _atom_site_symmetry_multiplicity
 _atom_site_fract_x
 _atom_site_fract_y
 _atom_site_fract_z
 _atom_site_occupancy
  Fe  Fe1  1  0.49628300  0.99979500  0.78319700  1
  Fe  Fe2  1  0.52391600  0.01328000  0.24346500  1
  H  H1  1  0.79070500  0.99883300  0.25068600  1
  H  H2  1  0.94509900  0.01853000  0.22799100  1
  H  H3  1  0.84644400  0.01650300  0.90694500  1
  H  H4  1  0.05822200  0.06469100  0.13153100  1
  H  H5  1  0.96388200  0.95319900  0.89618400  1
  H  H6  1  0.07745500  0.00147900  0.80029700  1
  H  H7  1  0.23186100  0.02067800  0.77762800  1
  H  H8  1  0.17499200  0.99932600  0.12038700  1
  H  H9  1  0.54491300  0.15370800  0.55983500  1
  H  H10  1  0.46333500  0.40342100  0.72957600  1
  H  H11  1  0.47906900  0.86309800  0.46829900  1
  H  H12  1  0.54917800  0.60068900  0.29750700  1
  H  H13  1  0.55518700  0.43948600  0.36036700  1
  H  H14  1  0.30002500  0.62202700  0.54576600  1
  H  H15  1  0.27770000  0.47102900  0.47801000  1
  H  H16  1  0.22665500  0.50098300  0.58353800  1
  H  H17  1  0.34637500  0.44851900  0.65845900  1
  H  H18  1  0.39756100  0.60389600  0.70576800  1
  C  C1  1  0.80182200  0.00187700  0.17432200  1
  C  C2  1  0.88920500  0.01275400  0.16167200  1
  C  C3  1  0.90533000  0.01424500  0.06528100  1
  C  C4  1  0.83282100  0.00883100  0.98135400  1
  C  C5  1  0.74363600  0.99879100  0.99317500  1
  C  C6  1  0.72829600  0.99275200  0.09142000  1
  C  C7  1  0.00161500  0.02690400  0.05875100  1
  C  C8  1  0.02040700  0.99093800  0.96902100  1
  C  C9  1  0.13312600  0.00635100  0.86642800  1
  C  C10  1  0.22048400  0.01703000  0.85380000  1
  C  C11  1  0.29360800  0.02477800  0.93647700  1
  C  C12  1  0.27797100  0.01758200  0.03429900  1
  C  C13  1  0.18888600  0.00789400  0.04624000  1
  C  C14  1  0.11670900  0.00371100  0.96256600  1
  C  C15  1  0.49642600  0.20520900  0.72855800  1
  C  C16  1  0.38228400  0.03260100  0.91145600  1
  C  C17  1  0.67098700  0.00222000  0.90337600  1
  C  C18  1  0.48764600  0.79267200  0.64158700  1
  C  C19  1  0.53057800  0.21849300  0.38271200  1
  C  C20  1  0.35036600  0.01264300  0.12337300  1
  C  C21  1  0.63938500  0.98372600  0.11653100  1
  C  C22  1  0.52287300  0.80678400  0.29824700  1
  C  C23  1  0.52946700  0.28812500  0.48329900  1
  C  C24  1  0.53277200  0.23560900  0.56612700  1
  C  C25  1  0.50955700  0.27785700  0.65381500  1
  C  C26  1  0.48143300  0.37310000  0.65937100  1
  C  C27  1  0.48341600  0.43277000  0.58043400  1
  C  C28  1  0.51369000  0.39437500  0.49533800  1
  C  C29  1  0.45461400  0.52956900  0.58522500  1
  C  C30  1  0.48174100  0.60606100  0.52201600  1
  C  C31  1  0.51146600  0.56683600  0.43711700  1
  C  C32  1  0.52644200  0.46201800  0.42377400  1
  C  C33  1  0.47903500  0.71972400  0.53854300  1
  C  C34  1  0.48294200  0.77633600  0.45855200  1
  C  C35  1  0.50529300  0.73240300  0.37085800  1
  C  C36  1  0.52574500  0.63147000  0.36345500  1
  C  C37  1  0.37511800  0.53072900  0.63453100  1
  C  C38  1  0.29006800  0.53191000  0.55499900  1
  O  O1  1  0.55690700  0.15311600  0.75351000  1
  O  O2  1  0.46051300  0.12436900  0.96015800  1
  O  O3  1  0.41259400  0.16599900  0.74408200  1
  O  O4  1  0.37693700  0.96100100  0.82427300  1
  O  O5  1  0.58545600  0.99085200  0.91048600  1
  O  O6  1  0.69237300  0.01853700  0.81628300  1
  O  O7  1  0.46745700  0.88814800  0.64273100  1
  O  O8  1  0.53320000  0.77819900  0.72905800  1
  O  O9  1  0.55066100  0.12327100  0.38431500  1
  O  O10  1  0.49270500  0.23389900  0.29206300  1
  O  O11  1  0.43565000  0.02305100  0.11577400  1
  O  O12  1  0.32913400  0.99637500  0.21054600  1
  O  O13  1  0.60858500  0.84771000  0.28780700  1
  O  O14  1  0.64421300  0.05397100  0.20433800  1
  O  O15  1  0.46286900  0.85883100  0.27114800  1
  O  O16  1  0.56142500  0.89185300  0.06710600  1
