# generated using pymatgen
data_ZnH5C11N3O5
_symmetry_space_group_name_H-M   'P 1'
_cell_length_a   8.49152100
_cell_length_b   12.63879800
_cell_length_c   12.36077200
_cell_angle_alpha   95.93558700
_cell_angle_beta   90.08439900
_cell_angle_gamma   95.46754900
_symmetry_Int_Tables_number   1
_chemical_formula_structural   ZnH5C11N3O5
_chemical_formula_sum   'Zn2 H10 C22 N6 O10'
_cell_volume   1313.38913513
_cell_formula_units_Z   2
loop_
 _symmetry_equiv_pos_site_id
 _symmetry_equiv_pos_as_xyz
  1  'x, y, z'
loop_
 _atom_site_type_symbol
 _atom_site_label
 _atom_site_symmetry_multiplicity
 _atom_site_fract_x
 _atom_site_fract_y
 _atom_site_fract_z
 _atom_site_occupancy
  Zn  Zn1  1  0.50655700  0.51432600  0.87977800  1
  Zn  Zn2  1  0.49737500  0.48573300  0.11616800  1
  H  H1  1  0.29341200  0.85504100  0.98658700  1
  H  H2  1  0.70947700  0.14481000  0.00832500  1
  H  H3  1  0.55181200  0.61973200  0.50121500  1
  H  H4  1  0.45208000  0.38013500  0.49467400  1
  H  H5  1  0.02054600  0.58110400  0.08135100  1
  H  H6  1  0.98362700  0.41811300  0.91288500  1
  H  H7  1  0.56900400  0.91267500  0.06355500  1
  H  H8  1  0.64760700  0.81716200  0.12442100  1
  H  H9  1  0.29879600  0.03058600  0.10555600  1
  H  H10  1  0.15664100  0.10674700  0.15831100  1
  C  C1  1  0.17261500  0.71339300  0.03897600  1
  C  C2  1  0.83118800  0.28662700  0.95687900  1
  C  C3  1  0.18051400  0.81549200  0.00691100  1
  C  C4  1  0.82279900  0.18473400  0.98930200  1
  C  C5  1  0.04446100  0.86776100  0.00180700  1
  C  C6  1  0.95898100  0.13311600  0.99642300  1
  C  C7  1  0.89818300  0.81175200  0.01544800  1
  C  C8  1  0.10541600  0.18945200  0.98461000  1
  C  C9  1  0.89191900  0.71020500  0.04717000  1
  C  C10  1  0.11206700  0.28972600  0.94959100  1
  C  C11  1  0.02845200  0.66367900  0.06453200  1
  C  C12  1  0.97555600  0.33589000  0.93090500  1
  C  C13  1  0.48397000  0.45635200  0.46366900  1
  C  C14  1  0.51993300  0.54353300  0.53224900  1
  C  C15  1  0.74534800  0.64116100  0.03249900  1
  C  C16  1  0.25860500  0.35885800  0.96355300  1
  C  C17  1  0.69740400  0.35198000  0.96861300  1
  C  C18  1  0.30657200  0.64814100  0.02728800  1
  C  C19  1  0.51651700  0.53661900  0.64760500  1
  C  C20  1  0.48739400  0.46333600  0.34832700  1
  C  C21  1  0.74918300  0.85087900  0.98354500  1
  C  C22  1  0.25459500  0.15158700  0.01868400  1
  N  N1  1  0.05770300  0.97617400  0.98028300  1
  N  N2  1  0.94570400  0.02489400  0.01798400  1
  N  N3  1  0.49045900  0.46980800  0.25566200  1
  N  N4  1  0.51346000  0.53023400  0.74028200  1
  N  N5  1  0.61192400  0.83784700  0.04917200  1
  N  N6  1  0.26641200  0.10832700  0.12042500  1
  O  O1  1  0.68695200  0.59439200  0.11539800  1
  O  O2  1  0.31690300  0.40567300  0.88058000  1
  O  O3  1  0.68765000  0.62149700  0.93336800  1
  O  O4  1  0.31639200  0.37853300  0.06258400  1
  O  O5  1  0.65741200  0.40100200  0.88537900  1
  O  O6  1  0.34648200  0.59904200  0.11053300  1
  O  O7  1  0.64331000  0.37386600  0.06702800  1
  O  O8  1  0.36069500  0.62623900  0.92890800  1
  O  O9  1  0.74149300  0.89282300  0.89940000  1
  O  O10  1  0.37304000  0.16598600  0.96443800  1
