# generated using pymatgen
data_Zn2H13C34N2Cl3O8
_symmetry_space_group_name_H-M   'P 1'
_cell_length_a   11.92037800
_cell_length_b   12.52076900
_cell_length_c   13.70364100
_cell_angle_alpha   86.65014700
_cell_angle_beta   90.00505600
_cell_angle_gamma   101.75722300
_symmetry_Int_Tables_number   1
_chemical_formula_structural   Zn2H13C34N2Cl3O8
_chemical_formula_sum   'Zn2 H13 C34 N2 Cl3 O8'
_cell_volume   1998.82158247
_cell_formula_units_Z   1
loop_
 _symmetry_equiv_pos_site_id
 _symmetry_equiv_pos_as_xyz
  1  'x, y, z'
loop_
 _atom_site_type_symbol
 _atom_site_label
 _atom_site_symmetry_multiplicity
 _atom_site_fract_x
 _atom_site_fract_y
 _atom_site_fract_z
 _atom_site_occupancy
  Zn  Zn1  1  0.47895200  0.38223700  0.47681100  1
  Zn  Zn2  1  0.53029600  0.62244700  0.52118800  1
  H  H1  1  0.44745100  0.74523000  0.89320000  1
  H  H2  1  0.51307600  0.80336600  0.04633200  1
  H  H3  1  0.49588100  0.42480800  0.16670800  1
  H  H4  1  0.50406000  0.25232600  0.76593300  1
  H  H5  1  0.52007800  0.31892500  0.06145900  1
  H  H6  1  0.51823100  0.19558600  0.93606400  1
  H  H7  1  0.41573700  0.61065100  0.77596200  1
  H  H8  1  0.32274200  0.24566000  0.34263600  1
  H  H9  1  0.30714200  0.87295800  0.33551400  1
  H  H10  1  0.27737400  0.05252800  0.30775100  1
  H  H11  1  0.56359000  0.18962000  0.54898900  1
  H  H12  1  0.64336800  0.07814000  0.62197200  1
  H  H13  1  0.40342300  0.74450300  0.41347200  1
  C  C1  1  0.49074900  0.44724900  0.68739100  1
  C  C2  1  0.72414700  0.50335500  0.49877900  1
  C  C3  1  0.51729300  0.55762700  0.31056000  1
  C  C4  1  0.28496900  0.50081500  0.49936400  1
  C  C5  1  0.84444600  0.50299400  0.49891400  1
  C  C6  1  0.94541300  0.50245000  0.49907800  1
  C  C7  1  0.06370100  0.50171000  0.49926900  1
  C  C8  1  0.16466800  0.50116900  0.49937300  1
  C  C9  1  0.51017400  0.71957500  0.07210500  1
  C  C10  1  0.51877000  0.58892800  0.20430600  1
  C  C11  1  0.49692200  0.30978400  0.82026800  1
  C  C12  1  0.50600000  0.27733900  0.91669100  1
  C  C13  1  0.50575400  0.34926400  0.98852400  1
  C  C14  1  0.49031600  0.45504100  0.96555500  1
  C  C15  1  0.47479400  0.48614600  0.86742400  1
  C  C16  1  0.49405000  0.53196900  0.03738500  1
  C  C17  1  0.48876000  0.63804400  0.00787900  1
  C  C18  1  0.46081900  0.66415700  0.91389700  1
  C  C19  1  0.44775900  0.58749000  0.84565500  1
  C  C20  1  0.50307600  0.50743400  0.13771000  1
  C  C21  1  0.53135500  0.69729900  0.16856800  1
  C  C22  1  0.48442400  0.41476900  0.79358300  1
  C  C23  1  0.34131800  0.08031500  0.36160600  1
  C  C24  1  0.64219700  0.81314200  0.61918200  1
  C  C25  1  0.66923300  0.91988500  0.64322800  1
  C  C26  1  0.61697600  0.99659700  0.59847200  1
  C  C27  1  0.53501800  0.96642500  0.52808000  1
  C  C28  1  0.50857200  0.85647600  0.50537900  1
  C  C29  1  0.47905300  0.04303900  0.47954900  1
  C  C30  1  0.39721200  0.00778700  0.41072800  1
  C  C31  1  0.37072900  0.90010300  0.38982800  1
  C  C32  1  0.42588600  0.82596800  0.43592100  1
  C  C33  1  0.50183400  0.15437500  0.49683800  1
  C  C34  1  0.36677000  0.18870800  0.38094000  1
  N  N1  1  0.44597400  0.22375300  0.44775900  1
  N  N2  1  0.56273200  0.78067900  0.55021700  1
  Cl  Cl1  1  0.57494500  0.81158800  0.23797200  1
  Cl  Cl2  1  0.71520000  0.72349200  0.68317300  1
  Cl  Cl3  1  0.77211800  0.95842700  0.73264200  1
  O  O1  1  0.47485400  0.36970600  0.62501300  1
  O  O2  1  0.51705300  0.55112300  0.65835300  1
  O  O3  1  0.65229300  0.41215500  0.48271400  1
  O  O4  1  0.69169400  0.59462900  0.51525700  1
  O  O5  1  0.49439700  0.45313100  0.33925000  1
  O  O6  1  0.53327400  0.63464900  0.37307600  1
  O  O7  1  0.31754800  0.41013500  0.48119400  1
  O  O8  1  0.35674900  0.59134900  0.51736100  1
