# generated using pymatgen
data_CuH24C30NO5
_symmetry_space_group_name_H-M   'P 1'
_cell_length_a   19.34768100
_cell_length_b   17.90728300
_cell_length_c   10.68056500
_cell_angle_alpha   90.00000000
_cell_angle_beta   90.01376300
_cell_angle_gamma   90.00000000
_symmetry_Int_Tables_number   1
_chemical_formula_structural   CuH24C30NO5
_chemical_formula_sum   'Cu2 H48 C60 N2 O10'
_cell_volume   3700.43542760
_cell_formula_units_Z   2
loop_
 _symmetry_equiv_pos_site_id
 _symmetry_equiv_pos_as_xyz
  1  'x, y, z'
loop_
 _atom_site_type_symbol
 _atom_site_label
 _atom_site_symmetry_multiplicity
 _atom_site_fract_x
 _atom_site_fract_y
 _atom_site_fract_z
 _atom_site_occupancy
  Cu  Cu1  1  0.49314800  0.57107000  0.49098700  1
  Cu  Cu2  1  0.49260900  0.42177400  0.49181600  1
  H  H1  1  0.46354800  0.61438800  0.09799600  1
  H  H2  1  0.49333400  0.37581000  0.09276400  1
  H  H3  1  0.39125100  0.55123800  0.08360500  1
  H  H4  1  0.40760600  0.41504600  0.09353300  1
  H  H5  1  0.40222100  0.56073600  0.87465200  1
  H  H6  1  0.40767900  0.42384000  0.88422700  1
  H  H7  1  0.47911700  0.61618800  0.89198600  1
  H  H8  1  0.48876800  0.37445200  0.88456300  1
  H  H9  1  0.58016200  0.56427800  0.09544400  1
  H  H10  1  0.59714600  0.46942500  0.12586600  1
  H  H11  1  0.71099000  0.37664800  0.47140600  1
  H  H12  1  0.71025200  0.61565600  0.47365400  1
  H  H13  1  0.83608400  0.37729600  0.46841500  1
  H  H14  1  0.83509200  0.61615900  0.46820100  1
  H  H15  1  0.92749500  0.58851100  0.60459800  1
  H  H16  1  0.93333200  0.40636600  0.34570800  1
  H  H17  1  0.05236300  0.58854400  0.61402600  1
  H  H18  1  0.05832200  0.40620400  0.35566400  1
  H  H19  1  0.14952500  0.37797400  0.49706200  1
  H  H20  1  0.15018300  0.61675500  0.48888600  1
  H  H21  1  0.27453000  0.37753400  0.50321400  1
  H  H22  1  0.27511900  0.61656800  0.49772100  1
  H  H23  1  0.41076400  0.68891300  0.36426900  1
  H  H24  1  0.41135800  0.30293800  0.35959100  1
  H  H25  1  0.40846600  0.82467000  0.36105300  1
  H  H26  1  0.41190600  0.16701300  0.35372900  1
  H  H27  1  0.57440700  0.82665100  0.62565600  1
  H  H28  1  0.57655900  0.16722800  0.62067600  1
  H  H29  1  0.57483800  0.69059500  0.62220200  1
  H  H30  1  0.57433300  0.30317600  0.62018700  1
  H  H31  1  0.60307600  0.92831300  0.49556900  1
  H  H32  1  0.60382400  0.06336100  0.49345800  1
  H  H33  1  0.38284600  0.06465200  0.48327900  1
  H  H34  1  0.38205800  0.92960200  0.48497700  1
  H  H35  1  0.67019300  0.53451100  0.74837500  1
  H  H36  1  0.70327900  0.53642100  0.90723800  1
  H  H37  1  0.60265100  0.69810800  0.89175600  1
  H  H38  1  0.64928000  0.82286400  0.86264300  1
  H  H39  1  0.76619300  0.84067600  0.77791400  1
  H  H40  1  0.83707400  0.73162600  0.72227100  1
  H  H41  1  0.79118800  0.60505700  0.75150900  1
  H  H42  1  0.60491800  0.35793100  0.02272400  1
  H  H43  1  0.68299400  0.41367600  0.01393800  1
  H  H44  1  0.74523700  0.40532200  0.79414700  1
  H  H45  1  0.80342400  0.30912600  0.66862100  1
  H  H46  1  0.76544800  0.17843200  0.68057800  1
  H  H47  1  0.66977100  0.14344900  0.82023500  1
  H  H48  1  0.61182400  0.23847900  0.94680800  1
  C  C1  1  0.36006100  0.49691800  0.50017500  1
  C  C2  1  0.48752900  0.49659500  0.25091300  1
  C  C3  1  0.62569800  0.49596800  0.48106100  1
  C  C4  1  0.49843500  0.49621800  0.73237500  1
  C  C5  1  0.44636500  0.56006700  0.05907500  1
  C  C6  1  0.46140500  0.42337600  0.06046400  1
  C  C7  1  0.45429500  0.56258500  0.91800900  1
  C  C8  1  0.46175700  0.42510200  0.91868400  1
  C  C9  1  0.56403200  0.50682000  0.06984800  1
  C  C10  1  0.48959500  0.49649800  0.11099100  1
  C  C11  1  0.49692900  0.49616600  0.87295300  1
  C  C12  1  0.57019100  0.49999700  0.92707400  1
  C  C13  1  0.73772000  0.42962600  0.47111800  1
  C  C14  1  0.73724800  0.56282200  0.47271100  1
  C  C15  1  0.80899700  0.43004600  0.46836300  1
  C  C16  1  0.80845300  0.56317500  0.47086400  1
  C  C17  1  0.84495200  0.49683000  0.47047900  1
  C  C18  1  0.70143500  0.49602600  0.47477400  1
  C  C19  1  0.95561200  0.54893900  0.54774700  1
  C  C20  1  0.95882800  0.44605100  0.40629500  1
  C  C21  1  0.02681300  0.54896900  0.55321900  1
  C  C22  1  0.03005600  0.44598000  0.41194700  1
  C  C23  1  0.06462000  0.49744200  0.48548500  1
  C  C24  1  0.92098000  0.49743900  0.47433100  1
  C  C25  1  0.17663500  0.43071400  0.49538700  1
  C  C26  1  0.17692900  0.56384800  0.49363800  1
  C  C27  1  0.24789000  0.43054200  0.50009300  1
  C  C28  1  0.24819600  0.56373200  0.49757200  1
  C  C29  1  0.28417500  0.49708800  0.50025700  1
  C  C30  1  0.14058300  0.49733900  0.49161700  1
  C  C31  1  0.44680300  0.71967400  0.42186000  1
  C  C32  1  0.44791300  0.27271100  0.41699000  1
  C  C33  1  0.44524300  0.79665000  0.42092400  1
  C  C34  1  0.44774600  0.19569900  0.41473000  1
  C  C35  1  0.49203500  0.83660400  0.49206200  1
  C  C36  1  0.49386800  0.15628200  0.48789600  1
  C  C37  1  0.53838100  0.79760200  0.56561600  1
  C  C38  1  0.54022000  0.19576000  0.56078600  1
  C  C39  1  0.53825800  0.72056800  0.56475700  1
  C  C40  1  0.53874200  0.27275900  0.56128000  1
  C  C41  1  0.55426300  0.95760100  0.49442000  1
  C  C42  1  0.55473500  0.03459400  0.49331400  1
  C  C43  1  0.49344600  0.07412000  0.48834400  1
  C  C44  1  0.49247400  0.91878900  0.49041600  1
  C  C45  1  0.43165400  0.03533200  0.48397500  1
  C  C46  1  0.43117300  0.95831800  0.48493100  1
  C  C47  1  0.66836100  0.56420400  0.83937600  1
  C  C48  1  0.69379600  0.64231000  0.82178600  1
  C  C49  1  0.65413000  0.70386800  0.85385400  1
  C  C50  1  0.68029800  0.77488700  0.83780300  1
  C  C51  1  0.74584400  0.78494000  0.79030100  1
  C  C52  1  0.78553000  0.72386800  0.75907900  1
  C  C53  1  0.75961100  0.65281300  0.77512800  1
  C  C54  1  0.64154700  0.38616300  0.95889900  1
  C  C55  1  0.67429900  0.32852400  0.87765800  1
  C  C56  1  0.72798400  0.34799600  0.79914200  1
  C  C57  1  0.76077000  0.29403900  0.72871400  1
  C  C58  1  0.73969600  0.22065600  0.73584500  1
  C  C59  1  0.68607200  0.20107200  0.81408800  1
  C  C60  1  0.65344700  0.25482100  0.88511600  1
  N  N1  1  0.49392700  0.68279400  0.49138700  1
  N  N2  1  0.49195500  0.31005300  0.49204000  1
  O  O1  1  0.39278200  0.56089800  0.49371200  1
  O  O2  1  0.39231400  0.43264700  0.50324300  1
  O  O3  1  0.49199200  0.56070000  0.30940900  1
  O  O4  1  0.48604700  0.43240000  0.30996000  1
  O  O5  1  0.59350300  0.56022600  0.47995400  1
  O  O6  1  0.59305100  0.43199500  0.48854000  1
  O  O7  1  0.49953900  0.56039500  0.67313600  1
  O  O8  1  0.49414200  0.43221800  0.67359100  1
  O  O9  1  0.60200500  0.56395700  0.88498800  1
  O  O10  1  0.60729300  0.43809700  0.88634900  1
