# generated using pymatgen
data_ZnH13C17(NO3)2
_symmetry_space_group_name_H-M   'P 1'
_cell_length_a   8.53856200
_cell_length_b   12.76173900
_cell_length_c   13.40589500
_cell_angle_alpha   90.87711500
_cell_angle_beta   90.06515900
_cell_angle_gamma   95.44480600
_symmetry_Int_Tables_number   1
_chemical_formula_structural   ZnH13C17(NO3)2
_chemical_formula_sum   'Zn2 H26 C34 N4 O12'
_cell_volume   1454.03247217
_cell_formula_units_Z   2
loop_
 _symmetry_equiv_pos_site_id
 _symmetry_equiv_pos_as_xyz
  1  'x, y, z'
loop_
 _atom_site_type_symbol
 _atom_site_label
 _atom_site_symmetry_multiplicity
 _atom_site_fract_x
 _atom_site_fract_y
 _atom_site_fract_z
 _atom_site_occupancy
  Zn  Zn1  1  0.50319900  0.50779700  0.88914400  1
  Zn  Zn2  1  0.49679700  0.49221500  0.11085800  1
  H  H1  1  0.79243400  0.84986800  0.99698000  1
  H  H2  1  0.20756100  0.15014400  0.00302200  1
  H  H3  1  0.01636900  0.57326700  0.04158200  1
  H  H4  1  0.98362800  0.42674600  0.95841900  1
  H  H5  1  0.48371400  0.65046100  0.24706900  1
  H  H6  1  0.51628300  0.34955100  0.75293300  1
  H  H7  1  0.32001100  0.68082800  0.45547600  1
  H  H8  1  0.67998600  0.31918500  0.54452500  1
  H  H9  1  0.48145200  0.76399200  0.58398700  1
  H  H10  1  0.51854400  0.23602100  0.41601500  1
  H  H11  1  0.51469200  0.24676800  0.60376400  1
  H  H12  1  0.48530400  0.75324400  0.39623700  1
  H  H13  1  0.65837100  0.71873400  0.53046800  1
  H  H14  1  0.34162600  0.28127900  0.46953300  1
  H  H15  1  0.27562800  0.81431500  0.84325000  1
  H  H16  1  0.46971600  0.88125400  0.86205100  1
  H  H17  1  0.30006100  0.95627400  0.85876400  1
  H  H18  1  0.53028100  0.11876000  0.13795100  1
  H  H19  1  0.72436900  0.18569800  0.15675200  1
  H  H20  1  0.69993500  0.04373800  0.14123700  1
  H  H21  1  0.24610000  0.32607500  0.26490700  1
  H  H22  1  0.30335600  0.20101400  0.30761200  1
  H  H23  1  0.28403000  0.22230300  0.17682400  1
  H  H24  1  0.69664000  0.79899900  0.69239000  1
  H  H25  1  0.75389600  0.67393800  0.73509500  1
  H  H26  1  0.71596600  0.77770900  0.82317800  1
  C  C1  1  0.17036000  0.70887000  0.01135800  1
  C  C2  1  0.82963700  0.29114300  0.98864300  1
  C  C3  1  0.18240200  0.81628700  0.99668800  1
  C  C4  1  0.81759400  0.18372600  0.00331400  1
  C  C5  1  0.04798200  0.86961400  0.99806500  1
  C  C6  1  0.95201400  0.13039900  0.00193600  1
  C  C7  1  0.90089000  0.81311200  0.00338400  1
  C  C8  1  0.09910600  0.18690000  0.99661800  1
  C  C9  1  0.89091000  0.70607000  0.01724100  1
  C  C10  1  0.10908700  0.29394300  0.98276000  1
  C  C11  1  0.02526200  0.65624700  0.02744800  1
  C  C12  1  0.97473400  0.34376500  0.97255300  1
  C  C13  1  0.74104800  0.64137700  0.01191200  1
  C  C14  1  0.25894800  0.35863600  0.98809000  1
  C  C15  1  0.69501400  0.35399500  0.99327200  1
  C  C16  1  0.30498200  0.64601800  0.00672900  1
  C  C17  1  0.48610700  0.39588300  0.29369500  1
  C  C18  1  0.51388900  0.60412900  0.70630700  1
  C  C19  1  0.48768900  0.57945300  0.28936000  1
  C  C20  1  0.51230800  0.42055900  0.71064100  1
  C  C21  1  0.48549900  0.58555800  0.39189700  1
  C  C22  1  0.51449700  0.41445500  0.60810500  1
  C  C23  1  0.49635300  0.49636200  0.44590900  1
  C  C24  1  0.50364200  0.50365000  0.55409200  1
  C  C25  1  0.49059700  0.40003700  0.39731200  1
  C  C26  1  0.50940000  0.59997600  0.60268900  1
  C  C27  1  0.44884000  0.68450500  0.44327000  1
  C  C28  1  0.55115600  0.31550700  0.55673100  1
  C  C29  1  0.53092800  0.69842100  0.54340900  1
  C  C30  1  0.46906900  0.30159100  0.45659300  1
  C  C31  1  0.34374400  0.88125200  0.88203100  1
  C  C32  1  0.65625200  0.11876000  0.11797000  1
  C  C33  1  0.32020000  0.26104300  0.24883600  1
  C  C34  1  0.67979600  0.73897000  0.75116600  1
  N  N1  1  0.06337600  0.98072300  0.99265500  1
  N  N2  1  0.93662000  0.01928900  0.00734600  1
  N  N3  1  0.49156200  0.48597300  0.24157300  1
  N  N4  1  0.50843400  0.51403900  0.75842800  1
  O  O1  1  0.68400800  0.59903500  0.09426700  1
  O  O2  1  0.31598800  0.40097800  0.90573500  1
  O  O3  1  0.68330800  0.61608600  0.92307400  1
  O  O4  1  0.31668900  0.38392600  0.07692700  1
  O  O5  1  0.65400800  0.39790500  0.91060400  1
  O  O6  1  0.34598900  0.60210700  0.08939700  1
  O  O7  1  0.64293000  0.38047600  0.08153800  1
  O  O8  1  0.35706600  0.61953700  0.91846300  1
  O  O9  1  0.32680500  0.87057000  0.98491800  1
  O  O10  1  0.67319100  0.12944300  0.01508400  1
  O  O11  1  0.47818200  0.30083200  0.24423200  1
  O  O12  1  0.52181400  0.69918000  0.75577000  1
