# generated using pymatgen
data_FeH11C20O9
_symmetry_space_group_name_H-M   'P 1'
_cell_length_a   15.29831300
_cell_length_b   9.26531500
_cell_length_c   16.34078500
_cell_angle_alpha   91.98006800
_cell_angle_beta   102.88556000
_cell_angle_gamma   107.54048700
_symmetry_Int_Tables_number   1
_chemical_formula_structural   FeH11C20O9
_chemical_formula_sum   'Fe2 H22 C40 O18'
_cell_volume   2139.95249271
_cell_formula_units_Z   2
loop_
 _symmetry_equiv_pos_site_id
 _symmetry_equiv_pos_as_xyz
  1  'x, y, z'
loop_
 _atom_site_type_symbol
 _atom_site_label
 _atom_site_symmetry_multiplicity
 _atom_site_fract_x
 _atom_site_fract_y
 _atom_site_fract_z
 _atom_site_occupancy
  Fe  Fe1  1  0.47968100  0.98328700  0.81564000  1
  Fe  Fe2  1  0.49707600  0.99710700  0.19017000  1
  H  H1  1  0.78958200  0.04723100  0.21095600  1
  H  H2  1  0.94473700  0.07516700  0.18628700  1
  H  H3  1  0.83247300  0.06127100  0.92232100  1
  H  H4  1  0.05147700  0.12063100  0.09184100  1
  H  H5  1  0.93914100  0.94503900  0.91924400  1
  H  H6  1  0.04092900  0.95712300  0.82424200  1
  H  H7  1  0.19142400  0.95712600  0.79830900  1
  H  H8  1  0.16196400  0.01906300  0.08919700  1
  H  H9  1  0.47665400  0.11818900  0.55430400  1
  H  H10  1  0.54344900  0.19790500  0.44925800  1
  H  H11  1  0.50162400  0.86902700  0.45978700  1
  H  H12  1  0.36683800  0.15235400  0.50955400  1
  H  H13  1  0.41829500  0.12824100  0.39653700  1
  H  H14  1  0.54696800  0.86379900  0.60829000  1
  H  H15  1  0.41144400  0.72619800  0.49089100  1
  H  H16  1  0.49796500  0.54081600  0.22916400  1
  H  H17  1  0.66150200  0.70042800  0.53074000  1
  H  H18  1  0.69638600  0.81474500  0.63037900  1
  H  H19  1  0.73218400  0.00000000  0.56996100  1
  H  H20  1  0.42431300  0.33852300  0.81042000  1
  H  H21  1  0.44064100  0.53327900  0.82393000  1
  H  H22  1  0.60727300  0.48352400  0.83042300  1
  C  C1  1  0.79833100  0.05086300  0.14714100  1
  C  C2  1  0.88590300  0.06617500  0.13332100  1
  C  C3  1  0.89747500  0.06175500  0.05228400  1
  C  C4  1  0.82202200  0.05445200  0.98537100  1
  C  C5  1  0.73328600  0.03976300  0.99841800  1
  C  C6  1  0.72098600  0.03142900  0.08041500  1
  C  C7  1  0.99072600  0.06658000  0.04012400  1
  C  C8  1  0.00061400  0.99996600  0.97022900  1
  C  C9  1  0.10074000  0.97169700  0.87719400  1
  C  C10  1  0.18562200  0.97033500  0.86267000  1
  C  C11  1  0.26395700  0.99336200  0.92888600  1
  C  C12  1  0.25542800  0.00880700  0.01157400  1
  C  C13  1  0.16956900  0.01129300  0.02537700  1
  C  C14  1  0.09276000  0.99691600  0.95831500  1
  C  C15  1  0.46393000  0.19018600  0.70193400  1
  C  C16  1  0.35405300  0.00796500  0.90776900  1
  C  C17  1  0.65667200  0.03764400  0.92464600  1
  C  C18  1  0.52333800  0.74415200  0.74380400  1
  C  C19  1  0.49038500  0.26331500  0.26430200  1
  C  C20  1  0.33254300  0.01416800  0.08548600  1
  C  C21  1  0.62902800  0.00047100  0.10063100  1
  C  C22  1  0.50675500  0.79276600  0.30741600  1
  C  C23  1  0.49066500  0.46645100  0.71891400  1
  C  C24  1  0.47714900  0.33661200  0.66650900  1
  C  C25  1  0.47441400  0.34500500  0.58135900  1
  C  C26  1  0.44493500  0.20162100  0.52375000  1
  C  C27  1  0.47460200  0.21912600  0.44131700  1
  C  C28  1  0.51065600  0.60772200  0.68785900  1
  C  C29  1  0.51540900  0.61662900  0.60388900  1
  C  C30  1  0.49176600  0.48437400  0.54977800  1
  C  C31  1  0.48691400  0.49393900  0.45929300  1
  C  C32  1  0.48188100  0.36880500  0.40715700  1
  C  C33  1  0.48743000  0.38557200  0.32341100  1
  C  C34  1  0.54913100  0.76579900  0.56968800  1
  C  C35  1  0.48499500  0.75653200  0.48365500  1
  C  C36  1  0.49126500  0.63201900  0.42735300  1
  C  C37  1  0.49543300  0.64782800  0.34404800  1
  C  C38  1  0.49260500  0.52460200  0.29318600  1
  C  C39  1  0.65141700  0.79701800  0.56512600  1
  C  C40  1  0.47462800  0.45087500  0.80632100  1
  O  O1  1  0.52588000  0.17896500  0.76953700  1
  O  O2  1  0.42849600  0.12596000  0.94134500  1
  O  O3  1  0.38610500  0.07592400  0.67190900  1
  O  O4  1  0.35576000  0.91788900  0.84474400  1
  O  O5  1  0.56793000  0.99591400  0.92872100  1
  O  O6  1  0.67678800  0.07049600  0.85212200  1
  O  O7  1  0.47209600  0.83380600  0.72038400  1
  O  O8  1  0.57422100  0.76271900  0.82161400  1
  O  O9  1  0.49560100  0.13195500  0.28830700  1
  O  O10  1  0.49021800  0.28751000  0.18560800  1
  O  O11  1  0.40928900  0.98568100  0.07694600  1
  O  O12  1  0.32138900  0.03612300  0.16173000  1
  O  O13  1  0.57631700  0.91484300  0.34482600  1
  O  O14  1  0.62167300  0.08280500  0.16415900  1
  O  O15  1  0.45756600  0.79404000  0.23055800  1
  O  O16  1  0.56093400  0.87342000  0.06823600  1
  O  O17  1  0.68042900  0.92842900  0.52597000  1
  O  O18  1  0.56036800  0.47188800  0.86483100  1
