# generated using pymatgen
data_CoH7C14(NO)4
_symmetry_space_group_name_H-M   'P 1'
_cell_length_a   6.68189800
_cell_length_b   15.74459700
_cell_length_c   15.98332800
_cell_angle_alpha   96.66226700
_cell_angle_beta   81.38342700
_cell_angle_gamma   93.85509800
_symmetry_Int_Tables_number   1
_chemical_formula_structural   CoH7C14(NO)4
_chemical_formula_sum   'Co2 H14 C28 N8 O8'
_cell_volume   1649.17205902
_cell_formula_units_Z   2
loop_
 _symmetry_equiv_pos_site_id
 _symmetry_equiv_pos_as_xyz
  1  'x, y, z'
loop_
 _atom_site_type_symbol
 _atom_site_label
 _atom_site_symmetry_multiplicity
 _atom_site_fract_x
 _atom_site_fract_y
 _atom_site_fract_z
 _atom_site_occupancy
  Co  Co1  1  0.98029000  0.91491100  0.99718200  1
  Co  Co2  1  0.01971100  0.08508900  0.00281700  1
  H  H1  1  0.25702100  0.77313300  0.01665200  1
  H  H2  1  0.74298000  0.22686800  0.98334800  1
  H  H3  1  0.23872100  0.61671300  0.01628200  1
  H  H4  1  0.76127900  0.38328700  0.98371800  1
  H  H5  1  0.37283200  0.38976500  0.03097400  1
  H  H6  1  0.62716800  0.61023500  0.96902600  1
  H  H7  1  0.34684500  0.23286600  0.02987900  1
  H  H8  1  0.65315600  0.76713400  0.97012100  1
  H  H9  1  0.03643400  0.99349500  0.27090900  1
  H  H10  1  0.96356700  0.00650600  0.72909100  1
  H  H11  1  0.53218300  0.03391400  0.41188800  1
  H  H12  1  0.46781700  0.96608600  0.58811200  1
  H  H13  1  0.76663800  0.03941900  0.27858600  1
  H  H14  1  0.23336300  0.96058100  0.72141400  1
  C  C1  1  0.31923500  0.98654000  0.87848800  1
  C  C2  1  0.68076500  0.01346100  0.12151200  1
  C  C3  1  0.24024100  0.00474400  0.11898800  1
  C  C4  1  0.75975900  0.99525700  0.88101200  1
  C  C5  1  0.88158200  0.26319800  0.99416400  1
  C  C6  1  0.11841800  0.73680300  0.00583600  1
  C  C7  1  0.89151900  0.35093100  0.99424800  1
  C  C8  1  0.10848100  0.64906900  0.00575200  1
  C  C9  1  0.06836300  0.39701600  0.00737800  1
  C  C10  1  0.93163800  0.60298500  0.99262200  1
  C  C11  1  0.23266300  0.35446700  0.02061800  1
  C  C12  1  0.76733700  0.64553300  0.97938100  1
  C  C13  1  0.21781300  0.26645200  0.02007300  1
  C  C14  1  0.78218800  0.73354800  0.97992700  1
  C  C15  1  0.32791100  0.00868300  0.19758900  1
  C  C16  1  0.67208900  0.99131800  0.80241100  1
  C  C17  1  0.19714100  0.00383600  0.27260700  1
  C  C18  1  0.80286000  0.99616400  0.72739300  1
  C  C19  1  0.26939600  0.01243700  0.34958100  1
  C  C20  1  0.73060500  0.98756300  0.65041800  1
  C  C21  1  0.47420100  0.02686000  0.35171200  1
  C  C22  1  0.52580000  0.97314000  0.64828700  1
  C  C23  1  0.60576500  0.03034700  0.27676200  1
  C  C24  1  0.39423500  0.96965400  0.72323800  1
  C  C25  1  0.53403200  0.02022400  0.19933900  1
  C  C26  1  0.46596800  0.97977600  0.80066000  1
  C  C27  1  0.87125700  0.99378500  0.57174100  1
  C  C28  1  0.12874400  0.00621500  0.42825900  1
  N  N1  1  0.04350600  0.22232000  0.00682300  1
  N  N2  1  0.95649500  0.77768100  0.99317700  1
  N  N3  1  0.08105500  0.48668300  0.00683800  1
  N  N4  1  0.91894500  0.51331700  0.99316200  1
  N  N5  1  0.19860400  0.01426700  0.50361700  1
  N  N6  1  0.80139600  0.98573300  0.49638300  1
  N  N7  1  0.07104200  0.00815700  0.57466800  1
  N  N8  1  0.92895800  0.99184300  0.42533200  1
  O  O1  1  0.22304600  0.91714800  0.90523800  1
  O  O2  1  0.77695500  0.08285200  0.09476200  1
  O  O3  1  0.74148300  0.93749300  0.08891100  1
  O  O4  1  0.25851700  0.06250700  0.91108900  1
  O  O5  1  0.16256000  0.93123200  0.08804400  1
  O  O6  1  0.83744000  0.06876800  0.91195600  1
  O  O7  1  0.80097300  0.92357000  0.90787300  1
  O  O8  1  0.19902700  0.07643100  0.09212600  1
