# generated using pymatgen
data_ZnH11C16N2O5
_symmetry_space_group_name_H-M   'P 1'
_cell_length_a   8.53470000
_cell_length_b   12.83271000
_cell_length_c   12.15262700
_cell_angle_alpha   107.49578500
_cell_angle_beta   90.08599900
_cell_angle_gamma   95.41214700
_symmetry_Int_Tables_number   1
_chemical_formula_structural   ZnH11C16N2O5
_chemical_formula_sum   'Zn2 H22 C32 N4 O10'
_cell_volume   1263.13900058
_cell_formula_units_Z   2
loop_
 _symmetry_equiv_pos_site_id
 _symmetry_equiv_pos_as_xyz
  1  'x, y, z'
loop_
 _atom_site_type_symbol
 _atom_site_label
 _atom_site_symmetry_multiplicity
 _atom_site_fract_x
 _atom_site_fract_y
 _atom_site_fract_z
 _atom_site_occupancy
  Zn  Zn1  1  0.48782200  0.47606300  0.86734200  1
  Zn  Zn2  1  0.49495500  0.53193600  0.12417900  1
  H  H1  1  0.28620700  0.86378100  0.99324300  1
  H  H2  1  0.19882200  0.15937700  0.00918100  1
  H  H3  1  0.01077300  0.58473600  0.02942400  1
  H  H4  1  0.97288500  0.41484400  0.94442500  1
  H  H5  1  0.52478500  0.73358700  0.27780000  1
  H  H6  1  0.53611400  0.77596400  0.66858400  1
  H  H7  1  0.53723500  0.80468300  0.48712300  1
  H  H8  1  0.47554900  0.41043900  0.28805200  1
  H  H9  1  0.45745500  0.27698400  0.72155600  1
  H  H10  1  0.46049900  0.30792600  0.38860700  1
  H  H11  1  0.44414900  0.19602800  0.51368700  1
  H  H12  1  0.52000500  0.65907100  0.78719100  1
  H  H13  1  0.80238600  0.98853000  0.18046700  1
  H  H14  1  0.76428100  0.84979200  0.18671100  1
  H  H15  1  0.48624100  0.84557900  0.12924600  1
  H  H16  1  0.54102400  0.95832000  0.25813700  1
  H  H17  1  0.52236700  0.98446000  0.12064800  1
  H  H18  1  0.71017100  0.06411600  0.83105900  1
  H  H19  1  0.55575500  0.15557800  0.85926600  1
  H  H20  1  0.39019800  0.02200900  0.93274900  1
  H  H21  1  0.44207600  0.96361200  0.78409100  1
  H  H22  1  0.54286900  0.92928300  0.89775500  1
  C  C1  1  0.16281700  0.71694900  0.01056000  1
  C  C2  1  0.17279400  0.82258800  0.00196900  1
  C  C3  1  0.03786100  0.87724600  0.00779000  1
  C  C4  1  0.89098100  0.82102100  0.01462200  1
  C  C5  1  0.88368400  0.71312300  0.01347700  1
  C  C6  1  0.01841800  0.66532000  0.01993500  1
  C  C7  1  0.80815700  0.18812300  0.99587400  1
  C  C8  1  0.81980100  0.29098400  0.98064000  1
  C  C9  1  0.96472900  0.33834000  0.96359500  1
  C  C10  1  0.09972300  0.29387900  0.97954600  1
  C  C11  1  0.09037700  0.19276600  0.99821100  1
  C  C12  1  0.94333600  0.13654200  0.99973900  1
  C  C13  1  0.73395500  0.64690400  0.00702700  1
  C  C14  1  0.68536400  0.35554300  0.98626200  1
  C  C15  1  0.24948600  0.36046800  0.98508800  1
  C  C16  1  0.29783600  0.65296700  0.00529800  1
  C  C17  1  0.52325600  0.71694300  0.44583300  1
  C  C18  1  0.46607100  0.33060100  0.66787200  1
  C  C19  1  0.45828200  0.28435600  0.55047300  1
  C  C20  1  0.46782400  0.34970600  0.47960000  1
  C  C21  1  0.48570500  0.46308900  0.52701500  1
  C  C22  1  0.49380100  0.50730400  0.64745000  1
  C  C23  1  0.49553100  0.53334700  0.45750800  1
  C  C24  1  0.51326400  0.64557100  0.51049700  1
  C  C25  1  0.52167800  0.68810600  0.62827900  1
  C  C26  1  0.51216100  0.62012000  0.69613100  1
  C  C27  1  0.48857600  0.49592500  0.33658700  1
  C  C28  1  0.51603300  0.67683300  0.32806200  1
  C  C29  1  0.73032100  0.90903300  0.14302100  1
  C  C30  1  0.55840400  0.92546300  0.16403800  1
  C  C31  1  0.60996300  0.09186800  0.88668600  1
  C  C32  1  0.48819600  0.99514800  0.87460100  1
  N  N1  1  0.05494000  0.98730500  0.00339400  1
  N  N2  1  0.92734800  0.02754900  0.00561700  1
  N  N3  1  0.49908100  0.56802200  0.27524400  1
  N  N4  1  0.48363600  0.44043600  0.71595700  1
  O  O1  1  0.68120000  0.63168000  0.10248000  1
  O  O2  1  0.67147800  0.59313600  0.90456300  1
  O  O3  1  0.63917600  0.37243900  0.89046400  1
  O  O4  1  0.63882700  0.41080600  0.08877400  1
  O  O5  1  0.30177900  0.37602400  0.88921000  1
  O  O6  1  0.31228000  0.41418900  0.08755800  1
  O  O7  1  0.34331400  0.63531500  0.10080800  1
  O  O8  1  0.34359100  0.59698900  0.90327000  1
  O  O9  1  0.75298200  0.86908400  0.02424200  1
  O  O10  1  0.66335200  0.13498000  0.00153000  1
