# generated using pymatgen
data_CuH15C24NO5
_symmetry_space_group_name_H-M   'P 1'
_cell_length_a   12.18697700
_cell_length_b   13.39322600
_cell_length_c   17.37572100
_cell_angle_alpha   103.44606200
_cell_angle_beta   74.13489500
_cell_angle_gamma   116.40832800
_symmetry_Int_Tables_number   1
_chemical_formula_structural   CuH15C24NO5
_chemical_formula_sum   'Cu2 H30 C48 N2 O10'
_cell_volume   2423.05564925
_cell_formula_units_Z   2
loop_
 _symmetry_equiv_pos_site_id
 _symmetry_equiv_pos_as_xyz
  1  'x, y, z'
loop_
 _atom_site_type_symbol
 _atom_site_label
 _atom_site_symmetry_multiplicity
 _atom_site_fract_x
 _atom_site_fract_y
 _atom_site_fract_z
 _atom_site_occupancy
  Cu  Cu1  1  0.90316100  0.52246500  0.52511100  1
  Cu  Cu2  1  0.10031700  0.47073200  0.49367100  1
  H  H1  1  0.08014500  0.39536300  0.72352600  1
  H  H2  1  0.85590700  0.50440700  0.29496500  1
  H  H3  1  0.11122000  0.47203000  0.98182100  1
  H  H4  1  0.82335200  0.56309800  0.93028600  1
  H  H5  1  0.84660900  0.48889700  0.15816600  1
  H  H6  1  0.82952700  0.55863900  0.78829800  1
  H  H7  1  0.87114100  0.51164400  0.03563000  1
  H  H8  1  0.07071000  0.39590400  0.86294800  1
  H  H9  1  0.21339200  0.49559600  0.08400600  1
  H  H10  1  0.55340000  0.79410800  0.35146600  1
  H  H11  1  0.75432400  0.93230600  0.33699100  1
  H  H12  1  0.62808600  0.18982000  0.55316900  1
  H  H13  1  0.08785400  0.86510700  0.63192800  1
  H  H14  1  0.44083500  0.13411500  0.60637000  1
  H  H15  1  0.22566000  0.05985400  0.66714100  1
  H  H16  1  0.33845500  0.72735700  0.41184800  1
  H  H17  1  0.81481900  0.67569900  0.64991200  1
  H  H18  1  0.42726200  0.67436700  0.67478500  1
  H  H19  1  0.62642900  0.71135500  0.69157100  1
  H  H20  1  0.67801100  0.44322700  0.45613900  1
  H  H21  1  0.18574500  0.32630100  0.36798100  1
  H  H22  1  0.53723800  0.36639700  0.38982000  1
  H  H23  1  0.36740600  0.28164600  0.32036300  1
  H  H24  1  0.26047000  0.58071300  0.60644200  1
  H  H25  1  0.96423700  0.99061900  0.36200700  1
  H  H26  1  0.10440900  0.11356300  0.33720900  1
  H  H27  1  0.01289100  0.02945900  0.26095500  1
  H  H28  1  0.24517300  0.34757700  0.19487600  1
  H  H29  1  0.39709000  0.45271700  0.21077300  1
  H  H30  1  0.34586700  0.44103700  0.11995000  1
  C  C1  1  0.14530700  0.70744200  0.53039800  1
  C  C2  1  0.96913600  0.48177700  0.65965200  1
  C  C3  1  0.85894600  0.28641200  0.48371800  1
  C  C4  1  0.03343500  0.51028600  0.35855700  1
  C  C5  1  0.95662100  0.47810300  0.74550300  1
  C  C6  1  0.02352200  0.43299500  0.76821000  1
  C  C7  1  0.01937900  0.43484100  0.84853500  1
  C  C8  1  0.94982400  0.48409900  0.90783100  1
  C  C9  1  0.87966300  0.52575000  0.88494100  1
  C  C10  1  0.88286400  0.52291900  0.80439800  1
  C  C11  1  0.93152700  0.49524100  0.17058400  1
  C  C12  1  0.93710200  0.50428400  0.25008300  1
  C  C13  1  0.14144300  0.50516300  0.21085100  1
  C  C14  1  0.13452800  0.49600800  0.13104600  1
  C  C15  1  0.03098900  0.49183000  0.11001800  1
  C  C16  1  0.94530400  0.49188200  0.99481900  1
  C  C17  1  0.03192000  0.48255100  0.02330700  1
  C  C18  1  0.04080700  0.50903000  0.27185300  1
  C  C19  1  0.72693300  0.98767200  0.38647600  1
  C  C20  1  0.77468500  0.16784200  0.46471700  1
  C  C21  1  0.18407100  0.89705600  0.60053100  1
  C  C22  1  0.26198900  0.00644700  0.62116000  1
  C  C23  1  0.38666700  0.04806800  0.58568500  1
  C  C24  1  0.43608900  0.98145000  0.52585600  1
  C  C25  1  0.35491800  0.87130900  0.50299100  1
  C  C26  1  0.56334000  0.02197700  0.48721200  1
  C  C27  1  0.60428500  0.95195400  0.42639900  1
  C  C28  1  0.52207300  0.84665200  0.40143500  1
  C  C29  1  0.39883400  0.80755200  0.43796700  1
  C  C30  1  0.65144800  0.13054500  0.50610300  1
  C  C31  1  0.81247900  0.09536300  0.40386800  1
  C  C32  1  0.22963700  0.82763300  0.54306100  1
  C  C33  1  0.63593700  0.65268900  0.63843000  1
  C  C34  1  0.25906200  0.36389500  0.40229100  1
  C  C35  1  0.36194300  0.33913200  0.37495800  1
  C  C36  1  0.45907200  0.38865500  0.41555800  1
  C  C37  1  0.45350700  0.46443800  0.48481300  1
  C  C38  1  0.34596000  0.48613300  0.51146700  1
  C  C39  1  0.55253000  0.52027200  0.52768300  1
  C  C40  1  0.54168500  0.59637100  0.59519900  1
  C  C41  1  0.43595300  0.61592000  0.62133600  1
  C  C42  1  0.33954700  0.56126800  0.58077100  1
  C  C43  1  0.66251700  0.50284900  0.50624900  1
  C  C44  1  0.74195100  0.63310500  0.61489900  1
  C  C45  1  0.93535800  0.13283900  0.34975000  1
  C  C46  1  0.00833900  0.06195100  0.32604900  1
  C  C47  1  0.25843000  0.51591000  0.22766500  1
  C  C48  1  0.31484900  0.43419000  0.18540800  1
  N  N1  1  0.75454600  0.56048500  0.54899000  1
  N  N2  1  0.24944700  0.43436800  0.47041900  1
  O  O1  1  0.02547500  0.67833500  0.53700800  1
  O  O2  1  0.19209700  0.63287500  0.51705500  1
  O  O3  1  0.89619700  0.51308600  0.63705700  1
  O  O4  1  0.05765100  0.45774700  0.60872900  1
  O  O5  1  0.80990300  0.36034300  0.50283400  1
  O  O6  1  0.97852900  0.31498400  0.47933100  1
  O  O7  1  0.94326200  0.53226600  0.40966100  1
  O  O8  1  0.10883900  0.48235700  0.38190800  1
  O  O9  1  0.97355800  0.21759000  0.31814600  1
  O  O10  1  0.31208800  0.59373500  0.27519600  1
