# generated using pymatgen
data_CuH24C43NO4F3
_symmetry_space_group_name_H-M   'P 1'
_cell_length_a   15.88909700
_cell_length_b   19.35760800
_cell_length_c   17.85503000
_cell_angle_alpha   89.98391100
_cell_angle_beta   89.98945900
_cell_angle_gamma   90.01104000
_symmetry_Int_Tables_number   1
_chemical_formula_structural   CuH24C43NO4F3
_chemical_formula_sum   'Cu2 H48 C86 N2 O8 F6'
_cell_volume   5491.75885526
_cell_formula_units_Z   2
loop_
 _symmetry_equiv_pos_site_id
 _symmetry_equiv_pos_as_xyz
  1  'x, y, z'
loop_
 _atom_site_type_symbol
 _atom_site_label
 _atom_site_symmetry_multiplicity
 _atom_site_fract_x
 _atom_site_fract_y
 _atom_site_fract_z
 _atom_site_occupancy
  Cu  Cu1  1  0.47021200  0.49863200  0.57350200  1
  Cu  Cu2  1  0.47166300  0.50190100  0.42372000  1
  H  H1  1  0.02002000  0.39761200  0.43676900  1
  H  H2  1  0.92108700  0.60576200  0.56064200  1
  H  H3  1  0.91535500  0.40197200  0.56467600  1
  H  H4  1  0.02670700  0.60176200  0.43322700  1
  H  H5  1  0.91844900  0.50103400  0.37096600  1
  H  H6  1  0.02347800  0.50294400  0.62664400  1
  H  H7  1  0.38084200  0.71588400  0.41335600  1
  H  H8  1  0.37979300  0.28616400  0.57564800  1
  H  H9  1  0.37755800  0.84126600  0.41276100  1
  H  H10  1  0.37394400  0.16078700  0.57581400  1
  H  H11  1  0.55826800  0.84484700  0.58982700  1
  H  H12  1  0.57213500  0.15470400  0.41452800  1
  H  H13  1  0.46757200  0.93670700  0.61645600  1
  H  H14  1  0.47945000  0.06430500  0.37946300  1
  H  H15  1  0.35756100  0.55460000  0.69355500  1
  H  H16  1  0.58608300  0.44879400  0.30334100  1
  H  H17  1  0.35550400  0.55301100  0.83006400  1
  H  H18  1  0.58744900  0.44925500  0.16712500  1
  H  H19  1  0.58680200  0.44169100  0.82930200  1
  H  H20  1  0.35496300  0.55888700  0.16788100  1
  H  H21  1  0.58423300  0.44206300  0.69199100  1
  H  H22  1  0.35763500  0.55864400  0.30554600  1
  H  H23  1  0.58576900  0.55192400  0.92529100  1
  H  H24  1  0.35521000  0.45068800  0.07179800  1
  H  H25  1  0.52141100  0.64338200  0.12671600  1
  H  H26  1  0.63501400  0.71046200  0.18400300  1
  H  H27  1  0.81652600  0.58408500  0.07463300  1
  H  H28  1  0.70304800  0.51562600  0.01804400  1
  H  H29  1  0.23899100  0.48730900  0.97665800  1
  H  H30  1  0.12578000  0.41901100  0.92023200  1
  H  H31  1  0.30718000  0.28909100  0.81540300  1
  H  H32  1  0.42084200  0.35609500  0.87248200  1
  H  H33  1  0.49476200  0.74446900  0.70300900  1
  H  H34  1  0.58267100  0.68569500  0.79649300  1
  H  H35  1  0.74584000  0.61526200  0.62350000  1
  H  H36  1  0.65734400  0.67277200  0.52940700  1
  H  H37  1  0.54108600  0.24363500  0.29779400  1
  H  H38  1  0.65136600  0.29219000  0.21645000  1
  H  H39  1  0.76989500  0.38217600  0.40625500  1
  H  H40  1  0.65928500  0.33510700  0.48790500  1
  H  H41  1  0.37376600  0.02247900  0.68570800  1
  H  H42  1  0.39110700  0.07746200  0.80850700  1
  H  H43  1  0.61335500  0.17775500  0.73150100  1
  H  H44  1  0.59758600  0.12204800  0.60908700  1
  H  H45  1  0.38772800  0.97963100  0.30486100  1
  H  H46  1  0.41301600  0.92448300  0.18343300  1
  H  H47  1  0.62707900  0.82122100  0.27309500  1
  H  H48  1  0.60335500  0.87701000  0.39441300  1
  C  C1  1  0.47654200  0.36763500  0.49458500  1
  C  C2  1  0.46792800  0.63297300  0.50265900  1
  C  C3  1  0.30960600  0.49693300  0.49708800  1
  C  C4  1  0.63247300  0.50390400  0.50013100  1
  C  C5  1  0.94223700  0.44716800  0.53495300  1
  C  C6  1  0.99978700  0.55642000  0.46268300  1
  C  C7  1  0.99636500  0.44492300  0.46471200  1
  C  C8  1  0.94552600  0.55863500  0.53286600  1
  C  C9  1  0.21935900  0.49733200  0.49657400  1
  C  C10  1  0.72270900  0.50488000  0.50073500  1
  C  C11  1  0.99898900  0.50235000  0.56849700  1
  C  C12  1  0.94300300  0.50126900  0.42909300  1
  C  C13  1  0.05158100  0.50008600  0.49822900  1
  C  C14  1  0.89048900  0.50342700  0.49935300  1
  C  C15  1  0.14359700  0.49829600  0.49701300  1
  C  C16  1  0.79853500  0.50472900  0.50050900  1
  C  C17  1  0.42012800  0.74395100  0.45229400  1
  C  C18  1  0.42262100  0.25745000  0.54035400  1
  C  C19  1  0.41874000  0.81508500  0.45157100  1
  C  C20  1  0.41946000  0.18638200  0.54053900  1
  C  C21  1  0.46961100  0.85231600  0.49977600  1
  C  C22  1  0.47393800  0.14860700  0.49622500  1
  C  C23  1  0.51731800  0.81708100  0.55198300  1
  C  C24  1  0.52791300  0.18325300  0.44857500  1
  C  C25  1  0.51657700  0.74590300  0.55485400  1
  C  C26  1  0.52978200  0.25456000  0.44650500  1
  C  C27  1  0.46861200  0.70876800  0.50384200  1
  C  C28  1  0.47727700  0.29204800  0.49348500  1
  C  C29  1  0.46987000  0.96455000  0.56405700  1
  C  C30  1  0.47649400  0.03644400  0.43183600  1
  C  C31  1  0.47381100  0.03577400  0.56563600  1
  C  C32  1  0.47843000  0.96515200  0.43047100  1
  C  C33  1  0.47442400  0.07250100  0.49862700  1
  C  C34  1  0.47234800  0.92845100  0.49728800  1
  C  C35  1  0.40723000  0.52819800  0.72337100  1
  C  C36  1  0.53560600  0.47391600  0.27364200  1
  C  C37  1  0.40598400  0.52754200  0.80050300  1
  C  C38  1  0.53663900  0.47453400  0.19655100  1
  C  C39  1  0.46992100  0.49543200  0.83931500  1
  C  C40  1  0.47194700  0.50583300  0.15791900  1
  C  C41  1  0.53527800  0.46620200  0.79984900  1
  C  C42  1  0.40661600  0.53487400  0.19752900  1
  C  C43  1  0.53366500  0.46635300  0.72261900  1
  C  C44  1  0.40822000  0.53441600  0.27478300  1
  C  C45  1  0.53629900  0.52796400  0.95770800  1
  C  C46  1  0.40516900  0.47411600  0.03948900  1
  C  C47  1  0.53686600  0.53402700  0.03468800  1
  C  C48  1  0.40506200  0.46751700  0.96256400  1
  C  C49  1  0.47102400  0.50617700  0.07595000  1
  C  C50  1  0.47073800  0.49545000  0.92130200  1
  C  C51  1  0.60465700  0.57393600  0.06998600  1
  C  C52  1  0.58609600  0.62930700  0.11596800  1
  C  C53  1  0.64995200  0.66759200  0.14762400  1
  C  C54  1  0.73269400  0.65127700  0.13287300  1
  C  C55  1  0.75155900  0.59686300  0.08607800  1
  C  C56  1  0.68771200  0.55850100  0.05432600  1
  C  C57  1  0.33758200  0.42737000  0.92718000  1
  C  C58  1  0.25448100  0.44368900  0.94149000  1
  C  C59  1  0.19068200  0.40539800  0.90960200  1
  C  C60  1  0.20959700  0.35007100  0.86403900  1
  C  C61  1  0.29236400  0.33280400  0.85067400  1
  C  C62  1  0.35625300  0.37107400  0.88240100  1
  C  C63  1  0.56995400  0.71169200  0.61023600  1
  C  C64  1  0.54993800  0.71615300  0.68531500  1
  C  C65  1  0.59906000  0.68305900  0.73782300  1
  C  C66  1  0.66916900  0.64658000  0.71555100  1
  C  C67  1  0.69039500  0.64336600  0.64078500  1
  C  C68  1  0.64076600  0.67572100  0.58806800  1
  C  C69  1  0.59184200  0.28785100  0.39784100  1
  C  C70  1  0.59064700  0.27487700  0.32175900  1
  C  C71  1  0.65239700  0.30189800  0.27605600  1
  C  C72  1  0.71645600  0.34075600  0.30640400  1
  C  C73  1  0.71868700  0.35283800  0.38241400  1
  C  C74  1  0.65636300  0.32666700  0.42810600  1
  C  C75  1  0.48361400  0.06956000  0.63872800  1
  C  C76  1  0.42674200  0.05632200  0.69548400  1
  C  C77  1  0.43615000  0.08744600  0.76443600  1
  C  C78  1  0.50292600  0.13130000  0.77726600  1
  C  C79  1  0.56059900  0.14378600  0.72125400  1
  C  C80  1  0.55134500  0.11266900  0.65231200  1
  C  C81  1  0.49297600  0.93118200  0.35812500  1
  C  C82  1  0.44067600  0.94512500  0.29819800  1
  C  C83  1  0.45457400  0.91387200  0.22993800  1
  C  C84  1  0.52130800  0.86916400  0.22099600  1
  C  C85  1  0.57438900  0.85589400  0.28027300  1
  C  C86  1  0.56063900  0.88709600  0.34856900  1
  N  N1  1  0.46913700  0.49563500  0.68550600  1
  N  N2  1  0.47309900  0.50533600  0.31169000  1
  O  O1  1  0.47568900  0.39847100  0.55983100  1
  O  O2  1  0.46460300  0.60202800  0.43754000  1
  O  O3  1  0.47328400  0.40142500  0.43094400  1
  O  O4  1  0.47097100  0.59908700  0.56613100  1
  O  O5  1  0.34803800  0.49917000  0.56177800  1
  O  O6  1  0.59400700  0.50294300  0.43541800  1
  O  O7  1  0.34956100  0.49594100  0.43292000  1
  O  O8  1  0.59257400  0.50318900  0.56428600  1
  F  F1  1  0.79543800  0.68877100  0.16426700  1
  F  F2  1  0.14692100  0.31252500  0.83254300  1
  F  F3  1  0.71752000  0.61419500  0.76724300  1
  F  F4  1  0.77755300  0.36663100  0.26151700  1
  F  F5  1  0.51221700  0.16173500  0.84509400  1
  F  F6  1  0.53513400  0.83864200  0.15383200  1
