# generated using pymatgen
data_Fe2H18C44NO16F
_symmetry_space_group_name_H-M   'P 1'
_cell_length_a   14.16321100
_cell_length_b   16.01318700
_cell_length_c   13.20003900
_cell_angle_alpha   94.50523300
_cell_angle_beta   93.14217800
_cell_angle_gamma   65.50814400
_symmetry_Int_Tables_number   1
_chemical_formula_structural   Fe2H18C44NO16F
_chemical_formula_sum   'Fe2 H18 C44 N1 O16 F1'
_cell_volume   2715.13307250
_cell_formula_units_Z   1
loop_
 _symmetry_equiv_pos_site_id
 _symmetry_equiv_pos_as_xyz
  1  'x, y, z'
loop_
 _atom_site_type_symbol
 _atom_site_label
 _atom_site_symmetry_multiplicity
 _atom_site_fract_x
 _atom_site_fract_y
 _atom_site_fract_z
 _atom_site_occupancy
  Fe  Fe1  1  0.49608600  0.00441700  0.22801400  1
  Fe  Fe2  1  0.50176100  0.01118300  0.77670800  1
  H  H1  1  0.86553900  0.98856400  0.20894800  1
  H  H2  1  0.80633900  0.00656500  0.84052900  1
  H  H3  1  0.96675600  0.01438400  0.82177200  1
  H  H4  1  0.12893500  0.01888300  0.80016600  1
  H  H5  1  0.20231500  0.00219400  0.16686000  1
  H  H6  1  0.00600900  0.12895600  0.26796200  1
  H  H7  1  0.05697900  0.06854200  0.44675500  1
  H  H8  1  0.11277100  0.88760100  0.43218700  1
  H  H9  1  0.09338300  0.84052900  0.23579200  1
  H  H10  1  0.44141100  0.12843800  0.49293300  1
  H  H11  1  0.18855300  0.32848400  0.34130800  1
  H  H12  1  0.20061800  0.33729000  0.66613700  1
  H  H13  1  0.13216100  0.49112300  0.38864900  1
  H  H14  1  0.96758400  0.62470400  0.38490200  1
  H  H15  1  0.02043900  0.38339000  0.61804200  1
  H  H16  1  0.78712400  0.67092300  0.33736600  1
  H  H17  1  0.55117100  0.88479800  0.51069900  1
  H  H18  1  0.80320500  0.68415400  0.66217800  1
  C  C1  1  0.85423700  0.99082400  0.12770600  1
  C  C2  1  0.76258800  0.99021000  0.08583600  1
  C  C3  1  0.74582800  0.99497900  0.98059000  1
  C  C4  1  0.81904200  0.00307600  0.92185700  1
  C  C5  1  0.91000700  0.00314300  0.96434700  1
  C  C6  1  0.92877100  0.99628100  0.06749400  1
  C  C7  1  0.98215600  0.00951800  0.90270700  1
  C  C8  1  0.07360800  0.00998400  0.94372200  1
  C  C9  1  0.09306100  0.00383300  0.04684100  1
  C  C10  1  0.02094700  0.99663300  0.10936200  1
  C  C11  1  0.14561600  0.01590800  0.88096800  1
  C  C12  1  0.23800800  0.01722900  0.92010100  1
  C  C13  1  0.25604000  0.01342600  0.02521300  1
  C  C14  1  0.18495200  0.00490600  0.08636400  1
  C  C15  1  0.05817100  0.02703600  0.37776900  1
  C  C16  1  0.08716300  0.93315600  0.37048900  1
  C  C17  1  0.07716800  0.90878100  0.26915200  1
  C  C18  1  0.04242100  0.98891500  0.21894800  1
  C  C19  1  0.68476300  0.98967200  0.15605900  1
  C  C20  1  0.61917000  0.83544200  0.32258300  1
  C  C21  1  0.34647500  0.02004900  0.07814400  1
  C  C22  1  0.35548700  0.17043500  0.31497500  1
  C  C23  1  0.63735700  0.84320000  0.68841400  1
  C  C24  1  0.65505400  0.98941700  0.92634700  1
  C  C25  1  0.37295000  0.17653700  0.68122700  1
  C  C26  1  0.31497700  0.01775500  0.84835800  1
  C  C27  1  0.32213400  0.22739500  0.40894700  1
  C  C28  1  0.22967700  0.30404200  0.41184700  1
  C  C29  1  0.18747200  0.34626100  0.50408900  1
  C  C30  1  0.23542300  0.30717900  0.59388300  1
  C  C31  1  0.32751400  0.22873800  0.59075500  1
  C  C32  1  0.37226400  0.19180000  0.49798900  1
  C  C33  1  0.07147400  0.49577600  0.43793900  1
  C  C34  1  0.97772600  0.57148100  0.43535500  1
  C  C35  1  0.89936600  0.58047200  0.49895900  1
  C  C36  1  0.91605300  0.51214200  0.56484600  1
  C  C37  1  0.01020500  0.43682400  0.56785200  1
  C  C38  1  0.08859800  0.42817100  0.50455400  1
  C  C39  1  0.75331200  0.70220400  0.40967600  1
  C  C40  1  0.66325500  0.78252400  0.41284700  1
  C  C41  1  0.61951600  0.82080400  0.50568900  1
  C  C42  1  0.66970200  0.78549300  0.59473300  1
  C  C43  1  0.76128600  0.70794700  0.59181000  1
  C  C44  1  0.80130500  0.66339600  0.49963200  1
  N  N1  1  0.03108200  0.06046300  0.28515100  1
  O  O1  1  0.59034700  0.00523800  0.12324800  1
  O  O2  1  0.66292800  0.80827700  0.23383600  1
  O  O3  1  0.70795700  0.97890900  0.25316300  1
  O  O4  1  0.54300100  0.91712100  0.33733100  1
  O  O5  1  0.38822900  0.96938000  0.15582600  1
  O  O6  1  0.37084600  0.08879300  0.06348600  1
  O  O7  1  0.45521500  0.13045700  0.29644300  1
  O  O8  1  0.29288700  0.13609500  0.27161200  1
  O  O9  1  0.53758500  0.88654800  0.70601900  1
  O  O10  1  0.70260900  0.87383200  0.73324300  1
  O  O11  1  0.61327900  0.04108600  0.84930700  1
  O  O12  1  0.62744500  0.92282800  0.94230500  1
  O  O13  1  0.29350400  0.02010200  0.75036400  1
  O  O14  1  0.45734900  0.10022900  0.66917900  1
  O  O15  1  0.40649800  0.01204200  0.88152200  1
  O  O16  1  0.32335900  0.19794400  0.76705900  1
  F  F1  1  0.83909300  0.51630200  0.62448500  1
