# generated using pymatgen
data_V4H37C74N9O20
_symmetry_space_group_name_H-M   'P 1'
_cell_length_a   6.32550700
_cell_length_b   21.48841600
_cell_length_c   25.37840400
_cell_angle_alpha   105.09656700
_cell_angle_beta   89.45621800
_cell_angle_gamma   90.65241700
_symmetry_Int_Tables_number   1
_chemical_formula_structural   V4H37C74N9O20
_chemical_formula_sum   'V4 H37 C74 N9 O20'
_cell_volume   3330.22028767
_cell_formula_units_Z   1
loop_
 _symmetry_equiv_pos_site_id
 _symmetry_equiv_pos_as_xyz
  1  'x, y, z'
loop_
 _atom_site_type_symbol
 _atom_site_label
 _atom_site_symmetry_multiplicity
 _atom_site_fract_x
 _atom_site_fract_y
 _atom_site_fract_z
 _atom_site_occupancy
  V  V1  1  0.88380100  0.48614700  0.50148200  1
  V  V2  1  0.38439900  0.50164800  0.50341500  1
  V  V3  1  0.25627100  0.00119900  0.00374000  1
  V  V4  1  0.75583400  0.98561500  0.00128400  1
  H  H1  1  0.77163800  0.90021200  0.83211200  1
  H  H2  1  0.31020300  0.82749000  0.89528500  1
  H  H3  1  0.48043500  0.73280700  0.84245500  1
  H  H4  1  0.50064900  0.64382900  0.75895500  1
  H  H5  1  0.36801300  0.59016100  0.67126000  1
  H  H6  1  0.82953300  0.66262100  0.60783300  1
  H  H7  1  0.65981400  0.75770400  0.66060600  1
  H  H8  1  0.63958200  0.84668700  0.74411200  1
  H  H9  1  0.33386000  0.93499800  0.14309000  1
  H  H10  1  0.34761200  0.86284400  0.20396200  1
  H  H11  1  0.78254500  0.76926100  0.13330400  1
  H  H12  1  0.77130300  0.84030200  0.07120900  1
  H  H13  1  0.36414100  0.70878700  0.36350500  1
  H  H14  1  0.36706500  0.64357100  0.43025200  1
  H  H15  1  0.83213400  0.53741400  0.35251900  1
  H  H16  1  0.82837500  0.60267500  0.28622400  1
  H  H17  1  0.32540900  0.34758100  0.57186300  1
  H  H18  1  0.30773400  0.28007000  0.63684300  1
  H  H19  1  0.85336600  0.37611000  0.71773500  1
  H  H20  1  0.87102000  0.44330300  0.65301800  1
  H  H21  1  0.28888900  0.11663300  0.79056500  1
  H  H22  1  0.27043100  0.04842500  0.85442000  1
  H  H23  1  0.81634200  0.14295600  0.93634000  1
  H  H24  1  0.83482500  0.21155700  0.87217700  1
  H  H25  1  0.35945200  0.17911000  0.10396000  1
  H  H26  1  0.27143400  0.28681900  0.15202700  1
  H  H27  1  0.29140800  0.37667600  0.23493300  1
  H  H28  1  0.40516100  0.41883700  0.32683400  1
  H  H29  1  0.77679700  0.30418200  0.40383500  1
  H  H30  1  0.85201400  0.19528500  0.35705900  1
  H  H31  1  0.82243200  0.10459400  0.27557500  1
  H  H32  1  0.70161200  0.00895300  0.15259600  1
  H  H33  1  0.97510900  0.95182200  0.19153200  1
  H  H34  1  0.33678000  0.95939900  0.22775600  1
  H  H35  1  0.51171600  0.06487000  0.25964000  1
  H  H36  1  0.32663700  0.16305300  0.25440400  1
  H  H37  1  0.97215900  0.15596000  0.21608400  1
  C  C1  1  0.62028800  0.43953500  0.56983700  1
  C  C2  1  0.59134600  0.41904500  0.41971500  1
  C  C3  1  0.09337000  0.54746700  0.43490400  1
  C  C4  1  0.12186600  0.56931400  0.58522000  1
  C  C5  1  0.89584300  0.86499200  0.82732600  1
  C  C6  1  0.04007100  0.86919200  0.86847500  1
  C  C7  1  0.19790200  0.82428000  0.86281900  1
  C  C8  1  0.21010900  0.77469100  0.81591200  1
  C  C9  1  0.06473300  0.77022700  0.77484300  1
  C  C10  1  0.90798600  0.81550500  0.78048300  1
  C  C11  1  0.36672200  0.72932300  0.81026100  1
  C  C12  1  0.37788500  0.67947100  0.76353100  1
  C  C13  1  0.23230900  0.67506800  0.72261300  1
  C  C14  1  0.07565900  0.72035200  0.72818400  1
  C  C15  1  0.93021300  0.71580000  0.68710600  1
  C  C16  1  0.77366500  0.76121400  0.69277200  1
  C  C17  1  0.76249100  0.81108900  0.73952600  1
  C  C18  1  0.24411000  0.62545700  0.67591400  1
  C  C19  1  0.09974500  0.62102100  0.63478600  1
  C  C20  1  0.94210700  0.66600800  0.64026600  1
  C  C21  1  0.21225600  0.89868300  0.14094200  1
  C  C22  1  0.21998000  0.85841800  0.17516500  1
  C  C23  1  0.06531200  0.81222000  0.17281100  1
  C  C24  1  0.90400000  0.80559500  0.13534200  1
  C  C25  1  0.89741000  0.84556400  0.10053900  1
  C  C26  1  0.05119900  0.89249700  0.10361600  1
  C  C27  1  0.08967200  0.69891400  0.28152000  1
  C  C28  1  0.07401500  0.77145300  0.21070900  1
  C  C29  1  0.24762300  0.67095200  0.36099200  1
  C  C30  1  0.24937300  0.63435500  0.39847800  1
  C  C31  1  0.09975100  0.58631500  0.39542500  1
  C  C32  1  0.94968800  0.57492800  0.35485900  1
  C  C33  1  0.94739200  0.61155500  0.31766200  1
  C  C34  1  0.09595200  0.65969800  0.32067300  1
  C  C35  1  0.44065700  0.35413700  0.60407400  1
  C  C36  1  0.43099600  0.31618200  0.64054700  1
  C  C37  1  0.57971600  0.32392600  0.68138900  1
  C  C38  1  0.73664600  0.36993700  0.68590400  1
  C  C39  1  0.74630400  0.40768700  0.64959300  1
  C  C40  1  0.59924500  0.39986200  0.60853400  1
  C  C41  1  0.56818800  0.20911300  0.78928800  1
  C  C42  1  0.57434900  0.28341200  0.71963700  1
  C  C43  1  0.40539700  0.12237600  0.82240300  1
  C  C44  1  0.39528000  0.08406200  0.85823000  1
  C  C45  1  0.54218700  0.09121500  0.89923800  1
  C  C46  1  0.70109300  0.13694100  0.90417900  1
  C  C47  1  0.71121100  0.17550600  0.86816100  1
  C  C48  1  0.56264800  0.16832800  0.82732100  1
  C  C49  1  0.64601200  0.10831200  0.18324900  1
  C  C50  1  0.53993800  0.11577100  0.13784500  1
  C  C51  1  0.44093600  0.17309200  0.13953300  1
  C  C52  1  0.45263600  0.22356000  0.18586600  1
  C  C53  1  0.56132100  0.21646900  0.23074900  1
  C  C54  1  0.65405300  0.15851800  0.22979400  1
  C  C55  1  0.35646600  0.28120900  0.18722800  1
  C  C56  1  0.36787000  0.33156600  0.23365100  1
  C  C57  1  0.47637800  0.32429800  0.27850700  1
  C  C58  1  0.57357100  0.26685600  0.27705800  1
  C  C59  1  0.68109700  0.25958100  0.32211000  1
  C  C60  1  0.77102800  0.20133600  0.32142700  1
  C  C61  1  0.75523100  0.15056400  0.27552000  1
  C  C62  1  0.48500200  0.37415000  0.32518300  1
  C  C63  1  0.59463500  0.36710200  0.36991600  1
  C  C64  1  0.69454400  0.31007700  0.36832900  1
  C  C65  1  0.54618100  0.06522600  0.08685200  1
  C  C66  1  0.52038400  0.05052300  0.93711400  1
  C  C67  1  0.01818800  0.92018900  0.91852500  1
  C  C68  1  0.05012300  0.93556500  0.06748300  1
  C  C69  1  0.94803100  0.05339400  0.20258700  1
  C  C70  1  0.05288900  0.99825600  0.20492900  1
  C  C71  1  0.25539100  0.00241300  0.22531400  1
  C  C72  1  0.35361900  0.06160600  0.24327500  1
  C  C73  1  0.25029000  0.11660700  0.24021000  1
  C  C74  1  0.04885400  0.11254300  0.21933800  1
  N  N1  1  0.92744700  0.72511200  0.20891000  1
  N  N2  1  0.93545100  0.68915400  0.24396100  1
  N  N3  1  0.23620500  0.74522100  0.28327500  1
  N  N4  1  0.22844200  0.78107600  0.24817500  1
  N  N5  1  0.72212800  0.29141600  0.75874100  1
  N  N6  1  0.71913200  0.25467400  0.79326200  1
  N  N7  1  0.42043000  0.20113300  0.75019400  1
  N  N8  1  0.42343000  0.23786500  0.71568100  1
  N  N9  1  0.73818500  0.04891800  0.18353700  1
  O  O1  1  0.42489700  0.45663600  0.42599800  1
  O  O2  1  0.79412300  0.47298300  0.57252200  1
  O  O3  1  0.00732700  0.56909000  0.54261800  1
  O  O4  1  0.70447400  0.41307200  0.46195300  1
  O  O5  1  0.92519200  0.50984300  0.43226100  1
  O  O6  1  0.50168200  0.42803400  0.52617200  1
  O  O7  1  0.61156700  0.54311500  0.50756800  1
  O  O8  1  0.21078300  0.56547500  0.47977300  1
  O  O9  1  0.29481400  0.53641200  0.58005200  1
  O  O10  1  0.10801100  0.44441900  0.49538700  1
  O  O11  1  0.63862700  0.06071700  0.98077900  1
  O  O12  1  0.43556100  0.07331800  0.04489900  1
  O  O13  1  0.21473800  0.97482400  0.07176100  1
  O  O14  1  0.34630900  0.01708300  0.93368200  1
  O  O15  1  0.13288200  0.91912500  0.96079200  1
  O  O16  1  0.71507200  0.02851800  0.07932300  1
  O  O17  1  0.52867000  0.94409000  0.99626800  1
  O  O18  1  0.84551000  0.95331800  0.92438500  1
  O  O19  1  0.92902400  0.92039200  0.02315100  1
  O  O20  1  0.03209600  0.04301800  0.01080700  1
