# generated using pymatgen
data_ZnH13C18NO4
_symmetry_space_group_name_H-M   'P 1'
_cell_length_a   10.96205600
_cell_length_b   9.76859100
_cell_length_c   10.81753600
_cell_angle_alpha   90.00000000
_cell_angle_beta   90.01196900
_cell_angle_gamma   90.00000000
_symmetry_Int_Tables_number   1
_chemical_formula_structural   ZnH13C18NO4
_chemical_formula_sum   'Zn2 H26 C36 N2 O8'
_cell_volume   1158.38328607
_cell_formula_units_Z   2
loop_
 _symmetry_equiv_pos_site_id
 _symmetry_equiv_pos_as_xyz
  1  'x, y, z'
loop_
 _atom_site_type_symbol
 _atom_site_label
 _atom_site_symmetry_multiplicity
 _atom_site_fract_x
 _atom_site_fract_y
 _atom_site_fract_z
 _atom_site_occupancy
  Zn  Zn1  1  0.50000000  0.67719000  0.50000000  1
  Zn  Zn2  1  0.50000000  0.36573400  0.50000000  1
  H  H1  1  0.63918200  0.14719100  0.63363800  1
  H  H2  1  0.36081900  0.89573300  0.36636200  1
  H  H3  1  0.36081800  0.14719100  0.36636300  1
  H  H4  1  0.63918000  0.89573300  0.63363900  1
  H  H5  1  0.39211300  0.72468400  0.07218900  1
  H  H6  1  0.60899000  0.31872400  0.92893600  1
  H  H7  1  0.60788600  0.72468400  0.92781200  1
  H  H8  1  0.39101000  0.31872400  0.07106400  1
  H  H9  1  0.11010800  0.30256500  0.50611600  1
  H  H10  1  0.88977100  0.74072900  0.49534200  1
  H  H11  1  0.88989100  0.30256500  0.49388400  1
  H  H12  1  0.11022900  0.74072900  0.50465800  1
  H  H13  1  0.29605400  0.30441100  0.83885200  1
  H  H14  1  0.08545300  0.27012000  0.77268600  1
  H  H15  1  0.88587800  0.35117300  0.74351400  1
  H  H16  1  0.85988900  0.53525100  0.74338100  1
  H  H17  1  0.84712500  0.43829600  0.88369900  1
  H  H18  1  0.00026500  0.67985100  0.87831100  1
  H  H19  1  0.21035600  0.71352600  0.94754800  1
  H  H20  1  0.70394500  0.30441100  0.16114800  1
  H  H21  1  0.91454700  0.27012000  0.22731400  1
  H  H22  1  0.11412200  0.35117300  0.25648700  1
  H  H23  1  0.14011100  0.53525100  0.25662000  1
  H  H24  1  0.15287500  0.43829600  0.11630200  1
  H  H25  1  0.99973500  0.67985200  0.12168900  1
  H  H26  1  0.78964300  0.71352600  0.05245300  1
  C  C1  1  0.87324900  0.52161600  0.49332400  1
  C  C2  1  0.12675100  0.52161600  0.50667700  1
  C  C3  1  0.26096000  0.52149900  0.50664100  1
  C  C4  1  0.73904000  0.52149900  0.49336000  1
  C  C5  1  0.49359900  0.52142300  0.25798300  1
  C  C6  1  0.50640100  0.52142300  0.74201700  1
  C  C7  1  0.44115600  0.63289300  0.03807900  1
  C  C8  1  0.55838500  0.41006300  0.96177200  1
  C  C9  1  0.55884300  0.63289400  0.96192100  1
  C  C10  1  0.44161500  0.41006300  0.03822900  1
  C  C11  1  0.39074500  0.52121300  0.95498200  1
  C  C12  1  0.60925500  0.52121300  0.04501900  1
  C  C13  1  0.50599000  0.52130600  0.88021700  1
  C  C14  1  0.49400900  0.52130600  0.11978300  1
  C  C15  1  0.57712400  0.09204500  0.57405200  1
  C  C16  1  0.42287600  0.95087900  0.42594800  1
  C  C17  1  0.42287600  0.09204500  0.42594800  1
  C  C18  1  0.57712400  0.95087900  0.57405300  1
  C  C19  1  0.06283000  0.39959600  0.50400800  1
  C  C20  1  0.93709900  0.64371800  0.49684700  1
  C  C21  1  0.93716900  0.39959600  0.49599300  1
  C  C22  1  0.06290100  0.64371800  0.50315300  1
  C  C23  1  0.26685800  0.51031400  0.89923200  1
  C  C24  1  0.23179900  0.38794000  0.84618000  1
  C  C25  1  0.11292900  0.36860400  0.80876000  1
  C  C26  1  0.02882300  0.47234900  0.82321800  1
  C  C27  1  0.89766400  0.44774200  0.79582300  1
  C  C28  1  0.06552700  0.59756100  0.86892600  1
  C  C29  1  0.18421000  0.61657800  0.90756500  1
  C  C30  1  0.73314100  0.51031400  0.10076800  1
  C  C31  1  0.76820100  0.38794000  0.15382100  1
  C  C32  1  0.88707100  0.36860400  0.19124000  1
  C  C33  1  0.97117700  0.47235000  0.17678200  1
  C  C34  1  0.10233600  0.44774200  0.20417700  1
  C  C35  1  0.93447300  0.59756100  0.13107400  1
  C  C36  1  0.81579000  0.61657800  0.09243500  1
  N  N1  1  0.50000000  0.88195000  0.50000000  1
  N  N2  1  0.50000000  0.16097400  0.50000000  1
  O  O1  1  0.31828000  0.63950400  0.50482600  1
  O  O2  1  0.68173000  0.40344200  0.49511800  1
  O  O3  1  0.68172000  0.63950400  0.49517400  1
  O  O4  1  0.31827000  0.40344200  0.50488200  1
  O  O5  1  0.49525300  0.63960600  0.31577600  1
  O  O6  1  0.50480700  0.40329700  0.68420900  1
  O  O7  1  0.50474700  0.63960600  0.68422400  1
  O  O8  1  0.49519200  0.40329700  0.31579100  1
