# generated using pymatgen
data_V2H11C20ClO10
_symmetry_space_group_name_H-M   'P 1'
_cell_length_a   19.16923300
_cell_length_b   6.31568200
_cell_length_c   16.16080900
_cell_angle_alpha   90.00000000
_cell_angle_beta   108.92634500
_cell_angle_gamma   90.00000000
_symmetry_Int_Tables_number   1
_chemical_formula_structural   V2H11C20ClO10
_chemical_formula_sum   'V4 H22 C40 Cl2 O20'
_cell_volume   1850.75950753
_cell_formula_units_Z   2
loop_
 _symmetry_equiv_pos_site_id
 _symmetry_equiv_pos_as_xyz
  1  'x, y, z'
loop_
 _atom_site_type_symbol
 _atom_site_label
 _atom_site_symmetry_multiplicity
 _atom_site_fract_x
 _atom_site_fract_y
 _atom_site_fract_z
 _atom_site_occupancy
  V  V1  1  0.49650900  0.94933300  0.48753600  1
  V  V2  1  0.99650900  0.05066800  0.98753600  1
  V  V3  1  0.50042300  0.44996400  0.50857700  1
  V  V4  1  0.00042300  0.55003600  0.00857700  1
  H  H1  1  0.24914000  0.05132700  0.68023600  1
  H  H2  1  0.74914000  0.94867300  0.18023600  1
  H  H3  1  0.33099600  0.05073000  0.59142700  1
  H  H4  1  0.83099600  0.94927000  0.09142700  1
  H  H5  1  0.38781900  0.40781800  0.66133200  1
  H  H6  1  0.88781900  0.59218200  0.16133200  1
  H  H7  1  0.30213300  0.40425000  0.74696100  1
  H  H8  1  0.80213300  0.59575100  0.24696100  1
  H  H9  1  0.19158500  0.40968800  0.75541500  1
  H  H10  1  0.69158500  0.59031200  0.25541500  1
  H  H11  1  0.10694500  0.43684500  0.84196400  1
  H  H12  1  0.60694500  0.56315400  0.34196500  1
  H  H13  1  0.24550700  0.06339100  0.80277100  1
  H  H14  1  0.74550700  0.93660900  0.30277100  1
  H  H15  1  0.67876300  0.06351000  0.68777000  1
  H  H16  1  0.17876300  0.93649000  0.18777000  1
  H  H17  1  0.72197700  0.59866800  0.68691200  1
  H  H18  1  0.22197700  0.40133200  0.18691200  1
  H  H19  1  0.81294200  0.07999300  0.79277200  1
  H  H20  1  0.31294200  0.92000700  0.29277200  1
  H  H21  1  0.77775200  0.61629400  0.81459100  1
  H  H22  1  0.27775200  0.38370600  0.31459100  1
  C  C1  1  0.38176000  0.24035100  0.39622400  1
  C  C2  1  0.88176000  0.75964900  0.89622300  1
  C  C3  1  0.58266100  0.21231600  0.42487500  1
  C  C4  1  0.08266100  0.78768400  0.92487500  1
  C  C5  1  0.61547000  0.71580100  0.59991000  1
  C  C6  1  0.11547000  0.28419900  0.09991000  1
  C  C7  1  0.41379600  0.73961800  0.56970000  1
  C  C8  1  0.91379600  0.26038200  0.06970000  1
  C  C9  1  0.27936400  0.90944400  0.67619100  1
  C  C10  1  0.77936400  0.09055600  0.17619100  1
  C  C11  1  0.32496000  0.90898500  0.62599900  1
  C  C12  1  0.82496000  0.09101500  0.12599900  1
  C  C13  1  0.36463800  0.73034400  0.62166400  1
  C  C14  1  0.86463800  0.26965600  0.12166400  1
  C  C15  1  0.35694000  0.54854700  0.66528000  1
  C  C16  1  0.85694000  0.45145300  0.16528000  1
  C  C17  1  0.30861800  0.54620600  0.71278600  1
  C  C18  1  0.80861800  0.45379400  0.21278600  1
  C  C19  1  0.27087800  0.72825800  0.71930800  1
  C  C20  1  0.77087800  0.27174200  0.21930800  1
  C  C21  1  0.18544000  0.55844400  0.78543700  1
  C  C22  1  0.68544000  0.44155600  0.28543700  1
  C  C23  1  0.13773200  0.57385600  0.83349100  1
  C  C24  1  0.63773200  0.42614400  0.33349100  1
  C  C25  1  0.13070100  0.76410000  0.87203200  1
  C  C26  1  0.63070100  0.23590000  0.37203200  1
  C  C27  1  0.17025100  0.93817800  0.86191500  1
  C  C28  1  0.67025100  0.06182200  0.36191500  1
  C  C29  1  0.21520500  0.92528300  0.81113900  1
  C  C30  1  0.71520500  0.07471700  0.31113900  1
  C  C31  1  0.22319500  0.73559000  0.77325800  1
  C  C32  1  0.72319500  0.26441000  0.27325800  1
  C  C33  1  0.71079400  0.92047000  0.70925300  1
  C  C34  1  0.21079400  0.07953000  0.20925300  1
  C  C35  1  0.68645200  0.73636400  0.67024100  1
  C  C36  1  0.18645200  0.26363600  0.17024100  1
  C  C37  1  0.78351700  0.93085300  0.77781000  1
  C  C38  1  0.28351700  0.06914700  0.27781000  1
  C  C39  1  0.81087200  0.75892500  0.82499300  1
  C  C40  1  0.31087200  0.24107500  0.32499300  1
  Cl  Cl1  1  0.16145900  0.17835000  0.91175800  1
  Cl  Cl2  1  0.66145900  0.82165000  0.41175800  1
  O  O1  1  0.52280800  0.32623600  0.40798100  1
  O  O2  1  0.02280800  0.67376400  0.90798100  1
  O  O3  1  0.43673700  0.12113800  0.38848800  1
  O  O4  1  0.93673700  0.87886200  0.88848800  1
  O  O5  1  0.40762100  0.91115300  0.52144000  1
  O  O6  1  0.90762100  0.08884800  0.02144000  1
  O  O7  1  0.58882200  0.03655900  0.46813500  1
  O  O8  1  0.08882200  0.96344100  0.96813500  1
  O  O9  1  0.55926100  0.83391800  0.59997800  1
  O  O10  1  0.05926100  0.16608300  0.09997800  1
  O  O11  1  0.39373100  0.40527100  0.44929200  1
  O  O12  1  0.89373100  0.59473000  0.94929200  1
  O  O13  1  0.50961700  0.22636600  0.56520700  1
  O  O14  1  0.00961700  0.77363500  0.06520700  1
  O  O15  1  0.60525900  0.54283700  0.55381200  1
  O  O16  1  0.10525900  0.45716300  0.05381200  1
  O  O17  1  0.47608100  0.62934100  0.59579700  1
  O  O18  1  0.97608100  0.37065900  0.09579700  1
  O  O19  1  0.48466200  0.72163400  0.43062000  1
  O  O20  1  0.98466200  0.27836600  0.93062000  1
