# generated using pymatgen
data_ZnH10C18BrNO4
_symmetry_space_group_name_H-M   'P 1'
_cell_length_a   9.83575600
_cell_length_b   10.93167200
_cell_length_c   17.50339800
_cell_angle_alpha   90.00663300
_cell_angle_beta   86.23260300
_cell_angle_gamma   90.00021000
_symmetry_Int_Tables_number   1
_chemical_formula_structural   ZnH10C18BrNO4
_chemical_formula_sum   'Zn2 H20 C36 Br2 N2 O8'
_cell_volume   1877.92042797
_cell_formula_units_Z   2
loop_
 _symmetry_equiv_pos_site_id
 _symmetry_equiv_pos_as_xyz
  1  'x, y, z'
loop_
 _atom_site_type_symbol
 _atom_site_label
 _atom_site_symmetry_multiplicity
 _atom_site_fract_x
 _atom_site_fract_y
 _atom_site_fract_z
 _atom_site_occupancy
  Zn  Zn1  1  0.33994800  0.49682300  0.51112500  1
  Zn  Zn2  1  0.64974000  0.49598100  0.51135100  1
  H  H1  1  0.68397500  0.51358000  0.75439200  1
  H  H2  1  0.30823700  0.45550500  0.27046000  1
  H  H3  1  0.64199800  0.45560400  0.00710500  1
  H  H4  1  0.23719800  0.48066200  0.89568700  1
  H  H5  1  0.31516100  0.44421100  0.13329900  1
  H  H6  1  0.25041700  0.47935300  0.75651600  1
  H  H7  1  0.33772300  0.51808800  0.01518600  1
  H  H8  1  0.67088000  0.51937800  0.89119800  1
  H  H9  1  0.74192300  0.51826700  0.12112400  1
  H  H10  1  0.63217000  0.88552200  0.59363200  1
  H  H11  1  0.36433900  0.77248300  0.38718000  1
  H  H12  1  0.24280100  0.88370800  0.29536000  1
  H  H13  1  0.24071300  0.10775700  0.29591500  1
  H  H14  1  0.36012000  0.21985300  0.38822000  1
  H  H15  1  0.63059200  0.10832100  0.59407000  1
  H  H16  1  0.73695800  0.65911500  0.61360800  1
  H  H17  1  0.84695700  0.79135600  0.69570900  1
  H  H18  1  0.09586300  0.79254300  0.69610000  1
  H  H19  1  0.22736900  0.66074900  0.61344900  1
  H  H20  1  0.13217500  0.36499800  0.42840600  1
  C  C1  1  0.49615900  0.73589100  0.50868900  1
  C  C2  1  0.47791200  0.49449600  0.66127300  1
  C  C3  1  0.49376500  0.25720300  0.50938700  1
  C  C4  1  0.51202500  0.49575300  0.36102000  1
  C  C5  1  0.46843400  0.49471500  0.74523400  1
  C  C6  1  0.58505200  0.50492600  0.78459400  1
  C  C7  1  0.57728500  0.50652100  0.86346100  1
  C  C8  1  0.45229800  0.49585200  0.90443300  1
  C  C9  1  0.33574200  0.48744000  0.86480400  1
  C  C10  1  0.34342600  0.48668300  0.78580900  1
  C  C11  1  0.40815100  0.46566600  0.15990500  1
  C  C12  1  0.40463300  0.47110900  0.23877200  1
  C  C13  1  0.64419300  0.51117900  0.23277100  1
  C  C14  1  0.64640200  0.50428100  0.15412400  1
  C  C15  1  0.52963800  0.48283900  0.11699100  1
  C  C16  1  0.43774700  0.49760600  0.98893900  1
  C  C17  1  0.54179900  0.47611200  0.03281100  1
  C  C18  1  0.52180200  0.49346700  0.27645000  1
  C  C19  1  0.36035400  0.87049800  0.39307100  1
  C  C20  1  0.29237100  0.93322100  0.33919800  1
  C  C21  1  0.29122100  0.05855700  0.33950900  1
  C  C22  1  0.35805800  0.12176100  0.39366900  1
  C  C23  1  0.42399800  0.05997700  0.45013300  1
  C  C24  1  0.42514300  0.93270500  0.44981900  1
  C  C25  1  0.49709400  0.86975400  0.50355800  1
  C  C26  1  0.57399300  0.93390700  0.55295800  1
  C  C27  1  0.57295800  0.05961500  0.55324500  1
  C  C28  1  0.49484700  0.12331900  0.50422200  1
  C  C29  1  0.84450400  0.65356000  0.60981200  1
  C  C30  1  0.90717900  0.73111800  0.65800000  1
  C  C31  1  0.04548500  0.73187300  0.65819700  1
  C  C32  1  0.12031100  0.65505500  0.61007600  1
  C  C33  1  0.05924700  0.57561900  0.56051000  1
  C  C34  1  0.91782500  0.57441200  0.56019100  1
  C  C35  1  0.93197700  0.42352400  0.46577600  1
  C  C36  1  0.07260500  0.42529000  0.46636800  1
  Br  Br1  1  0.85414500  0.31270600  0.39663800  1
  Br  Br2  1  0.81478400  0.55014700  0.27376200  1
  N  N1  1  0.85387300  0.49775500  0.51257000  1
  N  N2  1  0.13586200  0.50058600  0.51331200  1
  O  O1  1  0.37960600  0.67865700  0.50986300  1
  O  O2  1  0.61228100  0.67830100  0.51030800  1
  O  O3  1  0.36590200  0.49481600  0.62509400  1
  O  O4  1  0.59851700  0.49440000  0.62537100  1
  O  O5  1  0.37568300  0.31429900  0.51033100  1
  O  O6  1  0.61185400  0.31373500  0.51103600  1
  O  O7  1  0.38948200  0.49543500  0.39683400  1
  O  O8  1  0.62506100  0.49497000  0.39730900  1
