# generated using pymatgen
data_Cu3H32C48(N2O3)8
_symmetry_space_group_name_H-M   'P 1'
_cell_length_a   30.41208700
_cell_length_b   30.03383900
_cell_length_c   24.53148200
_cell_angle_alpha   90.00000000
_cell_angle_beta   128.29854600
_cell_angle_gamma   90.00000000
_symmetry_Int_Tables_number   1
_chemical_formula_structural   Cu3H32C48(N2O3)8
_chemical_formula_sum   'Cu12 H128 C192 N64 O96'
_cell_volume   17584.72091223
_cell_formula_units_Z   4
loop_
 _symmetry_equiv_pos_site_id
 _symmetry_equiv_pos_as_xyz
  1  'x, y, z'
loop_
 _atom_site_type_symbol
 _atom_site_label
 _atom_site_symmetry_multiplicity
 _atom_site_fract_x
 _atom_site_fract_y
 _atom_site_fract_z
 _atom_site_occupancy
  Cu  Cu1  1  0.77672000  0.71828800  0.49964600  1
  Cu  Cu2  1  0.03514600  0.99752500  0.56804400  1
  Cu  Cu3  1  0.46468800  0.49725400  0.43274100  1
  Cu  Cu4  1  0.53514600  0.49752500  0.56804400  1
  Cu  Cu5  1  0.22354400  0.71873800  0.50106200  1
  Cu  Cu6  1  0.27672000  0.21828800  0.49964600  1
  Cu  Cu7  1  0.72354400  0.21873800  0.50106200  1
  Cu  Cu8  1  0.71713000  0.78141600  0.50317300  1
  Cu  Cu9  1  0.28374600  0.78190500  0.49878800  1
  Cu  Cu10  1  0.21713000  0.28141600  0.50317300  1
  Cu  Cu11  1  0.78374600  0.28190500  0.49878800  1
  Cu  Cu12  1  0.96468800  0.99725400  0.43274100  1
  H  H1  1  0.53590100  0.81107900  0.15040100  1
  H  H2  1  0.16244200  0.94806600  0.50783300  1
  H  H3  1  0.08368700  0.83918200  0.31920200  1
  H  H4  1  0.37603300  0.36653700  0.69573700  1
  H  H5  1  0.41693300  0.33873300  0.68234400  1
  H  H6  1  0.62472200  0.36700300  0.30605800  1
  H  H7  1  0.58368700  0.33918200  0.31920200  1
  H  H8  1  0.06858700  0.86167600  0.68762300  1
  H  H9  1  0.02830200  0.82769400  0.61885800  1
  H  H10  1  0.93205000  0.86149700  0.31403700  1
  H  H11  1  0.97244600  0.82752900  0.38279500  1
  H  H12  1  0.56858700  0.36167600  0.68762300  1
  H  H13  1  0.33779300  0.44763200  0.49361600  1
  H  H14  1  0.52830200  0.32769400  0.61885800  1
  H  H15  1  0.43205000  0.36149700  0.31403700  1
  H  H16  1  0.47244600  0.32752900  0.38279500  1
  H  H17  1  0.95906800  0.73423800  0.58928200  1
  H  H18  1  0.96619700  0.78084900  0.63257600  1
  H  H19  1  0.04188600  0.73434700  0.41304400  1
  H  H20  1  0.03461400  0.78088200  0.36952400  1
  H  H21  1  0.45906800  0.23423800  0.58928200  1
  H  H22  1  0.46619700  0.28084900  0.63257600  1
  H  H23  1  0.54188600  0.23434700  0.41304400  1
  H  H24  1  0.66244200  0.44806600  0.50783300  1
  H  H25  1  0.53461400  0.28088200  0.36952400  1
  H  H26  1  0.84845000  0.88113100  0.29939300  1
  H  H27  1  0.81811500  0.90716500  0.32910700  1
  H  H28  1  0.15209400  0.88166700  0.70224000  1
  H  H29  1  0.18216900  0.90783100  0.67228100  1
  H  H30  1  0.34845000  0.38113100  0.29939300  1
  H  H31  1  0.31811500  0.40716500  0.32910800  1
  H  H32  1  0.65209400  0.38166700  0.70224000  1
  H  H33  1  0.68216900  0.40783100  0.67228100  1
  H  H34  1  0.85729000  0.75067000  0.85283600  1
  H  H35  1  0.14245500  0.75857200  0.14862900  1
  H  H36  1  0.35729000  0.25067000  0.85283600  1
  H  H37  1  0.64245600  0.25857200  0.14862900  1
  H  H38  1  0.92207800  0.73752400  0.71367700  1
  H  H39  1  0.07849100  0.74195600  0.28823000  1
  H  H40  1  0.42207800  0.23752400  0.71367700  1
  H  H41  1  0.46328900  0.81089100  0.85137400  1
  H  H42  1  0.57849100  0.24195600  0.28823000  1
  H  H43  1  0.54915000  0.65665000  0.50054400  1
  H  H44  1  0.45015600  0.65675200  0.49843700  1
  H  H45  1  0.04915000  0.15665000  0.50054400  1
  H  H46  1  0.95015600  0.15675200  0.49843700  1
  H  H47  1  0.57036200  0.57960900  0.38751000  1
  H  H48  1  0.43022200  0.58027900  0.61317100  1
  H  H49  1  0.07036200  0.07960900  0.38751000  1
  H  H50  1  0.93022200  0.08027900  0.61317100  1
  H  H51  1  0.66473600  0.66780100  0.59915000  1
  H  H52  1  0.03590100  0.31107900  0.15040100  1
  H  H53  1  0.33416700  0.66798000  0.40081100  1
  H  H54  1  0.16473600  0.16780100  0.59915000  1
  H  H55  1  0.83416700  0.16798000  0.40081100  1
  H  H56  1  0.57261000  0.88519900  0.28835800  1
  H  H57  1  0.62572200  0.87569600  0.28518500  1
  H  H58  1  0.42789700  0.88484800  0.71404500  1
  H  H59  1  0.37433000  0.87545200  0.71636500  1
  H  H60  1  0.07261100  0.38519900  0.28835800  1
  H  H61  1  0.12572200  0.37569600  0.28518500  1
  H  H62  1  0.92789700  0.38484800  0.71404500  1
  H  H63  1  0.96328900  0.31089100  0.85137400  1
  H  H64  1  0.87433000  0.37545200  0.71636500  1
  H  H65  1  0.73174500  0.84683400  0.29275300  1
  H  H66  1  0.77209500  0.81320100  0.36251000  1
  H  H67  1  0.26891700  0.84746900  0.70900300  1
  H  H68  1  0.22875100  0.81376600  0.63929800  1
  H  H69  1  0.23174500  0.34683400  0.29275300  1
  H  H70  1  0.27209500  0.31320100  0.36251100  1
  H  H71  1  0.76891700  0.34746900  0.70900300  1
  H  H72  1  0.72875100  0.31376600  0.63929800  1
  H  H73  1  0.72463300  0.79274200  0.72041100  1
  H  H74  1  0.68394300  0.69957200  0.28547200  1
  H  H75  1  0.73654700  0.74570900  0.76550900  1
  H  H76  1  0.27708600  0.79708300  0.28444700  1
  H  H77  1  0.26263400  0.75227800  0.23415600  1
  H  H78  1  0.22463300  0.29274200  0.72041100  1
  H  H79  1  0.23654700  0.24570900  0.76550900  1
  H  H80  1  0.77708600  0.29708300  0.28444700  1
  H  H81  1  0.76263400  0.25227800  0.23415600  1
  H  H82  1  0.06710800  0.77339200  0.86431600  1
  H  H83  1  0.00365100  0.78299000  0.78851900  1
  H  H84  1  0.92647500  0.77575000  0.06610800  1
  H  H85  1  0.31560200  0.69924900  0.71530800  1
  H  H86  1  0.98354500  0.80962000  0.10882300  1
  H  H87  1  0.56710800  0.27339200  0.86431600  1
  H  H88  1  0.50365100  0.28299000  0.78851900  1
  H  H89  1  0.42647500  0.27575000  0.06610800  1
  H  H90  1  0.48354500  0.30962000  0.10882300  1
  H  H91  1  0.53147800  0.72269100  0.30893900  1
  H  H92  1  0.58828500  0.69050900  0.34171400  1
  H  H93  1  0.46966100  0.72337700  0.69102800  1
  H  H94  1  0.41296000  0.69123100  0.65900900  1
  H  H95  1  0.03147800  0.22269100  0.30893900  1
  H  H96  1  0.18394300  0.19957200  0.28547200  1
  H  H97  1  0.08828500  0.19050900  0.34171400  1
  H  H98  1  0.96966100  0.22337700  0.69102800  1
  H  H99  1  0.91296000  0.19123100  0.65900900  1
  H  H100  1  0.72236000  0.57316400  0.42625900  1
  H  H101  1  0.65223700  0.57783000  0.37933800  1
  H  H102  1  0.27901300  0.57423100  0.57649200  1
  H  H103  1  0.34905700  0.57898800  0.62271300  1
  H  H104  1  0.22236000  0.07316400  0.42625900  1
  H  H105  1  0.15223700  0.07783000  0.37933800  1
  H  H106  1  0.77901300  0.07423100  0.57649200  1
  H  H107  1  0.81560200  0.19924900  0.71530800  1
  H  H108  1  0.84905700  0.07898800  0.62271300  1
  H  H109  1  0.71040700  0.56578800  0.70244500  1
  H  H110  1  0.72298200  0.61396800  0.67880300  1
  H  H111  1  0.28848000  0.56526700  0.29822800  1
  H  H112  1  0.27628600  0.61371100  0.32170200  1
  H  H113  1  0.21040700  0.06578800  0.70244500  1
  H  H114  1  0.22298200  0.11396800  0.67880300  1
  H  H115  1  0.78848000  0.06526700  0.29822800  1
  H  H116  1  0.77628600  0.11371100  0.32170200  1
  H  H117  1  0.64934500  0.67949000  0.08549500  1
  H  H118  1  0.83779300  0.94763200  0.49361600  1
  H  H119  1  0.66071400  0.73285800  0.11297800  1
  H  H120  1  0.34889400  0.67915400  0.91465100  1
  H  H121  1  0.33766500  0.73253700  0.88728100  1
  H  H122  1  0.14934500  0.17949000  0.08549500  1
  H  H123  1  0.16071400  0.23285800  0.11297800  1
  H  H124  1  0.84889400  0.17915400  0.91465100  1
  H  H125  1  0.83766500  0.23253700  0.88728100  1
  H  H126  1  0.87603300  0.86653700  0.69573700  1
  H  H127  1  0.91693300  0.83873300  0.68234400  1
  H  H128  1  0.12472200  0.86700300  0.30605800  1
  C  C1  1  0.80997000  0.80948000  0.50657500  1
  C  C2  1  0.31624100  0.69042500  0.50460000  1
  C  C3  1  0.64937600  0.24672400  0.29023200  1
  C  C4  1  0.03295300  0.75287300  0.07009300  1
  C  C5  1  0.96634100  0.74733400  0.93138000  1
  C  C6  1  0.53295300  0.25287300  0.07009300  1
  C  C7  1  0.46634100  0.24733400  0.93138000  1
  C  C8  1  0.58576000  0.64907800  0.44050100  1
  C  C9  1  0.41442200  0.64955200  0.55955000  1
  C  C10  1  0.08576000  0.14907800  0.44050100  1
  C  C11  1  0.91442200  0.14955200  0.55955000  1
  C  C12  1  0.58123300  0.64179400  0.49802600  1
  C  C13  1  0.18408600  0.18996400  0.49625500  1
  C  C14  1  0.41834800  0.64201300  0.50156500  1
  C  C15  1  0.08123300  0.14179400  0.49802600  1
  C  C16  1  0.91834800  0.14201300  0.50156500  1
  C  C17  1  0.58934400  0.59248700  0.49451600  1
  C  C18  1  0.41035500  0.59273600  0.50557500  1
  C  C19  1  0.08934400  0.09248700  0.49451600  1
  C  C20  1  0.91035500  0.09273600  0.50557500  1
  C  C21  1  0.59245400  0.59946400  0.43594400  1
  C  C22  1  0.40783000  0.59998700  0.56456800  1
  C  C23  1  0.09245400  0.09946400  0.43594400  1
  C  C24  1  0.81624100  0.19042500  0.50460000  1
  C  C25  1  0.90783000  0.09998700  0.56456800  1
  C  C26  1  0.65544700  0.60508900  0.48977700  1
  C  C27  1  0.34479300  0.60555600  0.51124000  1
  C  C28  1  0.15544700  0.10508900  0.48977700  1
  C  C29  1  0.84479300  0.10555600  0.51124000  1
  C  C30  1  0.65182700  0.59752500  0.54767500  1
  C  C31  1  0.34781700  0.59773000  0.45290700  1
  C  C32  1  0.15182700  0.09752500  0.54767500  1
  C  C33  1  0.84781700  0.09773000  0.45290700  1
  C  C34  1  0.64464000  0.64718500  0.55195900  1
  C  C35  1  0.81276300  0.74561600  0.63480600  1
  C  C36  1  0.35487000  0.64736700  0.44814100  1
  C  C37  1  0.14464000  0.14718500  0.55195900  1
  C  C38  1  0.85487000  0.14736700  0.44814100  1
  C  C39  1  0.64829800  0.65458800  0.49356900  1
  C  C40  1  0.35184300  0.65501500  0.50700100  1
  C  C41  1  0.14829800  0.15458800  0.49356900  1
  C  C42  1  0.85184300  0.15501500  0.50700100  1
  C  C43  1  0.44320800  0.55721800  0.50356500  1
  C  C44  1  0.55639500  0.55715100  0.49666500  1
  C  C45  1  0.94320800  0.05721800  0.50356500  1
  C  C46  1  0.18805000  0.74693700  0.36647900  1
  C  C47  1  0.05639500  0.05715100  0.49666500  1
  C  C48  1  0.94251700  0.93810000  0.50413100  1
  C  C49  1  0.05766900  0.93817200  0.49720700  1
  C  C50  1  0.44251700  0.43810000  0.50413100  1
  C  C51  1  0.55766900  0.43817200  0.49720700  1
  C  C52  1  0.58593300  0.82096400  0.28069100  1
  C  C53  1  0.41425500  0.82064100  0.72140000  1
  C  C54  1  0.08593300  0.32096400  0.28069100  1
  C  C55  1  0.91425500  0.32064100  0.72140000  1
  C  C56  1  0.76735100  0.87687000  0.38444000  1
  C  C57  1  0.31276300  0.24561600  0.63480600  1
  C  C58  1  0.23320900  0.87748400  0.61727500  1
  C  C59  1  0.26735100  0.37687000  0.38444000  1
  C  C60  1  0.73320900  0.37748400  0.61727500  1
  C  C61  1  0.77293000  0.74764400  0.71986100  1
  C  C62  1  0.22690500  0.75173000  0.28064600  1
  C  C63  1  0.27293000  0.24764400  0.71986100  1
  C  C64  1  0.72690500  0.25173000  0.28064600  1
  C  C65  1  0.00610900  0.73504100  0.84809800  1
  C  C66  1  0.99428800  0.75112700  0.15690000  1
  C  C67  1  0.50610900  0.23504100  0.84809800  1
  C  C68  1  0.68805000  0.24693700  0.36647900  1
  C  C69  1  0.49428800  0.25112700  0.15690000  1
  C  C70  1  0.54600800  0.67692700  0.37775800  1
  C  C71  1  0.45450900  0.67750700  0.62201600  1
  C  C72  1  0.04600800  0.17692700  0.37775800  1
  C  C73  1  0.95450900  0.17750700  0.62201600  1
  C  C74  1  0.69599200  0.58386500  0.48246200  1
  C  C75  1  0.30466200  0.58449600  0.51941500  1
  C  C76  1  0.19599200  0.08386500  0.48246200  1
  C  C77  1  0.80466200  0.08449600  0.51941500  1
  C  C78  1  0.68714600  0.56505800  0.60597700  1
  C  C79  1  0.60018800  0.78670400  0.25130700  1
  C  C80  1  0.31229000  0.56508000  0.39496200  1
  C  C81  1  0.18714600  0.06505800  0.60597700  1
  C  C82  1  0.81229000  0.06508000  0.39496200  1
  C  C83  1  0.63486100  0.69258100  0.15328500  1
  C  C84  1  0.36387700  0.69230900  0.84734600  1
  C  C85  1  0.13486100  0.19258100  0.15328500  1
  C  C86  1  0.86387700  0.19230900  0.84734600  1
  C  C87  1  0.87305900  0.88983900  0.61677400  1
  C  C88  1  0.12752400  0.89023000  0.38493300  1
  C  C89  1  0.37305900  0.38983900  0.61677400  1
  C  C90  1  0.39955900  0.78641900  0.75034800  1
  C  C91  1  0.62752400  0.39023000  0.38493300  1
  C  C92  1  0.98646900  0.87141000  0.63370400  1
  C  C93  1  0.01413900  0.87143400  0.36797400  1
  C  C94  1  0.48646900  0.37141000  0.63370400  1
  C  C95  1  0.51413900  0.37143400  0.36797400  1
  C  C96  1  0.92578800  0.78903900  0.52994900  1
  C  C97  1  0.07512400  0.78924600  0.47214100  1
  C  C98  1  0.42578800  0.28903900  0.52994900  1
  C  C99  1  0.57512400  0.28924600  0.47214100  1
  C  C100  1  0.87220800  0.85840000  0.39092300  1
  C  C101  1  0.10018800  0.28670400  0.25130800  1
  C  C102  1  0.12846700  0.85877300  0.61084600  1
  C  C103  1  0.37220800  0.35840000  0.39092300  1
  C  C104  1  0.62846700  0.35877300  0.61084600  1
  C  C105  1  0.19080900  0.80994600  0.49521300  1
  C  C106  1  0.89955900  0.28641900  0.75034800  1
  C  C107  1  0.56921900  0.78695900  0.18011100  1
  C  C108  1  0.43003200  0.78675000  0.82145100  1
  C  C109  1  0.06921900  0.28695900  0.18011100  1
  C  C110  1  0.93003200  0.28675000  0.82145100  1
  C  C111  1  0.57710300  0.75542600  0.14610800  1
  C  C112  1  0.42180100  0.75525600  0.85515400  1
  C  C113  1  0.07710300  0.25542600  0.14610800  1
  C  C114  1  0.92180100  0.25525600  0.85515400  1
  C  C115  1  0.61934500  0.72406500  0.18480800  1
  C  C116  1  0.30997000  0.30948000  0.50657500  1
  C  C117  1  0.37969900  0.72381800  0.81619000  1
  C  C118  1  0.11934500  0.22406500  0.18480800  1
  C  C119  1  0.87969900  0.22381800  0.81619000  1
  C  C120  1  0.65085900  0.72387400  0.25628400  1
  C  C121  1  0.34863100  0.72356700  0.74476200  1
  C  C122  1  0.15085900  0.22387400  0.25628400  1
  C  C123  1  0.84863100  0.22356700  0.74476200  1
  C  C124  1  0.64211600  0.75476700  0.29068100  1
  C  C125  1  0.35773300  0.75444500  0.71069700  1
  C  C126  1  0.14211600  0.25476700  0.29068100  1
  C  C127  1  0.69080900  0.30994600  0.49521300  1
  C  C128  1  0.85773300  0.25444500  0.71069700  1
  C  C129  1  0.46103700  0.75481900  0.93138100  1
  C  C130  1  0.53752400  0.75490800  0.06989700  1
  C  C131  1  0.96103700  0.25481900  0.93138100  1
  C  C132  1  0.03752400  0.25490800  0.06989700  1
  C  C133  1  0.87626400  0.88175800  0.55931900  1
  C  C134  1  0.12429700  0.88208400  0.44236100  1
  C  C135  1  0.37626400  0.38175800  0.55931900  1
  C  C136  1  0.62429700  0.38208400  0.44236100  1
  C  C137  1  0.85573900  0.91410800  0.50008900  1
  C  C138  1  0.68008400  0.75354700  0.36754200  1
  C  C139  1  0.14465600  0.91448800  0.50147700  1
  C  C140  1  0.35573900  0.41410800  0.50008900  1
  C  C141  1  0.64465600  0.41448800  0.50147700  1
  C  C142  1  0.90784300  0.90382800  0.50635800  1
  C  C143  1  0.09259000  0.90404100  0.49521500  1
  C  C144  1  0.40784300  0.40382800  0.50635800  1
  C  C145  1  0.59259000  0.40404100  0.49521500  1
  C  C146  1  0.92836500  0.87222800  0.56613800  1
  C  C147  1  0.07223200  0.87239000  0.43555400  1
  C  C148  1  0.42836500  0.37222800  0.56613800  1
  C  C149  1  0.32013800  0.75331400  0.63383700  1
  C  C150  1  0.57223200  0.37239000  0.43555400  1
  C  C151  1  0.89859500  0.83377100  0.51524900  1
  C  C152  1  0.10217300  0.83402400  0.48658300  1
  C  C153  1  0.39859500  0.33377100  0.51524900  1
  C  C154  1  0.60217300  0.33402400  0.48658300  1
  C  C155  1  0.87786500  0.86557600  0.45540000  1
  C  C156  1  0.12274900  0.86588700  0.54631600  1
  C  C157  1  0.37786500  0.36557600  0.45540000  1
  C  C158  1  0.62274900  0.36588700  0.54631600  1
  C  C159  1  0.82635700  0.87533800  0.44982800  1
  C  C160  1  0.18008400  0.25354700  0.36754200  1
  C  C161  1  0.17422200  0.87580000  0.55187300  1
  C  C162  1  0.32635700  0.37533800  0.44982800  1
  C  C163  1  0.67422200  0.37580000  0.55187300  1
  C  C164  1  0.84657400  0.84365200  0.50873700  1
  C  C165  1  0.15416500  0.84406200  0.49307600  1
  C  C166  1  0.34657500  0.34365200  0.50873700  1
  C  C167  1  0.65416500  0.34406200  0.49307600  1
  C  C168  1  0.83260400  0.74740900  0.75055200  1
  C  C169  1  0.16738400  0.75260700  0.25059500  1
  C  C170  1  0.33260400  0.24740900  0.75055200  1
  C  C171  1  0.82013800  0.25331400  0.63383700  1
  C  C172  1  0.66738400  0.25260700  0.25059500  1
  C  C173  1  0.87145200  0.74818800  0.82203000  1
  C  C174  1  0.12822700  0.75635000  0.17937300  1
  C  C175  1  0.37145200  0.24818800  0.82203000  1
  C  C176  1  0.62822700  0.25635000  0.17937300  1
  C  C177  1  0.92812100  0.74548700  0.85520100  1
  C  C178  1  0.07152500  0.75382600  0.14647100  1
  C  C179  1  0.42812100  0.24548700  0.85520100  1
  C  C180  1  0.57152500  0.25382600  0.14647200  1
  C  C181  1  0.94662900  0.74170100  0.81591400  1
  C  C182  1  0.68408600  0.68996400  0.49625500  1
  C  C183  1  0.05356000  0.74904700  0.18631900  1
  C  C184  1  0.44662900  0.24170100  0.81591400  1
  C  C185  1  0.55356000  0.24904700  0.18631900  1
  C  C186  1  0.90777600  0.74083700  0.74428000  1
  C  C187  1  0.09269300  0.74446200  0.25741900  1
  C  C188  1  0.40777600  0.24083700  0.74428000  1
  C  C189  1  0.59269300  0.24446200  0.25741900  1
  C  C190  1  0.85105600  0.74407400  0.71104200  1
  C  C191  1  0.14937600  0.74672400  0.29023200  1
  C  C192  1  0.35105600  0.24407400  0.71104200  1
  N  N1  1  0.51798200  0.71614500  0.03494000  1
  N  N2  1  0.98496000  0.72949200  0.03557800  1
  N  N3  1  0.51437600  0.27068700  0.96580500  1
  N  N4  1  0.48496000  0.22949200  0.03557800  1
  N  N5  1  0.04742900  0.77314100  0.03433600  1
  N  N6  1  0.95181400  0.72714200  0.96707600  1
  N  N7  1  0.54742900  0.27314100  0.03433600  1
  N  N8  1  0.45181400  0.22714200  0.96707600  1
  N  N9  1  0.58480000  0.86659000  0.26379700  1
  N  N10  1  0.41532800  0.86627600  0.73821400  1
  N  N11  1  0.08480000  0.36659000  0.26379700  1
  N  N12  1  0.48061600  0.71610000  0.96645200  1
  N  N13  1  0.91532800  0.36627600  0.73821400  1
  N  N14  1  0.74223800  0.83855900  0.34085900  1
  N  N15  1  0.25848800  0.83921600  0.66092400  1
  N  N16  1  0.24223800  0.33855900  0.34085900  1
  N  N17  1  0.75848800  0.33921600  0.66092400  1
  N  N18  1  0.75525600  0.76959300  0.75488900  1
  N  N19  1  0.24528300  0.77545200  0.24767900  1
  N  N20  1  0.25525600  0.26959300  0.75488900  1
  N  N21  1  0.74528300  0.27545200  0.24767900  1
  N  N22  1  0.03090500  0.75784400  0.82208400  1
  N  N23  1  0.01798200  0.21614500  0.03494000  1
  N  N24  1  0.95996100  0.78795400  0.11476500  1
  N  N25  1  0.53090500  0.25784400  0.82208400  1
  N  N26  1  0.45996100  0.28795400  0.11476500  1
  N  N27  1  0.56628800  0.70829700  0.35446600  1
  N  N28  1  0.43464700  0.70895300  0.64574300  1
  N  N29  1  0.06628800  0.20829700  0.35446600  1
  N  N30  1  0.93464700  0.20895300  0.64574300  1
  N  N31  1  0.69059900  0.59116200  0.42109600  1
  N  N32  1  0.31054500  0.59216600  0.58103800  1
  N  N33  1  0.19059900  0.09116200  0.42109600  1
  N  N34  1  0.98061600  0.21610000  0.96645200  1
  N  N35  1  0.81054500  0.09216600  0.58103800  1
  N  N36  1  0.72452800  0.57942900  0.67664500  1
  N  N37  1  0.27464900  0.57920200  0.32418900  1
  N  N38  1  0.22452800  0.07942900  0.67664500  1
  N  N39  1  0.77464900  0.07920200  0.32418900  1
  N  N40  1  0.63352700  0.70585400  0.09640700  1
  N  N41  1  0.36486900  0.70553200  0.90398600  1
  N  N42  1  0.13352700  0.20585400  0.09640700  1
  N  N43  1  0.86486900  0.20553200  0.90398600  1
  N  N44  1  0.87777100  0.85351200  0.65766200  1
  N  N45  1  0.48055200  0.79353100  0.96636200  1
  N  N46  1  0.12287600  0.85394400  0.34402900  1
  N  N47  1  0.37777100  0.35351200  0.65766200  1
  N  N48  1  0.62287600  0.35394400  0.34402900  1
  N  N49  1  0.03300100  0.86046900  0.63562800  1
  N  N50  1  0.96763900  0.86031800  0.36603300  1
  N  N51  1  0.53300100  0.36046900  0.63562800  1
  N  N52  1  0.46763900  0.36031800  0.36603300  1
  N  N53  1  0.93852600  0.76292900  0.58680200  1
  N  N54  1  0.06235300  0.76303600  0.41535600  1
  N  N55  1  0.43852600  0.26292900  0.58680200  1
  N  N56  1  0.51790100  0.79357600  0.03481700  1
  N  N57  1  0.56235300  0.26303600  0.41535600  1
  N  N58  1  0.85593200  0.89433800  0.34379600  1
  N  N59  1  0.14447100  0.89481400  0.65772400  1
  N  N60  1  0.35593200  0.39433800  0.34379600  1
  N  N61  1  0.64447100  0.39481400  0.65772400  1
  N  N62  1  0.98055200  0.29353100  0.96636200  1
  N  N63  1  0.01790100  0.29357600  0.03481700  1
  N  N64  1  0.01437600  0.77068700  0.96580500  1
  O  O1  1  0.82141500  0.76762000  0.50595500  1
  O  O2  1  0.27653800  0.72659300  0.60171400  1
  O  O3  1  0.22356600  0.22673900  0.39913800  1
  O  O4  1  0.77653800  0.22659300  0.60171400  1
  O  O5  1  0.66974700  0.77877000  0.40198300  1
  O  O6  1  0.33082300  0.77869900  0.59990800  1
  O  O7  1  0.16974700  0.27877000  0.40198300  1
  O  O8  1  0.83082300  0.27869900  0.59990800  1
  O  O9  1  0.72682700  0.67733300  0.49950500  1
  O  O10  1  0.27328600  0.67780300  0.50087900  1
  O  O11  1  0.22682700  0.17733300  0.49950500  1
  O  O12  1  0.17909500  0.76808700  0.49524800  1
  O  O13  1  0.77328600  0.17780300  0.50087900  1
  O  O14  1  0.67218300  0.73200500  0.49650100  1
  O  O15  1  0.32848500  0.73246800  0.50505000  1
  O  O16  1  0.17218300  0.23200500  0.49650100  1
  O  O17  1  0.82848500  0.23246800  0.50505000  1
  O  O18  1  0.82435100  0.72100300  0.60091600  1
  O  O19  1  0.17614700  0.72207100  0.39984400  1
  O  O20  1  0.32435100  0.22100300  0.60091600  1
  O  O21  1  0.67614700  0.22207100  0.39984400  1
  O  O22  1  0.76988700  0.77289800  0.60363200  1
  O  O23  1  0.32141500  0.26762000  0.50595500  1
  O  O24  1  0.23118600  0.77395100  0.39821500  1
  O  O25  1  0.26988700  0.27289800  0.60363200  1
  O  O26  1  0.73118600  0.27395100  0.39821500  1
  O  O27  1  0.43585900  0.55122200  0.44504700  1
  O  O28  1  0.56369300  0.55144600  0.55519700  1
  O  O29  1  0.93585900  0.05122200  0.44504700  1
  O  O30  1  0.06369300  0.05144600  0.55519700  1
  O  O31  1  0.47791400  0.53329300  0.56024100  1
  O  O32  1  0.52173500  0.53306000  0.44018200  1
  O  O33  1  0.97791400  0.03329300  0.56024100  1
  O  O34  1  0.67909500  0.26808700  0.49524800  1
  O  O35  1  0.02173500  0.03306000  0.44018200  1
  O  O36  1  0.91858000  0.96155700  0.44653500  1
  O  O37  1  0.08145200  0.96180100  0.55461100  1
  O  O38  1  0.41858000  0.46155700  0.44653500  1
  O  O39  1  0.58145200  0.46180100  0.55461100  1
  O  O40  1  0.99534800  0.94365500  0.55957400  1
  O  O41  1  0.00478300  0.94343900  0.44175200  1
  O  O42  1  0.49534800  0.44365500  0.55957400  1
  O  O43  1  0.50478300  0.44343900  0.44175200  1
  O  O44  1  0.56866900  0.81040200  0.31238800  1
  O  O45  1  0.76730600  0.82239100  0.50367200  1
  O  O46  1  0.43194000  0.81003000  0.69019900  1
  O  O47  1  0.06866900  0.31040200  0.31238800  1
  O  O48  1  0.93194000  0.31003000  0.69019900  1
  O  O49  1  0.74033600  0.91110400  0.36826200  1
  O  O50  1  0.26007000  0.91180100  0.63340200  1
  O  O51  1  0.24033600  0.41110400  0.36826200  1
  O  O52  1  0.76007000  0.41180100  0.63340200  1
  O  O53  1  0.73881400  0.72675200  0.66705100  1
  O  O54  1  0.26016400  0.72856200  0.33097500  1
  O  O55  1  0.23881400  0.22675200  0.66705100  1
  O  O56  1  0.23366800  0.82286600  0.49851700  1
  O  O57  1  0.76016400  0.22856200  0.33097500  1
  O  O58  1  0.03404900  0.70836100  0.89536800  1
  O  O59  1  0.97602300  0.72392300  0.17518800  1
  O  O60  1  0.53404900  0.20836100  0.89536800  1
  O  O61  1  0.47602300  0.22392300  0.17518800  1
  O  O62  1  0.49570600  0.67153800  0.34458900  1
  O  O63  1  0.50475000  0.67212400  0.65462700  1
  O  O64  1  0.99570600  0.17153800  0.34458900  1
  O  O65  1  0.00475000  0.17212400  0.65462700  1
  O  O66  1  0.73382200  0.56050700  0.52872100  1
  O  O67  1  0.26730600  0.32239100  0.50367200  1
  O  O68  1  0.26674200  0.56097000  0.47362700  1
  O  O69  1  0.23382200  0.06050700  0.52872100  1
  O  O70  1  0.76674200  0.06097000  0.47362800  1
  O  O71  1  0.68388400  0.52549300  0.59280200  1
  O  O72  1  0.31564600  0.52557700  0.40852200  1
  O  O73  1  0.18388400  0.02549300  0.59280200  1
  O  O74  1  0.81564600  0.02557700  0.40852200  1
  O  O75  1  0.65371800  0.65613100  0.17969400  1
  O  O76  1  0.34508200  0.65587400  0.82082700  1
  O  O77  1  0.15371800  0.15613100  0.17969400  1
  O  O78  1  0.73366800  0.32286600  0.49851700  1
  O  O79  1  0.84508200  0.15587400  0.82082700  1
  O  O80  1  0.86409100  0.92727500  0.62697100  1
  O  O81  1  0.13648300  0.92768700  0.37479800  1
  O  O82  1  0.36409100  0.42727500  0.62697100  1
  O  O83  1  0.63648300  0.42768700  0.37479800  1
  O  O84  1  0.99457300  0.88140700  0.68741600  1
  O  O85  1  0.00600400  0.88152300  0.31427200  1
  O  O86  1  0.49457300  0.38140800  0.68741600  1
  O  O87  1  0.50600400  0.38152300  0.31427200  1
  O  O88  1  0.93865800  0.77519400  0.49488200  1
  O  O89  1  0.72356600  0.72673900  0.39913800  1
  O  O90  1  0.06235000  0.77546000  0.50733500  1
  O  O91  1  0.43865800  0.27519400  0.49488200  1
  O  O92  1  0.56235000  0.27546000  0.50733500  1
  O  O93  1  0.87723900  0.82121200  0.37561000  1
  O  O94  1  0.12377300  0.82156800  0.62645000  1
  O  O95  1  0.37723900  0.32121200  0.37561000  1
  O  O96  1  0.62377300  0.32156800  0.62645000  1
