# generated using pymatgen
data_CuH12C19O4
_symmetry_space_group_name_H-M   'P 1'
_cell_length_a   43.83688300
_cell_length_b   38.66776600
_cell_length_c   21.22979700
_cell_angle_alpha   90.00000000
_cell_angle_beta   61.78554500
_cell_angle_gamma   90.00000000
_symmetry_Int_Tables_number   1
_chemical_formula_structural   CuH12C19O4
_chemical_formula_sum   'Cu12 H144 C228 O48'
_cell_volume   31710.36884622
_cell_formula_units_Z   12
loop_
 _symmetry_equiv_pos_site_id
 _symmetry_equiv_pos_as_xyz
  1  'x, y, z'
loop_
 _atom_site_type_symbol
 _atom_site_label
 _atom_site_symmetry_multiplicity
 _atom_site_fract_x
 _atom_site_fract_y
 _atom_site_fract_z
 _atom_site_occupancy
  Cu  Cu1  1  0.00000000  0.53720500  0.50000000  1
  Cu  Cu2  1  0.50000000  0.03720500  0.50000000  1
  Cu  Cu3  1  0.00000000  0.46970100  0.50000000  1
  Cu  Cu4  1  0.50000000  0.96970100  0.50000000  1
  Cu  Cu5  1  0.96549700  0.50102700  0.03430300  1
  Cu  Cu6  1  0.03450300  0.50102700  0.96569700  1
  Cu  Cu7  1  0.46549700  0.00102700  0.03430300  1
  Cu  Cu8  1  0.53450300  0.00102700  0.96569700  1
  Cu  Cu9  1  0.50035200  0.50100900  0.06238400  1
  Cu  Cu10  1  0.49964800  0.50100900  0.93761600  1
  Cu  Cu11  1  0.00035200  0.00100900  0.06238400  1
  Cu  Cu12  1  0.99964800  0.00100900  0.93761600  1
  H  H1  1  0.02316200  0.44822100  0.76418600  1
  H  H2  1  0.97683800  0.44822100  0.23581500  1
  H  H3  1  0.52316200  0.94822100  0.76418600  1
  H  H4  1  0.47683800  0.94822100  0.23581500  1
  H  H5  1  0.05799100  0.49695800  0.65370600  1
  H  H6  1  0.94200900  0.49695800  0.34629400  1
  H  H7  1  0.55799100  0.99695800  0.65370600  1
  H  H8  1  0.44200900  0.99695800  0.34629400  1
  H  H9  1  0.03347000  0.54986700  0.75791200  1
  H  H10  1  0.96653000  0.54986700  0.24208900  1
  H  H11  1  0.53347000  0.04986700  0.75791200  1
  H  H12  1  0.46653000  0.04986700  0.24208900  1
  H  H13  1  0.97498100  0.55678500  0.73639500  1
  H  H14  1  0.02501900  0.55678500  0.26360500  1
  H  H15  1  0.47498100  0.05678500  0.73639500  1
  H  H16  1  0.52501900  0.05678500  0.26360500  1
  H  H17  1  0.94009200  0.50797400  0.84600000  1
  H  H18  1  0.05990700  0.50797400  0.15400000  1
  H  H19  1  0.44009200  0.00797400  0.84600000  1
  H  H20  1  0.55990700  0.00797400  0.15400000  1
  H  H21  1  0.96470800  0.45506800  0.74217300  1
  H  H22  1  0.03529200  0.45506800  0.25782700  1
  H  H23  1  0.46470800  0.95506800  0.74217300  1
  H  H24  1  0.53529200  0.95506800  0.25782700  1
  H  H25  1  0.39045300  0.50829300  0.00904800  1
  H  H26  1  0.60954700  0.50829300  0.99095200  1
  H  H27  1  0.89045300  0.00829300  0.00904800  1
  H  H28  1  0.10954700  0.00829300  0.99095200  1
  H  H29  1  0.32789600  0.51090000  0.07150000  1
  H  H30  1  0.67210400  0.51090000  0.92850000  1
  H  H31  1  0.82789600  0.01090000  0.07150000  1
  H  H32  1  0.17210400  0.01090000  0.92850000  1
  H  H33  1  0.32875000  0.49971200  0.27109800  1
  H  H34  1  0.67125000  0.49971200  0.72890200  1
  H  H35  1  0.82875000  0.99971200  0.27109800  1
  H  H36  1  0.17125000  0.99971200  0.72890200  1
  H  H37  1  0.39131600  0.49828700  0.20894400  1
  H  H38  1  0.60868400  0.49828700  0.79105600  1
  H  H39  1  0.89131600  0.99828700  0.20894400  1
  H  H40  1  0.10868400  0.99828700  0.79105600  1
  H  H41  1  0.28153900  0.53689100  0.30097900  1
  H  H42  1  0.71846100  0.53689100  0.69902100  1
  H  H43  1  0.78153900  0.03689100  0.30097900  1
  H  H44  1  0.21846100  0.03689100  0.69902100  1
  H  H45  1  0.21895800  0.53555600  0.36534700  1
  H  H46  1  0.78104200  0.53555600  0.63465300  1
  H  H47  1  0.71895800  0.03555600  0.36534700  1
  H  H48  1  0.28104200  0.03555600  0.63465300  1
  H  H49  1  0.21761400  0.47482200  0.19831000  1
  H  H50  1  0.78238600  0.47482200  0.80169000  1
  H  H51  1  0.71761400  0.97482200  0.19831000  1
  H  H52  1  0.28238600  0.97482200  0.80169000  1
  H  H53  1  0.28021500  0.47437300  0.13611600  1
  H  H54  1  0.71978500  0.47437300  0.86388500  1
  H  H55  1  0.78021500  0.97437300  0.13611600  1
  H  H56  1  0.21978500  0.97437300  0.86388500  1
  H  H57  1  0.17113900  0.45154800  0.30107800  1
  H  H58  1  0.82886100  0.45154900  0.69892200  1
  H  H59  1  0.67113900  0.95154800  0.30107800  1
  H  H60  1  0.32886100  0.95154900  0.69892200  1
  H  H61  1  0.10852600  0.45094800  0.36346000  1
  H  H62  1  0.89147400  0.45094800  0.63654000  1
  H  H63  1  0.60852600  0.95094800  0.36346000  1
  H  H64  1  0.39147400  0.95094800  0.63654000  1
  H  H65  1  0.10799900  0.55669900  0.42350900  1
  H  H66  1  0.89200100  0.55669900  0.57649100  1
  H  H67  1  0.60799900  0.05669900  0.42350900  1
  H  H68  1  0.39200100  0.05669900  0.57649100  1
  H  H69  1  0.17052900  0.55755100  0.35921300  1
  H  H70  1  0.82947100  0.55755100  0.64078700  1
  H  H71  1  0.67052900  0.05755100  0.35921300  1
  H  H72  1  0.32947100  0.05755100  0.64078700  1
  H  H73  1  0.55213200  0.67282500  0.91666400  1
  H  H74  1  0.44786800  0.67282500  0.08333700  1
  H  H75  1  0.05213200  0.17282500  0.91666400  1
  H  H76  1  0.94786800  0.17282500  0.08333700  1
  H  H77  1  0.45050200  0.71922600  0.00358400  1
  H  H78  1  0.54949800  0.71922600  0.99641600  1
  H  H79  1  0.95050200  0.21922600  0.00358400  1
  H  H80  1  0.04949800  0.21922600  0.99641600  1
  H  H81  1  0.95066800  0.28181500  0.00218900  1
  H  H82  1  0.04933200  0.28181500  0.99781200  1
  H  H83  1  0.45066800  0.78181500  0.00218900  1
  H  H84  1  0.54933200  0.78181500  0.99781200  1
  H  H85  1  0.05450800  0.32961600  0.92856900  1
  H  H86  1  0.94549200  0.32961600  0.07143100  1
  H  H87  1  0.55450800  0.82961600  0.92856900  1
  H  H88  1  0.44549200  0.82961600  0.07143100  1
  H  H89  1  0.05460400  0.39207800  0.93015900  1
  H  H90  1  0.94539600  0.39207800  0.06984100  1
  H  H91  1  0.55460400  0.89207800  0.93015900  1
  H  H92  1  0.44539600  0.89207800  0.06984100  1
  H  H93  1  0.50558200  0.39200000  0.89424600  1
  H  H94  1  0.49441800  0.39200000  0.10575400  1
  H  H95  1  0.00558200  0.89200000  0.89424600  1
  H  H96  1  0.99441800  0.89200000  0.10575400  1
  H  H97  1  0.50523100  0.32939900  0.89466100  1
  H  H98  1  0.49476900  0.32939900  0.10533900  1
  H  H99  1  0.00523100  0.82939900  0.89466100  1
  H  H100  1  0.99476900  0.82939900  0.10533900  1
  H  H101  1  0.45918600  0.28234600  0.10783800  1
  H  H102  1  0.54081400  0.28234600  0.89216200  1
  H  H103  1  0.95918600  0.78234600  0.10783800  1
  H  H104  1  0.04081400  0.78234600  0.89216200  1
  H  H105  1  0.95970000  0.71967100  0.10834400  1
  H  H106  1  0.04030000  0.71967100  0.89165600  1
  H  H107  1  0.45970000  0.21967100  0.10834400  1
  H  H108  1  0.54030000  0.21967100  0.89165600  1
  H  H109  1  0.05532300  0.67261800  0.94395400  1
  H  H110  1  0.94467700  0.67261800  0.05604600  1
  H  H111  1  0.55532300  0.17261800  0.94395400  1
  H  H112  1  0.44467700  0.17261800  0.05604600  1
  H  H113  1  0.05539400  0.61002600  0.94325400  1
  H  H114  1  0.94460600  0.61002600  0.05674600  1
  H  H115  1  0.55539400  0.11002600  0.94325400  1
  H  H116  1  0.44460600  0.11002600  0.05674600  1
  H  H117  1  0.57015500  0.61777200  0.84625800  1
  H  H118  1  0.55909600  0.57786400  0.89322700  1
  H  H119  1  0.62177700  0.64201300  0.82974100  1
  H  H120  1  0.66821100  0.64729800  0.86233500  1
  H  H121  1  0.66314600  0.61837000  0.97000300  1
  H  H122  1  0.61127100  0.58410600  0.04540800  1
  H  H123  1  0.56465000  0.57867100  0.01332400  1
  H  H124  1  0.42984500  0.61777200  0.15374200  1
  H  H125  1  0.44090300  0.57786400  0.10677300  1
  H  H126  1  0.37822300  0.64201300  0.17025900  1
  H  H127  1  0.33178900  0.64729800  0.13766500  1
  H  H128  1  0.33685400  0.61836900  0.02999700  1
  H  H129  1  0.38872900  0.58410600  0.95459200  1
  H  H130  1  0.43535000  0.57867100  0.98667600  1
  H  H131  1  0.07015500  0.11777200  0.84625800  1
  H  H132  1  0.05909600  0.07786400  0.89322700  1
  H  H133  1  0.12177700  0.14201300  0.82974100  1
  H  H134  1  0.16821100  0.14729800  0.86233500  1
  H  H135  1  0.16314600  0.11837000  0.97000300  1
  H  H136  1  0.11127100  0.08410600  0.04540800  1
  H  H137  1  0.06465000  0.07867100  0.01332400  1
  H  H138  1  0.92984500  0.11777200  0.15374200  1
  H  H139  1  0.94090300  0.07786400  0.10677300  1
  H  H140  1  0.87822300  0.14201300  0.17025900  1
  H  H141  1  0.83178900  0.14729800  0.13766500  1
  H  H142  1  0.83685400  0.11836900  0.02999700  1
  H  H143  1  0.88872900  0.08410600  0.95459200  1
  H  H144  1  0.93535000  0.07867100  0.98667600  1
  C  C1  1  0.06562000  0.50349300  0.43606800  1
  C  C2  1  0.93438000  0.50349300  0.56393300  1
  C  C3  1  0.56562000  0.00349300  0.43606800  1
  C  C4  1  0.43438000  0.00349300  0.56393300  1
  C  C5  1  0.99974000  0.50340900  0.61931200  1
  C  C6  1  0.00026000  0.50340900  0.38068800  1
  C  C7  1  0.49974000  0.00340900  0.61931200  1
  C  C8  1  0.50026000  0.00340900  0.38068800  1
  C  C9  1  0.03128400  0.49941500  0.69839600  1
  C  C10  1  0.96871600  0.49941500  0.30160500  1
  C  C11  1  0.53128400  0.99941500  0.69839600  1
  C  C12  1  0.46871600  0.99941500  0.30160500  1
  C  C13  1  0.01227700  0.47283300  0.75674900  1
  C  C14  1  0.98772200  0.47283300  0.24325100  1
  C  C15  1  0.51227700  0.97283300  0.75674900  1
  C  C16  1  0.48772200  0.97283300  0.24325100  1
  C  C17  1  0.99887700  0.50177900  0.81055000  1
  C  C18  1  0.00112300  0.50177900  0.18945000  1
  C  C19  1  0.49887700  0.00177900  0.81055000  1
  C  C20  1  0.50112300  0.00177900  0.18945000  1
  C  C21  1  0.01788300  0.52837000  0.75336400  1
  C  C22  1  0.98211700  0.52837000  0.24663600  1
  C  C23  1  0.51788300  0.02837000  0.75336400  1
  C  C24  1  0.48211700  0.02837000  0.24663600  1
  C  C25  1  0.98592800  0.53209700  0.74329500  1
  C  C26  1  0.01407200  0.53209700  0.25670500  1
  C  C27  1  0.48592800  0.03209700  0.74329500  1
  C  C28  1  0.51407200  0.03209700  0.25670500  1
  C  C29  1  0.96690200  0.50548700  0.80172000  1
  C  C30  1  0.03309800  0.50548600  0.19828000  1
  C  C31  1  0.46690200  0.00548700  0.80172000  1
  C  C32  1  0.53309800  0.00548600  0.19828000  1
  C  C33  1  0.98030700  0.47655100  0.74672500  1
  C  C34  1  0.01969300  0.47655100  0.25327500  1
  C  C35  1  0.48030700  0.97655100  0.74672500  1
  C  C36  1  0.51969300  0.97655100  0.25327500  1
  C  C37  1  0.99932600  0.50313100  0.68952900  1
  C  C38  1  0.00067400  0.50313100  0.31047100  1
  C  C39  1  0.49932600  0.00313100  0.68952900  1
  C  C40  1  0.50067400  0.00313100  0.31047100  1
  C  C41  1  0.37720300  0.50634600  0.06665700  1
  C  C42  1  0.62279700  0.50634600  0.93334300  1
  C  C43  1  0.87720300  0.00634600  0.06665700  1
  C  C44  1  0.12279700  0.00634600  0.93334300  1
  C  C45  1  0.34153500  0.50760000  0.10220300  1
  C  C46  1  0.65846500  0.50760000  0.89779800  1
  C  C47  1  0.84153500  0.00760000  0.10220300  1
  C  C48  1  0.15846500  0.00760000  0.89779800  1
  C  C49  1  0.32364500  0.50534800  0.17593400  1
  C  C50  1  0.67635500  0.50534800  0.82406600  1
  C  C51  1  0.82364500  0.00534800  0.17593400  1
  C  C52  1  0.17635500  0.00534800  0.82406600  1
  C  C53  1  0.34202600  0.50225300  0.21359400  1
  C  C54  1  0.65797400  0.50225300  0.78640600  1
  C  C55  1  0.84202600  0.00225300  0.21359400  1
  C  C56  1  0.15797400  0.00225300  0.78640600  1
  C  C57  1  0.37769000  0.50110500  0.17810300  1
  C  C58  1  0.62230900  0.50110500  0.82189700  1
  C  C59  1  0.87769000  0.00110500  0.17810300  1
  C  C60  1  0.12230900  0.00110500  0.82189700  1
  C  C61  1  0.39549900  0.50291100  0.10438400  1
  C  C62  1  0.60450100  0.50291100  0.89561600  1
  C  C63  1  0.89549900  0.00291100  0.10438400  1
  C  C64  1  0.10450100  0.00291100  0.89561600  1
  C  C65  1  0.26779000  0.52275000  0.27834100  1
  C  C66  1  0.73221000  0.52275000  0.72165900  1
  C  C67  1  0.76779000  0.02275000  0.27834100  1
  C  C68  1  0.23221000  0.02275000  0.72165900  1
  C  C69  1  0.23210300  0.52252000  0.31439000  1
  C  C70  1  0.76789700  0.52252000  0.68561100  1
  C  C71  1  0.73210300  0.02252000  0.31439000  1
  C  C72  1  0.26789700  0.02252000  0.68561100  1
  C  C73  1  0.21358900  0.50511100  0.28662600  1
  C  C74  1  0.78641100  0.50511100  0.71337500  1
  C  C75  1  0.71358900  0.00511100  0.28662600  1
  C  C76  1  0.28641100  0.00511100  0.71337500  1
  C  C77  1  0.23136900  0.48813200  0.22196800  1
  C  C78  1  0.76863100  0.48813200  0.77803200  1
  C  C79  1  0.73136900  0.98813200  0.22196800  1
  C  C80  1  0.26863100  0.98813200  0.77803200  1
  C  C81  1  0.26705000  0.48845700  0.18581000  1
  C  C82  1  0.73295000  0.48845700  0.81419000  1
  C  C83  1  0.76705000  0.98845700  0.18581000  1
  C  C84  1  0.23295000  0.98845700  0.81419000  1
  C  C85  1  0.28556700  0.50567700  0.21379700  1
  C  C86  1  0.71443300  0.50567700  0.78620300  1
  C  C87  1  0.78556700  0.00567700  0.21379700  1
  C  C88  1  0.21443300  0.00567700  0.78620300  1
  C  C89  1  0.15753000  0.47496700  0.32688800  1
  C  C90  1  0.84247000  0.47496700  0.67311200  1
  C  C91  1  0.65753000  0.97496700  0.32688800  1
  C  C92  1  0.34247000  0.97496700  0.67311200  1
  C  C93  1  0.12183800  0.47453000  0.36304200  1
  C  C94  1  0.87816200  0.47453000  0.63695800  1
  C  C95  1  0.62183800  0.97453000  0.36304200  1
  C  C96  1  0.37816200  0.97453000  0.63695800  1
  C  C97  1  0.10360200  0.50375900  0.39822300  1
  C  C98  1  0.89639800  0.50375900  0.60177700  1
  C  C99  1  0.60360200  0.00375900  0.39822300  1
  C  C100  1  0.39639800  0.00375900  0.60177700  1
  C  C101  1  0.12153800  0.53338700  0.39689100  1
  C  C102  1  0.87846200  0.53338700  0.60310900  1
  C  C103  1  0.62153800  0.03338700  0.39689100  1
  C  C104  1  0.37846200  0.03338700  0.60310900  1
  C  C105  1  0.15721800  0.53379900  0.36075000  1
  C  C106  1  0.84278200  0.53379900  0.63925000  1
  C  C107  1  0.65721800  0.03379900  0.36075000  1
  C  C108  1  0.34278200  0.03379900  0.63925000  1
  C  C109  1  0.17551500  0.50461500  0.32536800  1
  C  C110  1  0.82448500  0.50461500  0.67463300  1
  C  C111  1  0.67551500  0.00461500  0.32536800  1
  C  C112  1  0.32448500  0.00461500  0.67463300  1
  C  C113  1  0.00000000  0.43454400  0.00000000  1
  C  C114  1  0.50000000  0.93454400  0.00000000  1
  C  C115  1  0.99909400  0.50101300  0.88015000  1
  C  C116  1  0.00090600  0.50101300  0.11985100  1
  C  C117  1  0.49909400  0.00101300  0.88015000  1
  C  C118  1  0.50090600  0.00101300  0.11985100  1
  C  C119  1  0.00000000  0.56749800  0.00000000  1
  C  C120  1  0.50000000  0.06749800  0.00000000  1
  C  C121  1  0.50000000  0.43451600  0.00000000  1
  C  C122  1  0.00000000  0.93451600  0.00000000  1
  C  C123  1  0.43342900  0.50142400  0.06666100  1
  C  C124  1  0.56657100  0.50142400  0.93333900  1
  C  C125  1  0.93342900  0.00142400  0.06666100  1
  C  C126  1  0.06657100  0.00142400  0.93333900  1
  C  C127  1  0.50000000  0.56735200  0.00000000  1
  C  C128  1  0.00000000  0.06735200  0.00000000  1
  C  C129  1  0.52946600  0.62326700  0.95266700  1
  C  C130  1  0.47053400  0.62326700  0.04733300  1
  C  C131  1  0.02946600  0.12326700  0.95266700  1
  C  C132  1  0.97053400  0.12326700  0.04733300  1
  C  C133  1  0.52930200  0.65893200  0.95395900  1
  C  C134  1  0.47069800  0.65893200  0.04604100  1
  C  C135  1  0.02930200  0.15893200  0.95395900  1
  C  C136  1  0.97069800  0.15893200  0.04604100  1
  C  C137  1  0.50000000  0.67687900  0.00000000  1
  C  C138  1  0.00000000  0.17687900  0.00000000  1
  C  C139  1  0.50000000  0.60513900  0.00000000  1
  C  C140  1  0.00000000  0.10513900  0.00000000  1
  C  C141  1  0.47218900  0.73284300  0.00289200  1
  C  C142  1  0.52781000  0.73284300  0.99710900  1
  C  C143  1  0.97218900  0.23284300  0.00289200  1
  C  C144  1  0.02781000  0.23284300  0.99710900  1
  C  C145  1  0.97227700  0.26849100  0.00238300  1
  C  C146  1  0.02772300  0.26849100  0.99761700  1
  C  C147  1  0.47227700  0.76849100  0.00238300  1
  C  C148  1  0.52772300  0.76849100  0.99761700  1
  C  C149  1  0.00000000  0.28667000  0.00000000  1
  C  C150  1  0.50000000  0.78667000  0.00000000  1
  C  C151  1  0.50000000  0.71480600  0.00000000  1
  C  C152  1  0.00000000  0.21480600  0.00000000  1
  C  C153  1  0.03044200  0.34294700  0.96106500  1
  C  C154  1  0.96955800  0.34294700  0.03893600  1
  C  C155  1  0.53044200  0.84294700  0.96106500  1
  C  C156  1  0.46955800  0.84294700  0.03893600  1
  C  C157  1  0.03047400  0.37859900  0.96143500  1
  C  C158  1  0.96952600  0.37859900  0.03856500  1
  C  C159  1  0.53047400  0.87859900  0.96143500  1
  C  C160  1  0.46952600  0.87859900  0.03856500  1
  C  C161  1  0.00000000  0.39663800  0.00000000  1
  C  C162  1  0.50000000  0.89663800  0.00000000  1
  C  C163  1  0.00000000  0.32477000  0.00000000  1
  C  C164  1  0.50000000  0.82477000  0.00000000  1
  C  C165  1  0.50316300  0.37857000  0.94101400  1
  C  C166  1  0.49683700  0.37857000  0.05898700  1
  C  C167  1  0.00316300  0.87857000  0.94101400  1
  C  C168  1  0.99683700  0.87857000  0.05898700  1
  C  C169  1  0.50329200  0.34292800  0.94094500  1
  C  C170  1  0.49670800  0.34292800  0.05905600  1
  C  C171  1  0.00329200  0.84292800  0.94094500  1
  C  C172  1  0.99670800  0.84292800  0.05905600  1
  C  C173  1  0.50000000  0.32486400  0.00000000  1
  C  C174  1  0.00000000  0.82486400  0.00000000  1
  C  C175  1  0.50000000  0.39660900  0.00000000  1
  C  C176  1  0.00000000  0.89660900  0.00000000  1
  C  C177  1  0.47744000  0.26882800  0.06034200  1
  C  C178  1  0.52256000  0.26882800  0.93965800  1
  C  C179  1  0.97744000  0.76882800  0.06034200  1
  C  C180  1  0.02256000  0.76882800  0.93965800  1
  C  C181  1  0.97732200  0.73319000  0.06022600  1
  C  C182  1  0.02267800  0.73319000  0.93977400  1
  C  C183  1  0.47732200  0.23319000  0.06022600  1
  C  C184  1  0.52267800  0.23319000  0.93977400  1
  C  C185  1  0.00000000  0.71512100  0.00000000  1
  C  C186  1  0.50000000  0.21512100  0.00000000  1
  C  C187  1  0.50000000  0.28689700  0.00000000  1
  C  C188  1  0.00000000  0.78689700  0.00000000  1
  C  C189  1  0.03084900  0.65908900  0.96806300  1
  C  C190  1  0.96915100  0.65908900  0.03193700  1
  C  C191  1  0.53084900  0.15908900  0.96806300  1
  C  C192  1  0.46915100  0.15908900  0.03193700  1
  C  C193  1  0.03087200  0.62344700  0.96828100  1
  C  C194  1  0.96912800  0.62344700  0.03171900  1
  C  C195  1  0.53087200  0.12344700  0.96828100  1
  C  C196  1  0.46912800  0.12344700  0.03171900  1
  C  C197  1  0.00000000  0.60540600  0.00000000  1
  C  C198  1  0.50000000  0.10540600  0.00000000  1
  C  C199  1  0.00000000  0.67715400  0.00000000  1
  C  C200  1  0.50000000  0.17715400  0.00000000  1
  C  C201  1  0.56208300  0.60580900  0.89924400  1
  C  C202  1  0.58993200  0.61025500  0.91991300  1
  C  C203  1  0.61915400  0.62935900  0.87744200  1
  C  C204  1  0.64535300  0.63234600  0.89562500  1
  C  C205  1  0.64252100  0.61613500  0.95597200  1
  C  C206  1  0.61342700  0.59699200  0.99829800  1
  C  C207  1  0.58716400  0.59407200  0.98033600  1
  C  C208  1  0.43791700  0.60580900  0.10075600  1
  C  C209  1  0.41006800  0.61025500  0.08008700  1
  C  C210  1  0.38084600  0.62935900  0.12255800  1
  C  C211  1  0.35464700  0.63234600  0.10437500  1
  C  C212  1  0.35747900  0.61613500  0.04402800  1
  C  C213  1  0.38657300  0.59699200  0.00170200  1
  C  C214  1  0.41283600  0.59407200  0.01966400  1
  C  C215  1  0.06208300  0.10580900  0.89924400  1
  C  C216  1  0.08993200  0.11025500  0.91991300  1
  C  C217  1  0.11915400  0.12935900  0.87744200  1
  C  C218  1  0.14535300  0.13234600  0.89562500  1
  C  C219  1  0.14252100  0.11613500  0.95597200  1
  C  C220  1  0.11342700  0.09699200  0.99829800  1
  C  C221  1  0.08716400  0.09407200  0.98033600  1
  C  C222  1  0.93791700  0.10580900  0.10075600  1
  C  C223  1  0.91006800  0.11025500  0.08008700  1
  C  C224  1  0.88084600  0.12935900  0.12255800  1
  C  C225  1  0.85464700  0.13234600  0.10437500  1
  C  C226  1  0.85747900  0.11613500  0.04402800  1
  C  C227  1  0.88657300  0.09699200  0.00170200  1
  C  C228  1  0.91283600  0.09407200  0.01966400  1
  O  O1  1  0.04931600  0.53191900  0.46977400  1
  O  O2  1  0.95068400  0.53191900  0.53022600  1
  O  O3  1  0.54931600  0.03191900  0.46977400  1
  O  O4  1  0.45068400  0.03191900  0.53022600  1
  O  O5  1  0.04934500  0.47499500  0.43433200  1
  O  O6  1  0.95065500  0.47499500  0.56566800  1
  O  O7  1  0.54934500  0.97499500  0.43433200  1
  O  O8  1  0.45065500  0.97499500  0.56566800  1
  O  O9  1  0.99011700  0.53194500  0.59937400  1
  O  O10  1  0.00988300  0.53194500  0.40062600  1
  O  O11  1  0.49011700  0.03194500  0.59937400  1
  O  O12  1  0.50988300  0.03194500  0.40062600  1
  O  O13  1  0.00960900  0.47495100  0.58042900  1
  O  O14  1  0.99039100  0.47495100  0.41957100  1
  O  O15  1  0.50960900  0.97495100  0.58042900  1
  O  O16  1  0.49039100  0.97495100  0.41957100  1
  O  O17  1  0.97021700  0.45076600  0.02679800  1
  O  O18  1  0.02978300  0.45076600  0.97320200  1
  O  O19  1  0.47021700  0.95076600  0.02679800  1
  O  O20  1  0.52978300  0.95076600  0.97320200  1
  O  O21  1  0.96939700  0.50249300  0.93883300  1
  O  O22  1  0.03060300  0.50249300  0.06116700  1
  O  O23  1  0.46939700  0.00249300  0.93883300  1
  O  O24  1  0.53060300  0.00249300  0.06116700  1
  O  O25  1  0.02909600  0.50222000  0.87955400  1
  O  O26  1  0.97090400  0.50222000  0.12044600  1
  O  O27  1  0.52909600  0.00222000  0.87955400  1
  O  O28  1  0.47090400  0.00222000  0.12044600  1
  O  O29  1  0.97013700  0.55130200  0.02734500  1
  O  O30  1  0.02986300  0.55130200  0.97265500  1
  O  O31  1  0.47013700  0.05130200  0.02734500  1
  O  O32  1  0.52986300  0.05130200  0.97265500  1
  O  O33  1  0.49875000  0.45075300  0.05533100  1
  O  O34  1  0.50125000  0.45075300  0.94466900  1
  O  O35  1  0.99875000  0.95075300  0.05533100  1
  O  O36  1  0.00125000  0.95075300  0.94466900  1
  O  O37  1  0.44996800  0.50245800  0.10446500  1
  O  O38  1  0.55003200  0.50245800  0.89553500  1
  O  O39  1  0.94996800  0.00245800  0.10446500  1
  O  O40  1  0.05003200  0.00245800  0.89553500  1
  O  O41  1  0.44937100  0.50233800  0.99655200  1
  O  O42  1  0.55062900  0.50233800  0.00344800  1
  O  O43  1  0.94937100  0.00233800  0.99655200  1
  O  O44  1  0.05062900  0.00233800  0.00344800  1
  O  O45  1  0.49901000  0.55127700  0.05539100  1
  O  O46  1  0.50099000  0.55127700  0.94460900  1
  O  O47  1  0.99901000  0.05127700  0.05539100  1
  O  O48  1  0.00099000  0.05127700  0.94460900  1
