# generated using pymatgen
data_FeH12(C7O2)4
_symmetry_space_group_name_H-M   'P 1'
_cell_length_a   17.54705800
_cell_length_b   11.98433000
_cell_length_c   13.40400500
_cell_angle_alpha   91.53885300
_cell_angle_beta   82.03154000
_cell_angle_gamma   105.54221300
_symmetry_Int_Tables_number   1
_chemical_formula_structural   FeH12(C7O2)4
_chemical_formula_sum   'Fe2 H24 C56 O16'
_cell_volume   2689.27586477
_cell_formula_units_Z   2
loop_
 _symmetry_equiv_pos_site_id
 _symmetry_equiv_pos_as_xyz
  1  'x, y, z'
loop_
 _atom_site_type_symbol
 _atom_site_label
 _atom_site_symmetry_multiplicity
 _atom_site_fract_x
 _atom_site_fract_y
 _atom_site_fract_z
 _atom_site_occupancy
  Fe  Fe1  1  0.50377000  0.02587300  0.22083500  1
  Fe  Fe2  1  0.50503900  0.00224800  0.78636100  1
  H  H1  1  0.25769400  0.99118400  0.22993800  1
  H  H2  1  0.12559800  0.98932300  0.29103300  1
  H  H3  1  0.22997500  0.95827600  0.79932800  1
  H  H4  1  0.99721100  0.99855700  0.26612000  1
  H  H5  1  0.10491300  0.96527800  0.76950400  1
  H  H6  1  0.90223400  0.05738200  0.23868800  1
  H  H7  1  0.01161400  0.02840700  0.74187600  1
  H  H8  1  0.77734100  0.06448300  0.20858400  1
  H  H9  1  0.88339300  0.03845200  0.71661600  1
  H  H10  1  0.75127500  0.03676300  0.77740600  1
  H  H11  1  0.55368300  0.44537300  0.74289200  1
  H  H12  1  0.46838200  0.38192400  0.26725000  1
  H  H13  1  0.39658300  0.50625300  0.36636500  1
  H  H14  1  0.45488700  0.12301000  0.52770000  1
  H  H15  1  0.54387700  0.90412200  0.48475000  1
  H  H16  1  0.62223500  0.50918400  0.63623900  1
  H  H17  1  0.57749300  0.65354300  0.71959100  1
  H  H18  1  0.56255200  0.47611500  0.29320700  1
  H  H19  1  0.46441000  0.57899200  0.26163400  1
  H  H20  1  0.37680000  0.49276200  0.64260300  1
  H  H21  1  0.25403700  0.46052600  0.75986600  1
  H  H22  1  0.25770200  0.51908900  0.93661200  1
  H  H23  1  0.38624400  0.61065100  0.99573100  1
  H  H24  1  0.51051400  0.64363400  0.87958300  1
  C  C1  1  0.24527700  0.99107400  0.15317200  1
  C  C2  1  0.11321500  0.99476500  0.21479700  1
  C  C3  1  0.30641300  0.99949900  0.07545700  1
  C  C4  1  0.29167800  0.00194600  0.97619300  1
  C  C5  1  0.17095200  0.99465500  0.13487100  1
  C  C6  1  0.15438000  0.99789100  0.03787100  1
  C  C7  1  0.21339100  0.99447100  0.95830800  1
  C  C8  1  0.19143500  0.97856300  0.86286300  1
  C  C9  1  0.03934200  0.00260800  0.19915300  1
  C  C10  1  0.02150800  0.01112600  0.10201200  1
  C  C11  1  0.07878200  0.00378000  0.02101600  1
  C  C12  1  0.06093000  0.00210000  0.92339200  1
  C  C13  1  0.11687800  0.98218900  0.84571800  1
  C  C14  1  0.89074300  0.04161800  0.16221000  1
  C  C15  1  0.94707100  0.02280600  0.08448100  1
  C  C16  1  0.92936600  0.02158600  0.98678700  1
  C  C17  1  0.98669000  0.01437600  0.90583800  1
  C  C18  1  0.96920700  0.02378600  0.80867100  1
  C  C19  1  0.81622200  0.04527700  0.14490700  1
  C  C20  1  0.79468900  0.03075000  0.04921800  1
  C  C21  1  0.85388600  0.02784300  0.96976700  1
  C  C22  1  0.83761900  0.03198400  0.87269700  1
  C  C23  1  0.71659800  0.02404900  0.03104900  1
  C  C24  1  0.70218800  0.02750500  0.93179400  1
  C  C25  1  0.89551100  0.03222800  0.79287300  1
  C  C26  1  0.76345600  0.03616700  0.85422300  1
  C  C27  1  0.64933500  0.01120000  0.11398100  1
  C  C28  1  0.50159800  0.81164300  0.31635400  1
  C  C29  1  0.38663600  0.01959600  0.10340100  1
  C  C30  1  0.46103200  0.18515600  0.34758800  1
  C  C31  1  0.54785800  0.84212500  0.66058600  1
  C  C32  1  0.62206000  0.00801800  0.90376600  1
  C  C33  1  0.50541600  0.21552700  0.69169400  1
  C  C34  1  0.35877500  0.01474200  0.89296600  1
  C  C35  1  0.47042400  0.21633200  0.52361200  1
  C  C36  1  0.49568800  0.28227500  0.60485900  1
  C  C37  1  0.51426600  0.40315700  0.59534200  1
  C  C38  1  0.55812800  0.48357000  0.66802900  1
  C  C39  1  0.53053900  0.59275200  0.68265900  1
  C  C40  1  0.47266900  0.26518500  0.43168800  1
  C  C41  1  0.49086200  0.38419600  0.42205500  1
  C  C42  1  0.50511100  0.45202700  0.50610500  1
  C  C43  1  0.51347000  0.57722600  0.49917300  1
  C  C44  1  0.52617100  0.64500800  0.58407900  1
  C  C45  1  0.53617300  0.76273300  0.57621700  1
  C  C46  1  0.49839500  0.44190200  0.32280100  1
  C  C47  1  0.46061400  0.54121600  0.33647100  1
  C  C48  1  0.49984600  0.62473000  0.41110100  1
  C  C49  1  0.51211400  0.74520400  0.40332400  1
  C  C50  1  0.53347900  0.81127400  0.48608100  1
  C  C51  1  0.45315300  0.57106400  0.75236900  1
  C  C52  1  0.38043000  0.51928300  0.71970800  1
  C  C53  1  0.31056000  0.50084800  0.78586500  1
  C  C54  1  0.31255200  0.53366700  0.88491300  1
  C  C55  1  0.38456600  0.58499700  0.91796200  1
  C  C56  1  0.45455800  0.60364500  0.85208000  1
  O  O1  1  0.58851200  0.05233900  0.10331500  1
  O  O2  1  0.50563100  0.77326600  0.22376400  1
  O  O3  1  0.64738900  0.95245200  0.19575600  1
  O  O4  1  0.50009600  0.91984000  0.33326700  1
  O  O5  1  0.40010100  0.95085400  0.16967100  1
  O  O6  1  0.44012400  0.11775100  0.07776400  1
  O  O7  1  0.52202700  0.18554600  0.27858700  1
  O  O8  1  0.40143900  0.09109600  0.36002700  1
  O  O9  1  0.48642000  0.84250300  0.72858600  1
  O  O10  1  0.60776000  0.93581000  0.64846700  1
  O  O11  1  0.60892900  0.07683500  0.83731200  1
  O  O12  1  0.56820200  0.91028000  0.92965900  1
  O  O13  1  0.35967900  0.07121600  0.81027200  1
  O  O14  1  0.50878700  0.10833300  0.67396200  1
  O  O15  1  0.42047400  0.97593100  0.90418300  1
  O  O16  1  0.49885700  0.25254400  0.78465100  1
