# generated using pymatgen
data_Cu3H10C30(NO4)4
_symmetry_space_group_name_H-M   'P 1'
_cell_length_a   21.46094000
_cell_length_b   28.87074900
_cell_length_c   28.87136400
_cell_angle_alpha   90.00000000
_cell_angle_beta   90.00000000
_cell_angle_gamma   90.00000000
_symmetry_Int_Tables_number   1
_chemical_formula_structural   Cu3H10C30(NO4)4
_chemical_formula_sum   'Cu12 H40 C120 N16 O64'
_cell_volume   17888.50693113
_cell_formula_units_Z   4
loop_
 _symmetry_equiv_pos_site_id
 _symmetry_equiv_pos_as_xyz
  1  'x, y, z'
loop_
 _atom_site_type_symbol
 _atom_site_label
 _atom_site_symmetry_multiplicity
 _atom_site_fract_x
 _atom_site_fract_y
 _atom_site_fract_z
 _atom_site_occupancy
  Cu  Cu1  1  0.00022300  0.95324100  0.00031500  1
  Cu  Cu2  1  0.50022300  0.45324100  0.50031500  1
  Cu  Cu3  1  0.00089900  0.04552200  0.00061200  1
  Cu  Cu4  1  0.50089900  0.54552200  0.50061200  1
  Cu  Cu5  1  0.50032600  0.00173300  0.95410800  1
  Cu  Cu6  1  0.50067500  0.00177400  0.04650300  1
  Cu  Cu7  1  0.00032600  0.50173300  0.45410800  1
  Cu  Cu8  1  0.00067500  0.50177400  0.54650300  1
  Cu  Cu9  1  0.06333200  0.00130700  0.50043900  1
  Cu  Cu10  1  0.93908800  0.00206100  0.50045100  1
  Cu  Cu11  1  0.56333200  0.50130700  0.00043900  1
  Cu  Cu12  1  0.43908800  0.50206100  0.00045100  1
  H  H1  1  0.28967100  0.96101700  0.06989600  1
  H  H2  1  0.71049800  0.96300600  0.93063600  1
  H  H3  1  0.71055600  0.96177300  0.06840900  1
  H  H4  1  0.29007000  0.95948800  0.93210300  1
  H  H5  1  0.78967100  0.46101700  0.56989600  1
  H  H6  1  0.21049800  0.46300600  0.43063600  1
  H  H7  1  0.21055600  0.46177300  0.56840900  1
  H  H8  1  0.79007000  0.45948800  0.43210400  1
  H  H9  1  0.27022100  0.15946100  0.00310200  1
  H  H10  1  0.21728300  0.12642200  0.97519700  1
  H  H11  1  0.64920800  0.14434700  0.99852700  1
  H  H12  1  0.63486200  0.09840400  0.96414900  1
  H  H13  1  0.77022100  0.65946100  0.50310200  1
  H  H14  1  0.71728300  0.62642200  0.47519700  1
  H  H15  1  0.14920800  0.64434700  0.49852700  1
  H  H16  1  0.13486200  0.59840400  0.46414900  1
  H  H17  1  0.14528900  0.06352100  0.12614400  1
  H  H18  1  0.13636200  0.01058000  0.10242200  1
  H  H19  1  0.85639500  0.06298700  0.87329200  1
  H  H20  1  0.86357800  0.00997300  0.89722700  1
  H  H21  1  0.85682700  0.06183300  0.12675800  1
  H  H22  1  0.86481000  0.00922900  0.10213000  1
  H  H23  1  0.14668600  0.06030600  0.87246200  1
  H  H24  1  0.13771900  0.00798900  0.89755800  1
  H  H25  1  0.64528900  0.56352100  0.62614400  1
  H  H26  1  0.63636200  0.51058000  0.60242200  1
  H  H27  1  0.35639500  0.56298700  0.37329200  1
  H  H28  1  0.36357800  0.50997300  0.39722700  1
  H  H29  1  0.35682700  0.56183300  0.62675800  1
  H  H30  1  0.36481000  0.50922900  0.60213000  1
  H  H31  1  0.64668600  0.56030600  0.37246200  1
  H  H32  1  0.63771900  0.50798900  0.39755800  1
  H  H33  1  0.20903400  0.84505300  0.03023600  1
  H  H34  1  0.27543800  0.87507200  0.03905800  1
  H  H35  1  0.82892300  0.85571600  0.96606600  1
  H  H36  1  0.79337500  0.89416500  0.93079100  1
  H  H37  1  0.70903400  0.34505300  0.53023600  1
  H  H38  1  0.77543800  0.37507200  0.53905800  1
  H  H39  1  0.32892300  0.35571600  0.46606600  1
  H  H40  1  0.29337500  0.39416500  0.43079100  1
  C  C1  1  0.00054400  0.99878200  0.08930500  1
  C  C2  1  0.00060700  0.00000700  0.91161800  1
  C  C3  1  0.50054400  0.49878200  0.58930500  1
  C  C4  1  0.50060700  0.50000700  0.41161800  1
  C  C5  1  0.12029100  0.99920500  0.00038000  1
  C  C6  1  0.88084100  0.99951200  0.00011900  1
  C  C7  1  0.62029100  0.49920500  0.50038000  1
  C  C8  1  0.38084100  0.49951200  0.50011900  1
  C  C9  1  0.23045500  0.02096900  0.03723200  1
  C  C10  1  0.77106700  0.02247800  0.96306300  1
  C  C11  1  0.77103200  0.02177200  0.03701900  1
  C  C12  1  0.23070100  0.02039600  0.96318100  1
  C  C13  1  0.73045500  0.52096900  0.53723200  1
  C  C14  1  0.27106700  0.52247800  0.46306300  1
  C  C15  1  0.27103200  0.52177200  0.53701900  1
  C  C16  1  0.73070100  0.52039600  0.46318100  1
  C  C17  1  0.27074400  0.04248100  0.00012500  1
  C  C18  1  0.73131800  0.04442900  0.00024500  1
  C  C19  1  0.77074400  0.54248100  0.50012500  1
  C  C20  1  0.23131800  0.54442900  0.50024500  1
  C  C21  1  0.31186000  0.00020600  0.00061900  1
  C  C22  1  0.68921500  0.00263900  0.99988700  1
  C  C23  1  0.81186000  0.50020600  0.50061900  1
  C  C24  1  0.18921500  0.50263900  0.49988700  1
  C  C25  1  0.27221800  0.97843700  0.03822800  1
  C  C26  1  0.72829900  0.98048500  0.96216300  1
  C  C27  1  0.72837000  0.97971600  0.03714300  1
  C  C28  1  0.27250700  0.97787900  0.96318400  1
  C  C29  1  0.77221800  0.47843700  0.53822800  1
  C  C30  1  0.22829900  0.48048500  0.46216300  1
  C  C31  1  0.22837000  0.47971600  0.53714300  1
  C  C32  1  0.77250700  0.47787900  0.46318400  1
  C  C33  1  0.23180400  0.95695700  0.00074700  1
  C  C34  1  0.76847100  0.95843400  0.99940900  1
  C  C35  1  0.73180400  0.45695700  0.50074700  1
  C  C36  1  0.26847100  0.45843400  0.49940900  1
  C  C37  1  0.18986900  0.99906500  0.00028000  1
  C  C38  1  0.81128400  0.00003400  0.99983300  1
  C  C39  1  0.68986900  0.49906500  0.50028000  1
  C  C40  1  0.31128400  0.50003400  0.49983300  1
  C  C41  1  0.00061200  0.99880900  0.13897500  1
  C  C42  1  0.00068300  0.00023300  0.86194200  1
  C  C43  1  0.50061200  0.49880900  0.63897500  1
  C  C44  1  0.50068300  0.50023300  0.36194200  1
  C  C45  1  0.00070700  0.99913500  0.18069300  1
  C  C46  1  0.00078300  0.00056500  0.82022000  1
  C  C47  1  0.50070700  0.49913500  0.68069300  1
  C  C48  1  0.50078300  0.50056500  0.32022000  1
  C  C49  1  0.00084200  0.99969500  0.22957900  1
  C  C50  1  0.00091900  0.00098800  0.77132600  1
  C  C51  1  0.50084200  0.49969500  0.72957900  1
  C  C52  1  0.50091900  0.50098800  0.27132600  1
  C  C53  1  0.00096100  0.00020400  0.27130500  1
  C  C54  1  0.00103300  0.00130000  0.72959300  1
  C  C55  1  0.50096100  0.50020400  0.77130500  1
  C  C56  1  0.50103300  0.50130000  0.22959300  1
  C  C57  1  0.00108400  0.00073600  0.32019600  1
  C  C58  1  0.00114700  0.00154500  0.68069200  1
  C  C59  1  0.50108400  0.50073600  0.82019600  1
  C  C60  1  0.50114700  0.50154500  0.18069200  1
  C  C61  1  0.00115700  0.00103400  0.36192400  1
  C  C62  1  0.00120800  0.00159200  0.63895900  1
  C  C63  1  0.50115700  0.50103400  0.86192400  1
  C  C64  1  0.50120800  0.50159200  0.13895900  1
  C  C65  1  0.49826600  0.09055000  0.00028200  1
  C  C66  1  0.99826600  0.59055000  0.50028200  1
  C  C67  1  0.38104000  0.00006900  0.00054500  1
  C  C68  1  0.61997600  0.00232000  0.00005200  1
  C  C69  1  0.88104000  0.50006900  0.50054500  1
  C  C70  1  0.11997600  0.50232000  0.50005200  1
  C  C71  1  0.50142700  0.91290800  0.00034700  1
  C  C72  1  0.00142700  0.41290800  0.50034700  1
  C  C73  1  0.00219200  0.09051800  0.49989900  1
  C  C74  1  0.50219200  0.59051800  0.99989900  1
  C  C75  1  0.00118600  0.00109300  0.41160300  1
  C  C76  1  0.00121900  0.00138600  0.58927400  1
  C  C77  1  0.50118600  0.50109300  0.91160300  1
  C  C78  1  0.50121900  0.50138600  0.08927400  1
  C  C79  1  0.00023000  0.91283900  0.50018800  1
  C  C80  1  0.50023000  0.41283900  0.00018800  1
  C  C81  1  0.49820300  0.14021800  0.00030000  1
  C  C82  1  0.99820300  0.64021800  0.50030000  1
  C  C83  1  0.49831100  0.18193700  0.00038600  1
  C  C84  1  0.99831100  0.68193700  0.50038600  1
  C  C85  1  0.49857100  0.23082200  0.00052000  1
  C  C86  1  0.99857100  0.73082200  0.50052000  1
  C  C87  1  0.99886800  0.77254800  0.50061100  1
  C  C88  1  0.49886800  0.27254800  0.00061100  1
  C  C89  1  0.99928800  0.82143900  0.50063400  1
  C  C90  1  0.49928800  0.32143900  0.00063400  1
  C  C91  1  0.99969500  0.86316500  0.50052700  1
  C  C92  1  0.49969500  0.36316500  0.00052700  1
  C  C93  1  0.50244500  0.86322500  0.00038300  1
  C  C94  1  0.00244500  0.36322500  0.50038300  1
  C  C95  1  0.50296600  0.82149200  0.00042700  1
  C  C96  1  0.00296600  0.32149200  0.50042700  1
  C  C97  1  0.50324900  0.77258600  0.00046500  1
  C  C98  1  0.00324900  0.27258600  0.50046500  1
  C  C99  1  0.00325900  0.23084800  0.50045900  1
  C  C100  1  0.50325900  0.73084800  0.00045900  1
  C  C101  1  0.00304600  0.18194200  0.50037800  1
  C  C102  1  0.50304600  0.68194200  0.00037800  1
  C  C103  1  0.00271800  0.14020700  0.50022100  1
  C  C104  1  0.50271800  0.64020700  0.00022100  1
  C  C105  1  0.29124300  0.09188300  0.00029200  1
  C  C106  1  0.71393400  0.09446500  0.00062500  1
  C  C107  1  0.79124300  0.59188300  0.50029200  1
  C  C108  1  0.21393400  0.59446500  0.50062500  1
  C  C109  1  0.21115200  0.04544800  0.08043800  1
  C  C110  1  0.79066200  0.04668600  0.91978200  1
  C  C111  1  0.79070100  0.04523500  0.08069500  1
  C  C112  1  0.21191300  0.04377500  0.91925400  1
  C  C113  1  0.71115200  0.54544800  0.58043800  1
  C  C114  1  0.29066200  0.54668600  0.41978200  1
  C  C115  1  0.29070100  0.54523500  0.58069500  1
  C  C116  1  0.71191300  0.54377500  0.41925400  1
  C  C117  1  0.21152800  0.90759200  0.00023100  1
  C  C118  1  0.78772300  0.90885500  0.99860500  1
  C  C119  1  0.71152800  0.40759200  0.50023100  1
  C  C120  1  0.28772300  0.40885500  0.49860500  1
  N  N1  1  0.24623000  0.12802900  0.00418900  1
  N  N2  1  0.65038700  0.10823600  0.99697200  1
  N  N3  1  0.74623000  0.62802900  0.50418900  1
  N  N4  1  0.15038700  0.60823600  0.49697200  1
  N  N5  1  0.14781000  0.04496400  0.09517300  1
  N  N6  1  0.85367000  0.04464400  0.90438000  1
  N  N7  1  0.85401100  0.04384600  0.09546600  1
  N  N8  1  0.14883100  0.04260600  0.90394600  1
  N  N9  1  0.64781000  0.54496400  0.59517300  1
  N  N10  1  0.35367000  0.54464400  0.40438000  1
  N  N11  1  0.35401100  0.54384600  0.59546600  1
  N  N12  1  0.64883100  0.54260600  0.40394600  1
  N  N13  1  0.22694900  0.87778400  0.03789900  1
  N  N14  1  0.82160100  0.89095100  0.96005800  1
  N  N15  1  0.72694900  0.37778400  0.53789900  1
  N  N16  1  0.32160100  0.39095100  0.46005800  1
  O  O1  1  0.99760100  0.95891900  0.06769000  1
  O  O2  1  0.99778900  0.96001200  0.93303100  1
  O  O3  1  0.49760100  0.45891900  0.56769000  1
  O  O4  1  0.49778900  0.46001200  0.43303100  1
  O  O5  1  0.00338200  0.03873500  0.06784900  1
  O  O6  1  0.00346700  0.03984800  0.93327800  1
  O  O7  1  0.50338200  0.53873500  0.56784900  1
  O  O8  1  0.50346700  0.53984800  0.43327800  1
  O  O9  1  0.09080600  0.95946800  0.00229800  1
  O  O10  1  0.90965200  0.95952500  0.00214800  1
  O  O11  1  0.59080600  0.45946800  0.50229800  1
  O  O12  1  0.40965200  0.45952500  0.50214800  1
  O  O13  1  0.09148500  0.03926100  0.99869800  1
  O  O14  1  0.91030200  0.03932000  0.99863100  1
  O  O15  1  0.59148500  0.53926100  0.49869800  1
  O  O16  1  0.41030200  0.53932000  0.49863100  1
  O  O17  1  0.50158900  0.06908700  0.96030100  1
  O  O18  1  0.50174900  0.06912100  0.04025900  1
  O  O19  1  0.00158900  0.56908700  0.46030100  1
  O  O20  1  0.00174900  0.56912100  0.54025900  1
  O  O21  1  0.40976400  0.00266500  0.96060600  1
  O  O22  1  0.59120300  0.00438400  0.04009000  1
  O  O23  1  0.59090300  0.00422600  0.96013200  1
  O  O24  1  0.41005600  0.00258700  0.04038300  1
  O  O25  1  0.90976400  0.50266500  0.46060600  1
  O  O26  1  0.09120300  0.50438400  0.54009000  1
  O  O27  1  0.09090300  0.50422600  0.46013200  1
  O  O28  1  0.91005600  0.50258700  0.54038300  1
  O  O29  1  0.50372000  0.93443300  0.96042800  1
  O  O30  1  0.50417100  0.93447400  0.04022400  1
  O  O31  1  0.00372000  0.43443300  0.46042800  1
  O  O32  1  0.00417100  0.43447400  0.54022400  1
  O  O33  1  0.05573900  0.06869800  0.50205800  1
  O  O34  1  0.94817400  0.06934900  0.50206700  1
  O  O35  1  0.55573900  0.56869800  0.00205800  1
  O  O36  1  0.44817400  0.56934900  0.00206700  1
  O  O37  1  0.05488300  0.00296700  0.43311000  1
  O  O38  1  0.94745400  0.00384200  0.56778400  1
  O  O39  1  0.94754900  0.00361800  0.43312100  1
  O  O40  1  0.05502800  0.00318800  0.56777500  1
  O  O41  1  0.55488300  0.50296700  0.93311000  1
  O  O42  1  0.44745400  0.50384200  0.06778400  1
  O  O43  1  0.44754900  0.50361800  0.93312100  1
  O  O44  1  0.55502800  0.50318800  0.06777500  1
  O  O45  1  0.05413000  0.93403700  0.50227600  1
  O  O46  1  0.94680300  0.93468800  0.50228600  1
  O  O47  1  0.55413000  0.43403700  0.00227600  1
  O  O48  1  0.44680300  0.43468800  0.00228600  1
  O  O49  1  0.34643400  0.10148900  0.99792400  1
  O  O50  1  0.75455500  0.12383400  0.00354900  1
  O  O51  1  0.84643400  0.60148900  0.49792400  1
  O  O52  1  0.25455500  0.62383400  0.50354900  1
  O  O53  1  0.25038600  0.06451600  0.10428000  1
  O  O54  1  0.75184400  0.06671800  0.89635600  1
  O  O55  1  0.75178600  0.06430700  0.10482300  1
  O  O56  1  0.25137100  0.06253100  0.89536800  1
  O  O57  1  0.75038600  0.56451600  0.60428000  1
  O  O58  1  0.25184400  0.56671800  0.39635600  1
  O  O59  1  0.25178600  0.56430700  0.60482300  1
  O  O60  1  0.75137100  0.56253100  0.39536800  1
  O  O61  1  0.18254300  0.89246900  0.96721700  1
  O  O62  1  0.77398700  0.88344800  0.03073700  1
  O  O63  1  0.68254300  0.39246900  0.46721700  1
  O  O64  1  0.27398700  0.38344800  0.53073700  1
