# generated using pymatgen
data_Fe2H41C58N7O19
_symmetry_space_group_name_H-M   'P 1'
_cell_length_a   13.79425000
_cell_length_b   9.34840500
_cell_length_c   22.83145200
_cell_angle_alpha   93.70629200
_cell_angle_beta   90.19526300
_cell_angle_gamma   69.47857000
_symmetry_Int_Tables_number   1
_chemical_formula_structural   Fe2H41C58N7O19
_chemical_formula_sum   'Fe2 H41 C58 N7 O19'
_cell_volume   2751.02516953
_cell_formula_units_Z   1
loop_
 _symmetry_equiv_pos_site_id
 _symmetry_equiv_pos_as_xyz
  1  'x, y, z'
loop_
 _atom_site_type_symbol
 _atom_site_label
 _atom_site_symmetry_multiplicity
 _atom_site_fract_x
 _atom_site_fract_y
 _atom_site_fract_z
 _atom_site_occupancy
  Fe  Fe1  1  0.48715800  0.96189000  0.81052000  1
  Fe  Fe2  1  0.51370100  0.00073900  0.18760900  1
  H  H1  1  0.14773200  0.89073600  0.79911000  1
  H  H2  1  0.18282000  0.17292100  0.17292000  1
  H  H3  1  0.86013200  0.03863100  0.20063200  1
  H  H4  1  0.66547100  0.01004600  0.01717000  1
  H  H5  1  0.82027500  0.79473700  0.82541800  1
  H  H6  1  0.00553800  0.77255800  0.81946500  1
  H  H7  1  0.33502700  0.95220800  0.98284700  1
  H  H8  1  0.91468700  0.10757900  0.02406900  1
  H  H9  1  0.08574300  0.85226800  0.97758200  1
  H  H10  1  0.53713900  0.52026100  0.21297100  1
  H  H11  1  0.49396700  0.74541500  0.38333800  1
  H  H12  1  0.37784600  0.68821900  0.45526700  1
  H  H13  1  0.36412200  0.66505500  0.56090700  1
  H  H14  1  0.64705900  0.28328900  0.55247200  1
  H  H15  1  0.66621500  0.31634800  0.44840300  1
  H  H16  1  0.51785900  0.21733800  0.61982300  1
  H  H17  1  0.47566400  0.68913600  0.64488000  1
  H  H18  1  0.71593200  0.14299700  0.36215500  1
  H  H19  1  0.64911700  0.03343800  0.32345900  1
  H  H20  1  0.67494300  0.06018300  0.45617000  1
  H  H21  1  0.72862500  0.89718000  0.40558400  1
  H  H22  1  0.50986100  0.15025700  0.47993500  1
  H  H23  1  0.42173900  0.06602300  0.44879900  1
  H  H24  1  0.40488900  0.31837600  0.40900400  1
  H  H25  1  0.42866000  0.16271700  0.35432300  1
  H  H26  1  0.65797200  0.31508400  0.80486200  1
  H  H27  1  0.58639900  0.20330400  0.83217000  1
  H  H28  1  0.61160500  0.48572000  0.89553200  1
  H  H29  1  0.67039800  0.28970400  0.91281900  1
  H  H30  1  0.44551300  0.61248100  0.91293800  1
  H  H31  1  0.36096100  0.51909700  0.93584000  1
  H  H32  1  0.34570700  0.57272800  0.82838300  1
  H  H33  1  0.37214700  0.37746700  0.84452700  1
  H  H34  1  0.84730300  0.35783100  0.17140500  1
  H  H35  1  0.92792900  0.44274800  0.21113500  1
  H  H36  1  0.79911100  0.26782500  0.25882200  1
  H  H37  1  0.79649200  0.45688100  0.27778800  1
  H  H38  1  0.91234600  0.07166500  0.29314200  1
  H  H39  1  0.02116200  0.08302800  0.33170800  1
  H  H40  1  0.04643900  0.98106500  0.22086200  1
  H  H41  1  0.11181200  0.10214200  0.25207500  1
  C  C1  1  0.25207300  0.06148800  0.08853800  1
  C  C2  1  0.17395600  0.12712100  0.12943900  1
  C  C3  1  0.08709400  0.10652600  0.10642100  1
  C  C4  1  0.20834300  0.01161200  0.04060200  1
  C  C5  1  0.99907500  0.13840300  0.13706500  1
  C  C6  1  0.91588700  0.08407700  0.11642600  1
  C  C7  1  0.85431500  0.04208400  0.15376200  1
  C  C8  1  0.78231900  0.00649800  0.12002300  1
  C  C9  1  0.80293800  0.02708800  0.06254500  1
  C  C10  1  0.74519700  0.00094900  0.01127400  1
  C  C11  1  0.79298900  0.94477900  0.95989400  1
  C  C12  1  0.74875800  0.90010900  0.91087600  1
  C  C13  1  0.82740500  0.83473000  0.87016900  1
  C  C14  1  0.91497800  0.84776200  0.89494100  1
  C  C15  1  0.00326600  0.81479200  0.86497500  1
  C  C16  1  0.08901100  0.86234700  0.88483400  1
  C  C17  1  0.15286900  0.89579200  0.84640800  1
  C  C18  1  0.22388200  0.93596500  0.87954300  1
  C  C19  1  0.20060200  0.92455800  0.93776300  1
  C  C20  1  0.25626100  0.95671700  0.98899200  1
  C  C21  1  0.48272500  0.70519300  0.76065200  1
  C  C22  1  0.30541900  0.97564500  0.85128800  1
  C  C23  1  0.64026300  0.93334400  0.89599100  1
  C  C24  1  0.50474400  0.16457800  0.73244600  1
  C  C25  1  0.50281900  0.79328700  0.26881200  1
  C  C26  1  0.36064700  0.02813300  0.10304300  1
  C  C27  1  0.69986600  0.96626500  0.14676900  1
  C  C28  1  0.54227400  0.24770200  0.24311000  1
  C  C29  1  0.54220700  0.37694300  0.28390300  1
  C  C30  1  0.54211100  0.37102700  0.34473600  1
  C  C31  1  0.52504500  0.50444800  0.38001000  1
  C  C32  1  0.50895300  0.64214100  0.35525800  1
  C  C33  1  0.51815700  0.64656300  0.29519600  1
  C  C34  1  0.53569300  0.51350300  0.25998800  1
  C  C35  1  0.43798100  0.60043400  0.47650500  1
  C  C36  1  0.42976800  0.58632700  0.53595100  1
  C  C37  1  0.50269200  0.46867500  0.56299000  1
  C  C38  1  0.58707500  0.37093400  0.53106200  1
  C  C39  1  0.59723800  0.38867800  0.47219600  1
  C  C40  1  0.52071000  0.49920500  0.44405800  1
  C  C41  1  0.50692900  0.31762100  0.64908400  1
  C  C42  1  0.49920100  0.30914000  0.70916500  1
  C  C43  1  0.48838800  0.43669500  0.74687400  1
  C  C44  1  0.48165400  0.57309200  0.72320400  1
  C  C45  1  0.48072000  0.58322500  0.66327900  1
  C  C46  1  0.49517100  0.45581300  0.62615600  1
  C  C47  1  0.64887500  0.10393800  0.36402100  1
  C  C48  1  0.66045400  0.00301800  0.41480300  1
  C  C49  1  0.49052300  0.09646700  0.43903600  1
  C  C50  1  0.46304100  0.20870700  0.39131900  1
  C  C51  1  0.58990900  0.31919900  0.83155600  1
  C  C52  1  0.60077500  0.37352300  0.89418500  1
  C  C53  1  0.42992200  0.50398200  0.90790300  1
  C  C54  1  0.40487600  0.46955000  0.84480400  1
  C  C55  1  0.90288200  0.34205300  0.20769800  1
  C  C56  1  0.84853900  0.33863500  0.26459600  1
  C  C57  1  0.96903500  0.13122200  0.29525800  1
  C  C58  1  0.03505200  0.09856100  0.23941800  1
  N  N1  1  0.10710400  0.03809100  0.05175300  1
  N  N2  1  0.88518400  0.07412600  0.06062700  1
  N  N3  1  0.89503700  0.91341800  0.94994000  1
  N  N4  1  0.11769200  0.87943300  0.94051000  1
  N  N5  1  0.55446500  0.23447100  0.37240100  1
  N  N6  1  0.49736100  0.42526000  0.80852800  1
  N  N7  1  0.99319400  0.20644800  0.19497800  1
  O  O1  1  0.48494400  0.82915000  0.73831200  1
  O  O2  1  0.48689100  0.70051900  0.81781300  1
  O  O3  1  0.38920000  0.97982800  0.87773900  1
  O  O4  1  0.30195500  0.98313300  0.79413000  1
  O  O5  1  0.57130000  0.03520800  0.70961500  1
  O  O6  1  0.62288100  0.86552800  0.84707400  1
  O  O7  1  0.44679900  0.16552600  0.77816600  1
  O  O8  1  0.56640400  0.04988900  0.92205500  1
  O  O9  1  0.55162800  0.79652000  0.21952500  1
  O  O10  1  0.43304500  0.90553900  0.07948900  1
  O  O11  1  0.43823000  0.92073700  0.29408800  1
  O  O12  1  0.37872200  0.09999400  0.15071400  1
  O  O13  1  0.61238200  0.98059000  0.12061000  1
  O  O14  1  0.70422800  0.94885300  0.20338600  1
  O  O15  1  0.51675200  0.13303200  0.25988700  1
  O  O16  1  0.55604100  0.25645200  0.18682800  1
  O  O17  1  0.57232700  0.96290300  0.42025000  1
  O  O18  1  0.51350200  0.38232700  0.92745500  1
  O  O19  1  0.92102200  0.28808100  0.30822100  1
