# generated using pymatgen
data_CuH13C18NO6
_symmetry_space_group_name_H-M   'P 1'
_cell_length_a   15.90435500
_cell_length_b   10.69579600
_cell_length_c   9.33381300
_cell_angle_alpha   90.00309800
_cell_angle_beta   90.01975700
_cell_angle_gamma   89.99421800
_symmetry_Int_Tables_number   1
_chemical_formula_structural   CuH13C18NO6
_chemical_formula_sum   'Cu2 H26 C36 N2 O12'
_cell_volume   1587.77236603
_cell_formula_units_Z   2
loop_
 _symmetry_equiv_pos_site_id
 _symmetry_equiv_pos_as_xyz
  1  'x, y, z'
loop_
 _atom_site_type_symbol
 _atom_site_label
 _atom_site_symmetry_multiplicity
 _atom_site_fract_x
 _atom_site_fract_y
 _atom_site_fract_z
 _atom_site_occupancy
  Cu  Cu1  1  0.50685400  0.50550200  0.64077500  1
  Cu  Cu2  1  0.50580600  0.50417200  0.35404300  1
  H  H1  1  0.05967600  0.35002700  0.33542100  1
  H  H2  1  0.95259400  0.66924100  0.65776200  1
  H  H3  1  0.95400500  0.30717200  0.57389100  1
  H  H4  1  0.05803200  0.71235200  0.41917800  1
  H  H5  1  0.95443400  0.55131500  0.25631700  1
  H  H6  1  0.05785000  0.46796400  0.73691300  1
  H  H7  1  0.54098700  0.07860800  0.73794600  1
  H  H8  1  0.47333300  0.93066700  0.25691500  1
  H  H9  1  0.40228700  0.92365700  0.66318400  1
  H  H10  1  0.61176600  0.08610000  0.33136500  1
  H  H11  1  0.49688800  0.71147100  0.90551900  1
  H  H12  1  0.51571500  0.29813200  0.08934300  1
  H  H13  1  0.61986600  0.61912900  0.09797900  1
  H  H14  1  0.39266400  0.39040300  0.89714300  1
  H  H15  1  0.63148400  0.41604400  0.90287500  1
  H  H16  1  0.38107900  0.59340800  0.09198900  1
  H  H17  1  0.79481300  0.89128500  0.75649800  1
  H  H18  1  0.78220900  0.75072600  0.64982100  1
  H  H19  1  0.71782800  0.79031600  0.95663500  1
  H  H20  1  0.80982700  0.70115600  0.90532400  1
  H  H21  1  0.70632100  0.64972100  0.85014300  1
  H  H22  1  0.18180700  0.08065300  0.46161500  1
  H  H23  1  0.21160400  0.24096800  0.42332600  1
  H  H24  1  0.17990400  0.12842500  0.72158100  1
  H  H25  1  0.10752200  0.22607100  0.62271400  1
  H  H26  1  0.20710600  0.28924100  0.68339400  1
  C  C1  1  0.50480300  0.26484400  0.49951800  1
  C  C2  1  0.50839900  0.74473900  0.49535200  1
  C  C3  1  0.34494100  0.50756300  0.49828300  1
  C  C4  1  0.66767000  0.50303200  0.49642500  1
  C  C5  1  0.97908500  0.39896600  0.53890400  1
  C  C6  1  0.03330000  0.62038000  0.45426800  1
  C  C7  1  0.03422400  0.42244400  0.40854900  1
  C  C8  1  0.97810700  0.59684200  0.58467100  1
  C  C9  1  0.25464700  0.50932600  0.49880300  1
  C  C10  1  0.75789200  0.50468400  0.49563400  1
  C  C11  1  0.03320700  0.48685500  0.62787800  1
  C  C12  1  0.97913100  0.53242200  0.36531600  1
  C  C13  1  0.08677300  0.51034600  0.49749600  1
  C  C14  1  0.92562900  0.50888000  0.49572900  1
  C  C15  1  0.17883700  0.51028800  0.49842400  1
  C  C16  1  0.83364900  0.50669900  0.49538700  1
  C  C17  1  0.52486600  0.04472300  0.62905200  1
  C  C18  1  0.48933400  0.96474400  0.36578500  1
  C  C19  1  0.58098100  0.96566900  0.53434500  1
  C  C20  1  0.43328400  0.04362600  0.46062500  1
  C  C21  1  0.50787800  0.88376000  0.49509700  1
  C  C22  1  0.50624400  0.12571600  0.49986500  1
  C  C23  1  0.45056600  0.96121200  0.58907400  1
  C  C24  1  0.56377300  0.04820800  0.40579700  1
  C  C25  1  0.56712600  0.56591200  0.04982600  1
  C  C26  1  0.44547200  0.44367600  0.94503200  1
  C  C27  1  0.50123800  0.61527500  0.94911500  1
  C  C28  1  0.51136300  0.39432100  0.04573000  1
  C  C29  1  0.57328600  0.45739400  0.94794700  1
  C  C30  1  0.43931600  0.55219300  0.04689900  1
  C  C31  1  0.66602800  0.91965500  0.57547200  1
  C  C32  1  0.75401000  0.80920700  0.73536900  1
  C  C33  1  0.74647200  0.73246200  0.87097900  1
  C  C34  1  0.34731800  0.08813300  0.42407000  1
  C  C35  1  0.21540100  0.16413400  0.50284100  1
  C  C36  1  0.17475400  0.20489100  0.64181800  1
  N  N1  1  0.50735700  0.50668600  0.85510100  1
  N  N2  1  0.50524900  0.50291200  0.13972700  1
  O  O1  1  0.50861800  0.32362600  0.62237600  1
  O  O2  1  0.50410100  0.68604500  0.37245400  1
  O  O3  1  0.50169800  0.32267200  0.37598100  1
  O  O4  1  0.51107700  0.68698600  0.61893500  1
  O  O5  1  0.38458500  0.50291400  0.62117600  1
  O  O6  1  0.62805900  0.50696500  0.37353000  1
  O  O7  1  0.38370000  0.51051600  0.37468000  1
  O  O8  1  0.62896400  0.49927400  0.62010300  1
  O  O9  1  0.72692200  0.94780000  0.50299100  1
  O  O10  1  0.67571200  0.84885300  0.69374100  1
  O  O11  1  0.32012000  0.07510300  0.30283300  1
  O  O12  1  0.29788900  0.13465000  0.52840600  1
