# generated using pymatgen
data_Fe2H21C42N3O19
_symmetry_space_group_name_H-M   'P 1'
_cell_length_a   15.92960000
_cell_length_b   9.30075800
_cell_length_c   18.52984100
_cell_angle_alpha   93.21412900
_cell_angle_beta   100.69056100
_cell_angle_gamma   97.16061000
_symmetry_Int_Tables_number   1
_chemical_formula_structural   Fe2H21C42N3O19
_chemical_formula_sum   'Fe2 H21 C42 N3 O19'
_cell_volume   2667.79846295
_cell_formula_units_Z   1
loop_
 _symmetry_equiv_pos_site_id
 _symmetry_equiv_pos_as_xyz
  1  'x, y, z'
loop_
 _atom_site_type_symbol
 _atom_site_label
 _atom_site_symmetry_multiplicity
 _atom_site_fract_x
 _atom_site_fract_y
 _atom_site_fract_z
 _atom_site_occupancy
  Fe  Fe1  1  0.50006800  0.97645300  0.84383600  1
  Fe  Fe2  1  0.50838300  0.00094100  0.15627000  1
  H  H1  1  0.07167700  0.98192900  0.85949300  1
  H  H2  1  0.18949800  0.01404500  0.08487000  1
  H  H3  1  0.93523600  0.00666300  0.14399200  1
  H  H4  1  0.50459500  0.69872600  0.63344700  1
  H  H5  1  0.48364000  0.23871500  0.59544000  1
  H  H6  1  0.51431300  0.73617300  0.40154700  1
  H  H7  1  0.49356600  0.27618000  0.36463000  1
  H  H8  1  0.49756900  0.42934900  0.81211900  1
  H  H9  1  0.49931600  0.54376500  0.18505900  1
  H  H10  1  0.25598900  0.93515400  0.78559800  1
  H  H11  1  0.24109100  0.04121000  0.67624700  1
  H  H12  1  0.26165800  0.23513300  0.70070300  1
  H  H13  1  0.15401300  0.14948300  0.65919800  1
  H  H14  1  0.87052700  0.89963400  0.88389400  1
  H  H15  1  0.82306400  0.03176900  0.75647600  1
  H  H16  1  0.92667800  0.10577700  0.81275400  1
  H  H17  1  0.84650800  0.22408400  0.78530800  1
  H  H18  1  0.74205000  0.93019000  0.21084700  1
  H  H19  1  0.76347300  0.05557100  0.32425900  1
  H  H20  1  0.76152600  0.24458100  0.30668600  1
  H  H21  1  0.86138500  0.18316800  0.34809400  1
  C  C1  1  0.20908700  0.99677100  0.88134900  1
  C  C2  1  0.12963800  0.99158100  0.90138000  1
  C  C3  1  0.12359900  0.99880500  0.97439700  1
  C  C4  1  0.19680900  0.00995200  0.02802700  1
  C  C5  1  0.27739900  0.01377300  0.00951100  1
  C  C6  1  0.28360800  0.00683600  0.93521800  1
  C  C7  1  0.04066100  0.99330200  0.99469600  1
  C  C8  1  0.97057100  0.98786400  0.01094300  1
  C  C9  1  0.81392700  0.96182500  0.97310900  1
  C  C10  1  0.73176600  0.95279000  0.99020800  1
  C  C11  1  0.72417700  0.96597600  0.06420900  1
  C  C12  1  0.79779300  0.98863100  0.11927700  1
  C  C13  1  0.87808400  0.99372900  0.10108100  1
  C  C14  1  0.88615500  0.97986400  0.02864700  1
  C  C15  1  0.48553800  0.17698800  0.73595900  1
  C  C16  1  0.36745300  0.02144700  0.91267600  1
  C  C17  1  0.65501200  0.93647200  0.92983000  1
  C  C18  1  0.50161300  0.70548100  0.78011400  1
  C  C19  1  0.49648100  0.26809000  0.21810700  1
  C  C20  1  0.35249800  0.01921500  0.07020300  1
  C  C21  1  0.63966600  0.95460000  0.08571100  1
  C  C22  1  0.51438900  0.79704300  0.26139800  1
  C  C23  1  0.50057300  0.57877100  0.72868600  1
  C  C24  1  0.50077900  0.59277400  0.65474100  1
  C  C25  1  0.49530300  0.47015100  0.60729000  1
  C  C26  1  0.48818500  0.33381400  0.63301100  1
  C  C27  1  0.49045900  0.31984000  0.70687600  1
  C  C28  1  0.49735900  0.44205400  0.75451100  1
  C  C29  1  0.49768500  0.48311900  0.53087800  1
  C  C30  1  0.49995400  0.49231100  0.46664600  1
  C  C31  1  0.50920900  0.64070700  0.36409600  1
  C  C32  1  0.50674200  0.65403800  0.29014200  1
  C  C33  1  0.49926100  0.53146600  0.24266300  1
  C  C34  1  0.49666500  0.39515200  0.26896200  1
  C  C35  1  0.49700500  0.38185400  0.34303100  1
  C  C36  1  0.50216500  0.50473200  0.39016800  1
  C  C37  1  0.19493800  0.11366700  0.77221400  1
  C  C38  1  0.21428500  0.13581200  0.69752100  1
  C  C39  1  0.82115700  0.08703500  0.86943500  1
  C  C40  1  0.85663700  0.11373100  0.80170800  1
  C  C41  1  0.82004600  0.12424200  0.23289900  1
  C  C42  1  0.80018300  0.15321700  0.30753500  1
  N  N1  1  0.21309900  0.99277000  0.80564900  1
  N  N2  1  0.82516100  0.95845800  0.89919300  1
  N  N3  1  0.79154500  0.99408400  0.19451100  1
  O  O1  1  0.52497300  0.16654600  0.80384000  1
  O  O2  1  0.41978400  0.14436700  0.92871700  1
  O  O3  1  0.43846600  0.06370900  0.69650100  1
  O  O4  1  0.38886400  0.91457300  0.87358400  1
  O  O5  1  0.58277000  0.98098600  0.94011400  1
  O  O6  1  0.66007900  0.88713300  0.86332200  1
  O  O7  1  0.50771800  0.83818400  0.75889500  1
  O  O8  1  0.49430700  0.68608600  0.84840200  1
  O  O9  1  0.50030900  0.13802500  0.24158800  1
  O  O10  1  0.49737100  0.28543300  0.14844700  1
  O  O11  1  0.42994200  0.00534100  0.05846100  1
  O  O12  1  0.34085900  0.02868400  0.13848300  1
  O  O13  1  0.56394600  0.90755000  0.30118700  1
  O  O14  1  0.62262700  0.05656900  0.13069300  1
  O  O15  1  0.47642900  0.81025900  0.19334800  1
  O  O16  1  0.58302700  0.83805800  0.06399700  1
  O  O17  1  0.16347100  0.20660700  0.80316500  1
  O  O18  1  0.78866100  0.18184000  0.89788100  1
  O  O19  1  0.86141000  0.21982800  0.20648600  1
