# generated using pymatgen
data_ZnH9C14N2O5
_symmetry_space_group_name_H-M   'P 1'
_cell_length_a   6.55275900
_cell_length_b   13.29818000
_cell_length_c   14.38947100
_cell_angle_alpha   100.15978700
_cell_angle_beta   89.91155700
_cell_angle_gamma   100.54022700
_symmetry_Int_Tables_number   1
_chemical_formula_structural   ZnH9C14N2O5
_chemical_formula_sum   'Zn2 H18 C28 N4 O10'
_cell_volume   1212.79639796
_cell_formula_units_Z   2
loop_
 _symmetry_equiv_pos_site_id
 _symmetry_equiv_pos_as_xyz
  1  'x, y, z'
loop_
 _atom_site_type_symbol
 _atom_site_label
 _atom_site_symmetry_multiplicity
 _atom_site_fract_x
 _atom_site_fract_y
 _atom_site_fract_z
 _atom_site_occupancy
  Zn  Zn1  1  0.02146100  0.51134100  0.89579500  1
  Zn  Zn2  1  0.99272300  0.52624600  0.10449400  1
  H  H1  1  0.73671600  0.17456100  0.92690600  1
  H  H2  1  0.27755600  0.86299700  0.07384000  1
  H  H3  1  0.48120400  0.01548800  0.93253000  1
  H  H4  1  0.53311600  0.02214300  0.06853200  1
  H  H5  1  0.01913200  0.19815200  0.01237700  1
  H  H6  1  0.99514400  0.83955700  0.98827100  1
  H  H7  1  0.69558000  0.52068600  0.59541500  1
  H  H8  1  0.31730000  0.51402000  0.40431200  1
  H  H9  1  0.72995900  0.42270100  0.31571900  1
  H  H10  1  0.47385300  0.44963500  0.29856100  1
  H  H11  1  0.35547400  0.37004000  0.43883500  1
  H  H12  1  0.45278500  0.27925600  0.34842200  1
  H  H13  1  0.61219300  0.34103200  0.45280400  1
  H  H14  1  0.15195000  0.38717000  0.62380200  1
  H  H15  1  0.31781100  0.47374100  0.71615000  1
  H  H16  1  0.61846700  0.39391900  0.65433700  1
  H  H17  1  0.40948900  0.29843800  0.68682400  1
  H  H18  1  0.44862600  0.30665600  0.56369600  1
  C  C1  1  0.57770100  0.17982300  0.94362800  1
  C  C2  1  0.43654100  0.85777000  0.05701800  1
  C  C3  1  0.43515900  0.09052700  0.94851400  1
  C  C4  1  0.57913900  0.94711100  0.05235200  1
  C  C5  1  0.23599400  0.09750400  0.97648200  1
  C  C6  1  0.77830100  0.94017500  0.02434600  1
  C  C7  1  0.17747800  0.19294200  0.99424200  1
  C  C8  1  0.83676100  0.84472700  0.00636100  1
  C  C9  1  0.31741800  0.28170800  0.98634100  1
  C  C10  1  0.69676000  0.75590300  0.01402400  1
  C  C11  1  0.52002800  0.27605200  0.96358600  1
  C  C12  1  0.49414300  0.76154000  0.03678700  1
  C  C13  1  0.23794300  0.37761400  0.99298900  1
  C  C14  1  0.77624700  0.65998400  0.00731300  1
  C  C15  1  0.68097700  0.36982600  0.97545200  1
  C  C16  1  0.33316700  0.66777900  0.02485300  1
  C  C17  1  0.82135600  0.52564800  0.45895300  1
  C  C18  1  0.19126000  0.50835900  0.54058700  1
  C  C19  1  0.99609300  0.52500100  0.40566500  1
  C  C20  1  0.01736800  0.51074500  0.59425400  1
  C  C21  1  0.18080200  0.51571700  0.44634000  1
  C  C22  1  0.83221400  0.51914100  0.55339500  1
  C  C23  1  0.98456700  0.53051500  0.30711600  1
  C  C24  1  0.02940800  0.50629100  0.69302100  1
  C  C25  1  0.58771500  0.44024600  0.35185900  1
  C  C26  1  0.49576000  0.35171900  0.40132400  1
  C  C27  1  0.31253500  0.42956700  0.64297100  1
  C  C28  1  0.45707600  0.35202600  0.63647700  1
  N  N1  1  0.09154400  0.00769900  0.98632900  1
  N  N2  1  0.92277300  0.03000900  0.01459600  1
  N  N3  1  0.03618600  0.50429400  0.77301900  1
  N  N4  1  0.97799200  0.53324700  0.22726200  1
  O  O1  1  0.16665200  0.41521000  0.07428600  1
  O  O2  1  0.84753500  0.62238700  0.92599600  1
  O  O3  1  0.19996100  0.40747700  0.91359600  1
  O  O4  1  0.81422900  0.63011400  0.08670600  1
  O  O5  1  0.77351600  0.39771400  0.90053600  1
  O  O6  1  0.24065700  0.63987900  0.09977100  1
  O  O7  1  0.74371800  0.41376000  0.06214400  1
  O  O8  1  0.27047000  0.62383800  0.93813900  1
  O  O9  1  0.63740600  0.53202800  0.41792100  1
  O  O10  1  0.37334900  0.49825700  0.58087000  1
