# generated using pymatgen
data_FeH9(C2O)10
_symmetry_space_group_name_H-M   'P 1'
_cell_length_a   15.31922500
_cell_length_b   9.30425300
_cell_length_c   18.66076000
_cell_angle_alpha   93.16802900
_cell_angle_beta   104.36453000
_cell_angle_gamma   107.33345200
_symmetry_Int_Tables_number   1
_chemical_formula_structural   FeH9(C2O)10
_chemical_formula_sum   'Fe2 H18 C40 O20'
_cell_volume   2435.50934474
_cell_formula_units_Z   2
loop_
 _symmetry_equiv_pos_site_id
 _symmetry_equiv_pos_as_xyz
  1  'x, y, z'
loop_
 _atom_site_type_symbol
 _atom_site_label
 _atom_site_symmetry_multiplicity
 _atom_site_fract_x
 _atom_site_fract_y
 _atom_site_fract_z
 _atom_site_occupancy
  Fe  Fe1  1  0.49341100  0.01058100  0.83339800  1
  Fe  Fe2  1  0.52159300  0.05503200  0.15786000  1
  H  H1  1  0.82432100  0.15715000  0.17655500  1
  H  H2  1  0.97380400  0.15759800  0.15268500  1
  H  H3  1  0.04577400  0.01681100  0.07764400  1
  H  H4  1  0.97569200  0.08718500  0.91904300  1
  H  H5  1  0.05064300  0.99783400  0.83615700  1
  H  H6  1  0.18943100  0.08547600  0.06833200  1
  H  H7  1  0.50105100  0.73551100  0.62747700  1
  H  H8  1  0.49151000  0.27478900  0.59051700  1
  H  H9  1  0.52352200  0.78972500  0.40175700  1
  H  H10  1  0.51094800  0.32764100  0.36382600  1
  H  H11  1  0.49680800  0.46407600  0.80482200  1
  H  H12  1  0.51917700  0.60118800  0.18753000  1
  H  H13  1  0.82210800  0.76636800  0.80279400  1
  H  H14  1  0.69626600  0.66407200  0.78270200  1
  H  H15  1  0.78251800  0.58775500  0.83798600  1
  H  H16  1  0.19855300  0.97368000  0.66049900  1
  H  H17  1  0.07009700  0.92040900  0.62787800  1
  H  H18  1  0.12708600  0.77489100  0.63615700  1
  C  C1  1  0.82443200  0.11903900  0.12081300  1
  C  C2  1  0.90862300  0.11734500  0.10769400  1
  C  C3  1  0.90931500  0.05678200  0.03889700  1
  C  C4  1  0.82479500  0.99915200  0.98249900  1
  C  C5  1  0.74131500  0.01657600  0.99282800  1
  C  C6  1  0.74029100  0.06616300  0.06440600  1
  C  C7  1  0.99892000  0.04133700  0.02975100  1
  C  C8  1  0.02242000  0.05787800  0.96543200  1
  C  C9  1  0.11248100  0.00590000  0.88125900  1
  C  C10  1  0.19449000  0.99369000  0.86675600  1
  C  C11  1  0.27585900  0.01899100  0.92498900  1
  C  C12  1  0.27314800  0.04691700  0.99843800  1
  C  C13  1  0.19003000  0.05677500  0.01183300  1
  C  C14  1  0.10995500  0.03806000  0.95353500  1
  C  C15  1  0.48840100  0.21049300  0.72866400  1
  C  C16  1  0.36514000  0.03255400  0.90630600  1
  C  C17  1  0.65977000  0.99929300  0.92702100  1
  C  C18  1  0.49557500  0.73957100  0.77168000  1
  C  C19  1  0.51873000  0.32499300  0.22010300  1
  C  C20  1  0.35443400  0.06188600  0.06363000  1
  C  C21  1  0.65118500  0.04463800  0.08461500  1
  C  C22  1  0.52780500  0.85492500  0.26372500  1
  C  C23  1  0.49741400  0.61381400  0.72164200  1
  C  C24  1  0.49894400  0.62906700  0.64861500  1
  C  C25  1  0.49828500  0.50771900  0.60205900  1
  C  C26  1  0.49348500  0.37000100  0.62752500  1
  C  C27  1  0.49477200  0.35580300  0.70083900  1
  C  C28  1  0.49789100  0.47794200  0.74792000  1
  C  C29  1  0.50384000  0.52479300  0.52718200  1
  C  C30  1  0.50920800  0.53879100  0.46444500  1
  C  C31  1  0.52129700  0.69453500  0.36460500  1
  C  C32  1  0.52106100  0.70941600  0.29151600  1
  C  C33  1  0.51737500  0.58703400  0.24426700  1
  C  C34  1  0.51637800  0.45035600  0.27013700  1
  C  C35  1  0.51388700  0.43452500  0.34293000  1
  C  C36  1  0.51511200  0.55610600  0.38966300  1
  C  C37  1  0.76315800  0.77673200  0.89438200  1
  C  C38  1  0.76613700  0.69336600  0.82505100  1
  C  C39  1  0.12493600  0.88243600  0.73933900  1
  C  C40  1  0.13052500  0.88822300  0.66096800  1
  O  O1  1  0.53521500  0.20946100  0.79785300  1
  O  O2  1  0.43812400  0.15675400  0.93284900  1
  O  O3  1  0.42798700  0.08447400  0.68765800  1
  O  O4  1  0.36873600  0.93374300  0.85485400  1
  O  O5  1  0.58277600  0.02570200  0.93444100  1
  O  O6  1  0.66996800  0.98443700  0.85953200  1
  O  O7  1  0.49083900  0.86783700  0.74767500  1
  O  O8  1  0.49810400  0.72399200  0.84155800  1
  O  O9  1  0.52035400  0.19480100  0.24325500  1
  O  O10  1  0.51999900  0.34293900  0.15106200  1
  O  O11  1  0.43149500  0.03525400  0.05653000  1
  O  O12  1  0.34672000  0.08995500  0.13104600  1
  O  O13  1  0.58409700  0.98187500  0.30631400  1
  O  O14  1  0.64591300  0.13994400  0.13673100  1
  O  O15  1  0.48414700  0.85533400  0.19362700  1
  O  O16  1  0.58113200  0.91625100  0.05944200  1
  O  O17  1  0.82419600  0.91873700  0.91998700  1
  O  O18  1  0.70802600  0.71453700  0.92900700  1
  O  O19  1  0.19895600  0.96984800  0.79594800  1
  O  O20  1  0.05668300  0.79104800  0.75199100  1
