# generated using pymatgen
data_ZnH4C13I2NO4
_symmetry_space_group_name_H-M   'P 1'
_cell_length_a   11.34844200
_cell_length_b   14.46407600
_cell_length_c   8.51837100
_cell_angle_alpha   90.00000000
_cell_angle_beta   107.52843100
_cell_angle_gamma   90.00000000
_symmetry_Int_Tables_number   1
_chemical_formula_structural   ZnH4C13I2NO4
_chemical_formula_sum   'Zn2 H8 C26 I4 N2 O8'
_cell_volume   1333.32181029
_cell_formula_units_Z   2
loop_
 _symmetry_equiv_pos_site_id
 _symmetry_equiv_pos_as_xyz
  1  'x, y, z'
loop_
 _atom_site_type_symbol
 _atom_site_label
 _atom_site_symmetry_multiplicity
 _atom_site_fract_x
 _atom_site_fract_y
 _atom_site_fract_z
 _atom_site_occupancy
  Zn  Zn1  1  0.51012600  0.10482300  0.99878700  1
  Zn  Zn2  1  0.48987500  0.89517700  0.00121300  1
  H  H1  1  0.01919700  0.05748300  0.71341200  1
  H  H2  1  0.98080300  0.94251700  0.28658900  1
  H  H3  1  0.88675600  0.01480300  0.05932100  1
  H  H4  1  0.11324500  0.98519700  0.94068000  1
  H  H5  1  0.58823400  0.95313000  0.54243600  1
  H  H6  1  0.41176700  0.04687000  0.45756400  1
  H  H7  1  0.90104700  0.05347700  0.42156700  1
  H  H8  1  0.09895400  0.94652300  0.57843400  1
  C  C1  1  0.68496000  0.97143200  0.58025700  1
  C  C2  1  0.31504100  0.02856800  0.41974400  1
  C  C3  1  0.74644400  0.98272300  0.74474600  1
  C  C4  1  0.25355700  0.01727700  0.25525400  1
  C  C5  1  0.87029400  0.00617900  0.79556600  1
  C  C6  1  0.12970600  0.99382100  0.20443400  1
  C  C7  1  0.92628700  0.03043900  0.67764900  1
  C  C8  1  0.07371400  0.96956100  0.32235100  1
  C  C9  1  0.85953200  0.02865700  0.51220200  1
  C  C10  1  0.14046900  0.97134300  0.48779800  1
  C  C11  1  0.74014500  0.99517700  0.46324000  1
  C  C12  1  0.25985600  0.00482300  0.53676100  1
  C  C13  1  0.93874600  0.00661100  0.97266300  1
  C  C14  1  0.06125500  0.99338900  0.02733800  1
  C  C15  1  0.49202000  0.59509100  0.00314200  1
  C  C16  1  0.50798100  0.40490900  0.99685900  1
  C  C17  1  0.48439400  0.69411400  0.00437900  1
  C  C18  1  0.51560700  0.30588500  0.99562200  1
  C  C19  1  0.67097000  0.98761400  0.85539400  1
  C  C20  1  0.32903100  0.01238600  0.14460700  1
  C  C21  1  0.33657000  0.00304600  0.70859300  1
  C  C22  1  0.66343100  0.99695400  0.29140800  1
  C  C23  1  0.38614900  0.54227400  0.96785000  1
  C  C24  1  0.61385200  0.45772500  0.03215100  1
  C  C25  1  0.60580800  0.55281000  0.03514000  1
  C  C26  1  0.39419300  0.44719000  0.96486100  1
  I  I1  1  0.23268700  0.36648500  0.91175600  1
  I  I2  1  0.76731400  0.63351500  0.08824400  1
  I  I3  1  0.78750700  0.39337000  0.08168900  1
  I  I4  1  0.21249400  0.60663000  0.91831100  1
  N  N1  1  0.51942200  0.22595100  0.99526400  1
  N  N2  1  0.48057800  0.77404900  0.00473700  1
  O  O1  1  0.62120700  0.91068200  0.88854000  1
  O  O2  1  0.37879300  0.08931800  0.11146100  1
  O  O3  1  0.36113200  0.92908900  0.11002200  1
  O  O4  1  0.63886900  0.07091100  0.88997800  1
  O  O5  1  0.38481100  0.08070900  0.77722900  1
  O  O6  1  0.61519000  0.91929100  0.22277100  1
  O  O7  1  0.63306100  0.07723400  0.22056700  1
  O  O8  1  0.36694000  0.92276600  0.77943400  1
