# generated using pymatgen
data_Fe2H24C45O16
_symmetry_space_group_name_H-M   'P 1'
_cell_length_a   14.25765500
_cell_length_b   11.77728900
_cell_length_c   13.70859800
_cell_angle_alpha   91.31345600
_cell_angle_beta   92.89133600
_cell_angle_gamma   109.00835200
_symmetry_Int_Tables_number   1
_chemical_formula_structural   Fe2H24C45O16
_chemical_formula_sum   'Fe2 H24 C45 O16'
_cell_volume   2171.72121895
_cell_formula_units_Z   1
loop_
 _symmetry_equiv_pos_site_id
 _symmetry_equiv_pos_as_xyz
  1  'x, y, z'
loop_
 _atom_site_type_symbol
 _atom_site_label
 _atom_site_symmetry_multiplicity
 _atom_site_fract_x
 _atom_site_fract_y
 _atom_site_fract_z
 _atom_site_occupancy
  Fe  Fe1  1  0.50795900  0.02131100  0.13594400  1
  Fe  Fe2  1  0.50445600  0.00668700  0.70814900  1
  H  H1  1  0.12491700  0.88331100  0.73367100  1
  H  H2  1  0.99093100  0.88324300  0.83001900  1
  H  H3  1  0.98103600  0.07322500  0.84148300  1
  H  H4  1  0.82536600  0.07449300  0.76816600  1
  H  H5  1  0.25385800  0.98425200  0.14618700  1
  H  H6  1  0.11851600  0.98291200  0.24055400  1
  H  H7  1  0.95522000  0.97952000  0.25430200  1
  H  H8  1  0.79946500  0.98231900  0.18514500  1
  H  H9  1  0.50314200  0.42652200  0.67040100  1
  H  H10  1  0.38139300  0.51733800  0.60885300  1
  H  H11  1  0.45592600  0.36619000  0.18041000  1
  H  H12  1  0.44570400  0.10310100  0.43580700  1
  H  H13  1  0.49308600  0.89044300  0.41325700  1
  H  H14  1  0.59422600  0.51787700  0.59405000  1
  H  H15  1  0.49276900  0.62720900  0.66303300  1
  H  H16  1  0.56288400  0.47607000  0.23964300  1
  H  H17  1  0.46078100  0.57646900  0.17338200  1
  H  H18  1  0.14740300  0.30172900  0.14399100  1
  H  H19  1  0.14091700  0.45118100  0.12692300  1
  H  H20  1  0.15193000  0.36023000  0.02291300  1
  H  H21  1  0.31217200  0.51699200  0.07071400  1
  H  H22  1  0.31845900  0.36767600  0.08644500  1
  H  H23  1  0.29138700  0.38601800  0.26477700  1
  H  H24  1  0.28278700  0.53297600  0.24728400  1
  C  C1  1  0.23831900  0.94586700  0.84995300  1
  C  C2  1  0.14184700  0.91127500  0.80992600  1
  C  C3  1  0.06489500  0.91558800  0.86479400  1
  C  C4  1  0.91667900  0.04280400  0.88416800  1
  C  C5  1  0.25440500  0.96885000  0.95103200  1
  C  C6  1  0.17464700  0.97002600  0.00625900  1
  C  C7  1  0.08220100  0.95840200  0.96130600  1
  C  C8  1  0.00740700  0.97827400  0.01665500  1
  C  C9  1  0.82891900  0.04989700  0.84339400  1
  C  C10  1  0.74529300  0.01870100  0.89579900  1
  C  C11  1  0.92141600  0.99909700  0.97695500  1
  C  C12  1  0.84225100  0.99046400  0.03542500  1
  C  C13  1  0.75280800  0.99756700  0.99399800  1
  C  C14  1  0.18651400  0.98185100  0.10701300  1
  C  C15  1  0.10850600  0.97989500  0.16173900  1
  C  C16  1  0.01994800  0.97907100  0.11742400  1
  C  C17  1  0.94477900  0.98056200  0.17572100  1
  C  C18  1  0.85526300  0.98118400  0.13530600  1
  C  C19  1  0.66637900  0.98483800  0.05245500  1
  C  C20  1  0.45897700  0.79569500  0.23664300  1
  C  C21  1  0.35514200  0.00498300  0.99955000  1
  C  C22  1  0.45249300  0.16459100  0.25938700  1
  C  C23  1  0.51653700  0.83098600  0.58579300  1
  C  C24  1  0.64896100  0.00205500  0.84509400  1
  C  C25  1  0.47533800  0.20225400  0.60766300  1
  C  C26  1  0.31833300  0.95433900  0.78285000  1
  C  C27  1  0.45344400  0.19719500  0.43263100  1
  C  C28  1  0.46560100  0.26465600  0.51820100  1
  C  C29  1  0.47551800  0.38573500  0.51368800  1
  C  C30  1  0.51360400  0.47106600  0.59995100  1
  C  C31  1  0.46159700  0.56345000  0.59990700  1
  C  C32  1  0.45928100  0.24761800  0.34299500  1
  C  C33  1  0.46594400  0.36758200  0.33779800  1
  C  C34  1  0.46664800  0.43345500  0.42320700  1
  C  C35  1  0.46538300  0.55739000  0.41832700  1
  C  C36  1  0.47308900  0.62455300  0.50493000  1
  C  C37  1  0.48679300  0.74601100  0.50117000  1
  C  C38  1  0.48189100  0.43028800  0.24390900  1
  C  C39  1  0.43090400  0.52496700  0.23754200  1
  C  C40  1  0.45488000  0.60605400  0.32809000  1
  C  C41  1  0.46280400  0.72777500  0.32549700  1
  C  C42  1  0.48337100  0.79561100  0.41231400  1
  C  C43  1  0.31822600  0.46763000  0.22172200  1
  C  C44  1  0.28666700  0.43547900  0.11414200  1
  C  C45  1  0.17433900  0.38380200  0.10137000  1
  O  O1  1  0.61781200  0.06287500  0.04655300  1
  O  O2  1  0.40836900  0.74552000  0.15550000  1
  O  O3  1  0.63356600  0.89085700  0.10609000  1
  O  O4  1  0.50356000  0.91259100  0.24498600  1
  O  O5  1  0.38308300  0.93068400  0.05563800  1
  O  O6  1  0.41038200  0.11862100  0.00100300  1
  O  O7  1  0.52290500  0.18326000  0.19714600  1
  O  O8  1  0.39081200  0.05506900  0.26441300  1
  O  O9  1  0.45149400  0.83928100  0.64789600  1
  O  O10  1  0.59885700  0.92213400  0.58183600  1
  O  O11  1  0.64284600  0.06757300  0.77086200  1
  O  O12  1  0.57118400  0.91078300  0.86462100  1
  O  O13  1  0.29529800  0.92685400  0.68944200  1
  O  O14  1  0.51621400  0.11772200  0.59978500  1
  O  O15  1  0.41236600  0.99714500  0.81342400  1
  O  O16  1  0.42777900  0.21180900  0.68529100  1
