# generated using pymatgen
data_VH9C16(NO2)3
_symmetry_space_group_name_H-M   'P 1'
_cell_length_a   25.63152100
_cell_length_b   6.14617700
_cell_length_c   22.04088700
_cell_angle_alpha   90.00000000
_cell_angle_beta   104.33045400
_cell_angle_gamma   90.00000000
_symmetry_Int_Tables_number   1
_chemical_formula_structural   VH9C16(NO2)3
_chemical_formula_sum   'V4 H36 C64 N12 O24'
_cell_volume   3364.18935359
_cell_formula_units_Z   4
loop_
 _symmetry_equiv_pos_site_id
 _symmetry_equiv_pos_as_xyz
  1  'x, y, z'
loop_
 _atom_site_type_symbol
 _atom_site_label
 _atom_site_symmetry_multiplicity
 _atom_site_fract_x
 _atom_site_fract_y
 _atom_site_fract_z
 _atom_site_occupancy
  V  V1  1  0.49652300  0.22847500  0.48163900  1
  V  V2  1  0.00388800  0.27684600  0.01828500  1
  V  V3  1  0.50347700  0.72847500  0.51836100  1
  V  V4  1  0.99611200  0.77684600  0.98171500  1
  H  H1  1  0.72152400  0.97284000  0.67901800  1
  H  H2  1  0.79158300  0.55779400  0.80439700  1
  H  H3  1  0.27847600  0.47284000  0.32098300  1
  H  H4  1  0.20841700  0.05779400  0.19560300  1
  H  H5  1  0.63996600  0.05982200  0.59952500  1
  H  H6  1  0.87175200  0.46787200  0.88567700  1
  H  H7  1  0.36003400  0.55982200  0.40047500  1
  H  H8  1  0.12824800  0.96787200  0.11432300  1
  H  H9  1  0.63566000  0.68745300  0.67957100  1
  H  H10  1  0.85040100  0.79690700  0.83858600  1
  H  H11  1  0.36434000  0.18745300  0.32042900  1
  H  H12  1  0.14959900  0.29690700  0.16141400  1
  H  H13  1  0.71559800  0.60006300  0.76165500  1
  H  H14  1  0.76842200  0.88127800  0.75925900  1
  H  H15  1  0.28440200  0.10006300  0.23834500  1
  H  H16  1  0.23157800  0.38127800  0.24074100  1
  H  H17  1  0.12012700  0.43394400  0.92317700  1
  H  H18  1  0.37665900  0.07367900  0.57230300  1
  H  H19  1  0.87987300  0.93394400  0.07682300  1
  H  H20  1  0.62334100  0.57367900  0.42769700  1
  H  H21  1  0.18596700  0.48644300  0.86021700  1
  H  H22  1  0.30982200  0.02159900  0.63400300  1
  H  H23  1  0.81403300  0.98644300  0.13978300  1
  H  H24  1  0.69017800  0.52159900  0.36599700  1
  H  H25  1  0.09290500  0.78557300  0.85497500  1
  H  H26  1  0.40664400  0.71565000  0.64482900  1
  H  H27  1  0.90709500  0.28557300  0.14502500  1
  H  H28  1  0.59335600  0.21565000  0.35517100  1
  H  H29  1  0.14543100  0.47717400  0.75319800  1
  H  H30  1  0.09139000  0.63417700  0.75344600  1
  H  H31  1  0.28704300  0.88151700  0.75590200  1
  H  H32  1  0.25559900  0.73584100  0.69224000  1
  H  H33  1  0.85456900  0.97717400  0.24680300  1
  H  H34  1  0.90861000  0.13417700  0.24655400  1
  H  H35  1  0.71295700  0.38151700  0.24409800  1
  H  H36  1  0.74440100  0.23584100  0.30776000  1
  C  C1  1  0.56494800  0.93298600  0.43175900  1
  C  C2  1  0.93624100  0.57198300  0.06971500  1
  C  C3  1  0.43505200  0.43298600  0.56824100  1
  C  C4  1  0.06375900  0.07198300  0.93028500  1
  C  C5  1  0.41580700  0.92897900  0.41390600  1
  C  C6  1  0.08500400  0.57661400  0.08491700  1
  C  C7  1  0.58419300  0.42897900  0.58609400  1
  C  C8  1  0.91499600  0.07661400  0.91508300  1
  C  C9  1  0.70283900  0.12908800  0.68072500  1
  C  C10  1  0.80315400  0.38940300  0.81187400  1
  C  C11  1  0.29716100  0.62908800  0.31927600  1
  C  C12  1  0.19684600  0.88940300  0.18812600  1
  C  C13  1  0.65688900  0.17840500  0.63519300  1
  C  C14  1  0.84889400  0.33943900  0.85766100  1
  C  C15  1  0.34311100  0.67840500  0.36480700  1
  C  C16  1  0.15110600  0.83943900  0.14234000  1
  C  C17  1  0.63284700  0.37903200  0.63449900  1
  C  C18  1  0.86608900  0.12706000  0.86711900  1
  C  C19  1  0.36715300  0.87903200  0.36550200  1
  C  C20  1  0.13391100  0.62706000  0.13288200  1
  C  C21  1  0.65467200  0.53038300  0.67972700  1
  C  C22  1  0.83717200  0.96393100  0.83102100  1
  C  C23  1  0.34532800  0.03038300  0.32027300  1
  C  C24  1  0.16282800  0.46393100  0.16897900  1
  C  C25  1  0.70025900  0.48061600  0.72587000  1
  C  C26  1  0.79098400  0.01292500  0.78570700  1
  C  C27  1  0.29974100  0.98061600  0.27413000  1
  C  C28  1  0.20901600  0.51292500  0.21429300  1
  C  C29  1  0.72483100  0.27952000  0.72666700  1
  C  C30  1  0.77370200  0.22641700  0.77553800  1
  C  C31  1  0.27516900  0.77952000  0.27333400  1
  C  C32  1  0.22629800  0.72641700  0.22446200  1
  C  C33  1  0.12838400  0.30327600  0.89406800  1
  C  C34  1  0.36873800  0.20310000  0.60201400  1
  C  C35  1  0.87161600  0.80327600  0.10593200  1
  C  C36  1  0.63126200  0.70310000  0.39798600  1
  C  C37  1  0.16556900  0.33197600  0.85903200  1
  C  C38  1  0.33095000  0.17477200  0.63628600  1
  C  C39  1  0.83443100  0.83197600  0.14096800  1
  C  C40  1  0.66905000  0.67477200  0.36371500  1
  C  C41  1  0.17635100  0.16599200  0.82169300  1
  C  C42  1  0.32060100  0.33923900  0.67438600  1
  C  C43  1  0.82364900  0.66599200  0.17830700  1
  C  C44  1  0.67939900  0.83923900  0.32561400  1
  C  C45  1  0.15029600  0.96766200  0.82049400  1
  C  C46  1  0.34773300  0.53567100  0.67717900  1
  C  C47  1  0.84970400  0.46766200  0.17950600  1
  C  C48  1  0.65226700  0.03567100  0.32282100  1
  C  C49  1  0.11294200  0.94053700  0.85540500  1
  C  C50  1  0.38569500  0.56224100  0.64308100  1
  C  C51  1  0.88705800  0.44053700  0.14459500  1
  C  C52  1  0.61430500  0.06224100  0.35691900  1
  C  C53  1  0.10198900  0.10737600  0.89211400  1
  C  C54  1  0.39616900  0.39710500  0.60554100  1
  C  C55  1  0.89801100  0.60737600  0.10788600  1
  C  C56  1  0.60383100  0.89710500  0.39445900  1
  C  C57  1  0.28237800  0.29688100  0.71239000  1
  C  C58  1  0.21448000  0.20799100  0.78351800  1
  C  C59  1  0.71762200  0.79688100  0.28761000  1
  C  C60  1  0.78552000  0.70799100  0.21648200  1
  C  C61  1  0.16284000  0.78014400  0.78557900  1
  C  C62  1  0.33620400  0.72166000  0.71340000  1
  C  C63  1  0.83716000  0.28014400  0.21442100  1
  C  C64  1  0.66379600  0.22166000  0.28660000  1
  N  N1  1  0.21491700  0.08295700  0.73361400  1
  N  N2  1  0.28201400  0.42154600  0.76235500  1
  N  N3  1  0.78508300  0.58295700  0.26638600  1
  N  N4  1  0.71798600  0.92154600  0.23764500  1
  N  N5  1  0.24872600  0.12611400  0.69860700  1
  N  N6  1  0.24811400  0.37879600  0.79725800  1
  N  N7  1  0.75127400  0.62611400  0.30139300  1
  N  N8  1  0.75188600  0.87879600  0.20274200  1
  N  N9  1  0.12985000  0.59060200  0.77929300  1
  N  N10  1  0.28714900  0.73368700  0.73262200  1
  N  N11  1  0.87015000  0.09060200  0.22070700  1
  N  N12  1  0.71285100  0.23368700  0.26737800  1
  O  O1  1  0.43806800  0.76355100  0.44971200  1
  O  O2  1  0.06216500  0.74194600  0.04947300  1
  O  O3  1  0.56193200  0.26355100  0.55028800  1
  O  O4  1  0.93783500  0.24194600  0.95052700  1
  O  O5  1  0.54368400  0.12995100  0.42798100  1
  O  O6  1  0.95761900  0.37528700  0.07300000  1
  O  O7  1  0.45631600  0.62995100  0.57202000  1
  O  O8  1  0.04238100  0.87528700  0.92700000  1
  O  O9  1  0.43459800  0.12949300  0.41492900  1
  O  O10  1  0.06648000  0.37576800  0.08410000  1
  O  O11  1  0.56540200  0.62949300  0.58507100  1
  O  O12  1  0.93352000  0.87576800  0.91590000  1
  O  O13  1  0.44684200  0.26308600  0.53680100  1
  O  O14  1  0.05261600  0.24225400  0.96200500  1
  O  O15  1  0.55315800  0.76308600  0.46319900  1
  O  O16  1  0.94738400  0.74225400  0.03799500  1
  O  O17  1  0.50694100  0.99032300  0.54041500  1
  O  O18  1  0.99236100  0.51504000  0.95962300  1
  O  O19  1  0.49305900  0.49032300  0.45958500  1
  O  O20  1  0.00763900  0.01504000  0.04037700  1
  O  O21  1  0.20275400  0.77965300  0.76498800  1
  O  O22  1  0.36736600  0.87485300  0.72346500  1
  O  O23  1  0.79724600  0.27965300  0.23501200  1
  O  O24  1  0.63263400  0.37485300  0.27653500  1
