# generated using pymatgen
data_Fe2H17C48N3O22
_symmetry_space_group_name_H-M   'P 1'
_cell_length_a   14.41695300
_cell_length_b   18.54470900
_cell_length_c   13.11857600
_cell_angle_alpha   109.28158300
_cell_angle_beta   86.98060400
_cell_angle_gamma   75.82922400
_symmetry_Int_Tables_number   1
_chemical_formula_structural   Fe2H17C48N3O22
_chemical_formula_sum   'Fe2 H17 C48 N3 O22'
_cell_volume   3175.53811307
_cell_formula_units_Z   1
loop_
 _symmetry_equiv_pos_site_id
 _symmetry_equiv_pos_as_xyz
  1  'x, y, z'
loop_
 _atom_site_type_symbol
 _atom_site_label
 _atom_site_symmetry_multiplicity
 _atom_site_fract_x
 _atom_site_fract_y
 _atom_site_fract_z
 _atom_site_occupancy
  Fe  Fe1  1  0.49231100  0.01097500  0.28391900  1
  Fe  Fe2  1  0.50758700  0.97825900  0.71983000  1
  H  H1  1  0.13229100  0.02152800  0.19497900  1
  H  H2  1  0.14812700  0.98982900  0.85695700  1
  H  H3  1  0.86738700  0.98048100  0.81492600  1
  H  H4  1  0.84887200  0.02178300  0.15548800  1
  H  H5  1  0.40557800  0.93785400  0.99703600  1
  H  H6  1  0.59297500  0.04738200  0.00554700  1
  H  H7  1  0.01456900  0.93339100  0.91217500  1
  H  H8  1  0.75501200  0.50572500  0.56239800  1
  H  H9  1  0.85561700  0.41148400  0.62916500  1
  H  H10  1  0.24804900  0.48508200  0.44213400  1
  H  H11  1  0.14742300  0.57948200  0.37562700  1
  H  H12  1  0.26859900  0.22840200  0.46409400  1
  H  H13  1  0.25060900  0.25281300  0.84897500  1
  H  H14  1  0.15163500  0.35761700  0.79761200  1
  H  H15  1  0.73230800  0.76147900  0.54005700  1
  H  H16  1  0.75478800  0.73916400  0.15589000  1
  H  H17  1  0.85343900  0.63428200  0.20727200  1
  C  C1  1  0.27366500  0.97635000  0.10388000  1
  C  C2  1  0.17433300  0.00184500  0.11522500  1
  C  C3  1  0.12873600  0.00398000  0.02573800  1
  C  C4  1  0.18363800  0.98284100  0.92501300  1
  C  C5  1  0.28360200  0.95896200  0.91393100  1
  C  C6  1  0.32779700  0.95251600  0.00278700  1
  C  C7  1  0.02276300  0.03431200  0.03929200  1
  C  C8  1  0.97391600  0.98887300  0.97497200  1
  C  C9  1  0.82395700  0.99959100  0.89377400  1
  C  C10  1  0.72471000  0.01713500  0.90223000  1
  C  C11  1  0.67002000  0.03883600  0.00227400  1
  C  C12  1  0.71390200  0.03759400  0.09303500  1
  C  C13  1  0.81324400  0.02350800  0.08552600  1
  C  C14  1  0.86796200  0.00750700  0.98630500  1
  C  C15  1  0.65516900  0.03897800  0.18900100  1
  C  C16  1  0.62577700  0.87366000  0.28216200  1
  C  C17  1  0.32273600  0.99231300  0.20013700  1
  C  C18  1  0.37989300  0.10280600  0.48433500  1
  C  C19  1  0.62088100  0.88702300  0.51988700  1
  C  C20  1  0.67679100  0.99861100  0.80538500  1
  C  C21  1  0.37764600  0.11726500  0.72207800  1
  C  C22  1  0.34358600  0.95469100  0.81680200  1
  C  C23  1  0.95512600  0.61702600  0.39380000  1
  C  C24  1  0.81710600  0.59093100  0.45933500  1
  C  C25  1  0.87386400  0.53631900  0.49736800  1
  C  C26  1  0.97276300  0.52232300  0.48312100  1
  C  C27  1  0.01383300  0.56250800  0.43051600  1
  C  C28  1  0.83243600  0.49595000  0.55006300  1
  C  C29  1  0.88987000  0.44221400  0.58831100  1
  C  C30  1  0.98920300  0.42844100  0.57424700  1
  C  C31  1  0.03028300  0.46857900  0.52156100  1
  C  C32  1  0.12919500  0.45452000  0.50720900  1
  C  C33  1  0.17061900  0.49489500  0.45452700  1
  C  C34  1  0.11317100  0.54872700  0.41643800  1
  C  C35  1  0.04790600  0.37398300  0.61105700  1
  C  C36  1  0.18595400  0.39981500  0.54509300  1
  C  C37  1  0.26656600  0.23379500  0.54883300  1
  C  C38  1  0.32143300  0.17220800  0.57564700  1
  C  C39  1  0.31740800  0.17820300  0.68510700  1
  C  C40  1  0.25580800  0.24578200  0.76361200  1
  C  C41  1  0.19945100  0.30576200  0.73499500  1
  C  C42  1  0.20486300  0.30002000  0.62734100  1
  C  C43  1  0.73520800  0.75645700  0.45541500  1
  C  C44  1  0.68029500  0.81804200  0.42861600  1
  C  C45  1  0.68576500  0.81271200  0.31933800  1
  C  C46  1  0.74857900  0.74572500  0.24109800  1
  C  C47  1  0.80475000  0.68568600  0.26973800  1
  C  C48  1  0.79812500  0.69081800  0.37717200  1
  N  N1  1  0.85815700  0.63053900  0.40878700  1
  N  N2  1  0.14486900  0.36035300  0.59584300  1
  N  N3  1  0.97579600  0.11328900  0.11474400  1
  O  O1  1  0.56222300  0.04786900  0.18602300  1
  O  O2  1  0.63708700  0.86542700  0.17863200  1
  O  O3  1  0.69640000  0.01676900  0.26467800  1
  O  O4  1  0.56008400  0.93551200  0.35092400  1
  O  O5  1  0.41120700  0.94843300  0.19323200  1
  O  O6  1  0.29095600  0.06246600  0.27728800  1
  O  O7  1  0.42886000  0.11396100  0.40625200  1
  O  O8  1  0.36935900  0.03191200  0.46994800  1
  O  O9  1  0.57217100  0.87534000  0.59770800  1
  O  O10  1  0.63011000  0.95830500  0.53442000  1
  O  O11  1  0.58782200  0.04131600  0.81143600  1
  O  O12  1  0.71004500  0.92806000  0.72934700  1
  O  O13  1  0.30336300  0.97974300  0.74278100  1
  O  O14  1  0.44001100  0.05348500  0.65237900  1
  O  O15  1  0.43742300  0.94096600  0.81712000  1
  O  O16  1  0.36915400  0.12696200  0.82619200  1
  O  O17  1  0.99451700  0.65871300  0.34622000  1
  O  O18  1  0.72055700  0.60423600  0.47186100  1
  O  O19  1  0.00854200  0.33246700  0.65897900  1
  O  O20  1  0.28253800  0.38622700  0.53217600  1
  O  O21  1  0.02474900  0.15093100  0.18343600  1
  O  O22  1  0.89566700  0.15452300  0.09668100  1
