# generated using pymatgen
data_Zn2H14C30N6O11
_symmetry_space_group_name_H-M   'P 1'
_cell_length_a   8.52433700
_cell_length_b   10.68108900
_cell_length_c   14.31795600
_cell_angle_alpha   97.71162100
_cell_angle_beta   90.10786500
_cell_angle_gamma   90.00841500
_symmetry_Int_Tables_number   1
_chemical_formula_structural   Zn2H14C30N6O11
_chemical_formula_sum   'Zn2 H14 C30 N6 O11'
_cell_volume   1291.84597455
_cell_formula_units_Z   1
loop_
 _symmetry_equiv_pos_site_id
 _symmetry_equiv_pos_as_xyz
  1  'x, y, z'
loop_
 _atom_site_type_symbol
 _atom_site_label
 _atom_site_symmetry_multiplicity
 _atom_site_fract_x
 _atom_site_fract_y
 _atom_site_fract_z
 _atom_site_occupancy
  Zn  Zn1  1  0.50106100  0.49142400  0.10253200  1
  Zn  Zn2  1  0.50076800  0.50654000  0.89570700  1
  H  H1  1  0.61210100  0.89559600  0.01480900  1
  H  H2  1  0.99726400  0.59194200  0.05771200  1
  H  H3  1  0.99743700  0.40680700  0.94081300  1
  H  H4  1  0.25577900  0.90225800  0.99243800  1
  H  H5  1  0.25612700  0.09539900  0.00440800  1
  H  H6  1  0.73112700  0.38083200  0.43542900  1
  H  H7  1  0.73623600  0.60923100  0.56370600  1
  H  H8  1  0.27082800  0.61725400  0.56285200  1
  H  H9  1  0.51064600  0.85553700  0.34760700  1
  H  H10  1  0.39545000  0.72671100  0.32452400  1
  H  H11  1  0.48927800  0.14213700  0.65025200  1
  H  H12  1  0.60505700  0.27053700  0.67400300  1
  H  H13  1  0.09817800  0.30565600  0.31555000  1
  H  H14  1  0.18695100  0.44473300  0.30671000  1
  C  C1  1  0.99912200  0.69006100  0.04684300  1
  C  C2  1  0.13968900  0.74680500  0.03234400  1
  C  C3  1  0.14280500  0.86761400  0.01004100  1
  C  C4  1  0.86033600  0.75087000  0.03369100  1
  C  C5  1  0.86242700  0.87580700  0.01610600  1
  C  C6  1  0.00463900  0.93627200  0.00718500  1
  C  C7  1  0.00465300  0.06202000  0.99070300  1
  C  C8  1  0.14294300  0.13033500  0.98731600  1
  C  C9  1  0.13969200  0.25137500  0.96543900  1
  C  C10  1  0.72394600  0.94086300  0.00755900  1
  C  C11  1  0.86267600  0.12334700  0.98257000  1
  C  C12  1  0.86069500  0.24794500  0.96503200  1
  C  C13  1  0.99920200  0.30863400  0.95153600  1
  C  C14  1  0.28083400  0.66956300  0.02246700  1
  C  C15  1  0.28085100  0.32839100  0.97543100  1
  C  C16  1  0.71877700  0.32549600  0.97533100  1
  C  C17  1  0.71908000  0.67230400  0.02321500  1
  C  C18  1  0.63055400  0.55803900  0.53376100  1
  C  C19  1  0.62771200  0.43541500  0.46482400  1
  C  C20  1  0.50471100  0.61226700  0.47584800  1
  C  C21  1  0.50203900  0.49180100  0.40802800  1
  C  C22  1  0.37496200  0.56332300  0.53382100  1
  C  C23  1  0.50098700  0.50676600  0.59026200  1
  C  C24  1  0.37454800  0.44159500  0.46536200  1
  C  C25  1  0.49828400  0.38609000  0.52274200  1
  C  C26  1  0.50174200  0.48635000  0.30538900  1
  C  C27  1  0.50099700  0.51185500  0.69287300  1
  C  C28  1  0.50961600  0.74172200  0.44803100  1
  C  C29  1  0.49195300  0.25647200  0.55017700  1
  C  C30  1  0.23174300  0.37292000  0.42633000  1
  N  N1  1  0.72653500  0.06234400  0.99174000  1
  N  N2  1  0.50149100  0.48385700  0.22435600  1
  N  N3  1  0.50097500  0.51412700  0.77388600  1
  N  N4  1  0.50467200  0.75860700  0.35094600  1
  N  N5  1  0.49589600  0.23910400  0.64718200  1
  N  N6  1  0.20332700  0.35547800  0.32725200  1
  O  O1  1  0.33177300  0.63377500  0.93666600  1
  O  O2  1  0.33633000  0.62560800  0.09721900  1
  O  O3  1  0.33191100  0.36419500  0.06130600  1
  O  O4  1  0.33599000  0.37233700  0.90073000  1
  O  O5  1  0.66958900  0.36372800  0.06122100  1
  O  O6  1  0.66474500  0.37169100  0.90113200  1
  O  O7  1  0.66950100  0.63419500  0.93729000  1
  O  O8  1  0.66515000  0.62626400  0.09737800  1
  O  O9  1  0.51795200  0.83345200  0.50846500  1
  O  O10  1  0.48328400  0.16503200  0.48950900  1
  O  O11  1  0.13904000  0.33147700  0.47922000  1
