# generated using pymatgen
data_ZnH16C26NO5
_symmetry_space_group_name_H-M   'P 1'
_cell_length_a   12.34855000
_cell_length_b   15.26999500
_cell_length_c   11.82477700
_cell_angle_alpha   90.00000000
_cell_angle_beta   95.22097300
_cell_angle_gamma   90.00000000
_symmetry_Int_Tables_number   1
_chemical_formula_structural   ZnH16C26NO5
_chemical_formula_sum   'Zn2 H32 C52 N2 O10'
_cell_volume   2220.45640287
_cell_formula_units_Z   2
loop_
 _symmetry_equiv_pos_site_id
 _symmetry_equiv_pos_as_xyz
  1  'x, y, z'
loop_
 _atom_site_type_symbol
 _atom_site_label
 _atom_site_symmetry_multiplicity
 _atom_site_fract_x
 _atom_site_fract_y
 _atom_site_fract_z
 _atom_site_occupancy
  Zn  Zn1  1  0.87815000  0.52768000  0.48062700  1
  Zn  Zn2  1  0.12038100  0.52791300  0.51885000  1
  H  H1  1  0.14946600  0.22045700  0.92746200  1
  H  H2  1  0.84980500  0.83507100  0.07159700  1
  H  H3  1  0.84996200  0.21962600  0.07284000  1
  H  H4  1  0.14885900  0.83462800  0.92797500  1
  H  H5  1  0.82131800  0.29748400  0.68055000  1
  H  H6  1  0.17739100  0.75789200  0.31927800  1
  H  H7  1  0.17837400  0.29818700  0.31839700  1
  H  H8  1  0.82100700  0.75827500  0.68016700  1
  H  H9  1  0.15221700  0.34738700  0.80338100  1
  H  H10  1  0.84661900  0.70806000  0.19552100  1
  H  H11  1  0.84673500  0.34646400  0.19702000  1
  H  H12  1  0.15154300  0.70763600  0.80403500  1
  H  H13  1  0.82041400  0.16941400  0.80372400  1
  H  H14  1  0.17866300  0.88597600  0.19625000  1
  H  H15  1  0.17965000  0.17004800  0.19531900  1
  H  H16  1  0.82023000  0.88640500  0.80327500  1
  H  H17  1  0.95734600  0.02777700  0.79297400  1
  H  H18  1  0.04221600  0.02770800  0.20661300  1
  H  H19  1  0.30437900  0.50875700  0.32574100  1
  H  H20  1  0.38155200  0.40878100  0.35750600  1
  H  H21  1  0.36663700  0.59336300  0.14690600  1
  H  H22  1  0.35070500  0.56948300  0.94075800  1
  H  H23  1  0.34923100  0.41971500  0.86420600  1
  H  H24  1  0.36418600  0.29369800  0.99418500  1
  H  H25  1  0.38028700  0.31681600  0.20005700  1
  H  H26  1  0.69288900  0.51451000  0.67315300  1
  H  H27  1  0.62627700  0.40920700  0.64406600  1
  H  H28  1  0.63133500  0.59414800  0.85335900  1
  H  H29  1  0.64883600  0.57084000  0.05965000  1
  H  H30  1  0.65759000  0.42127300  0.13693700  1
  H  H31  1  0.64912400  0.29483500  0.00760000  1
  H  H32  1  0.63194800  0.31736600  0.80163200  1
  C  C1  1  0.98670700  0.33192300  0.73369200  1
  C  C2  1  0.01200600  0.72357400  0.26578300  1
  C  C3  1  0.01254300  0.33182900  0.26598500  1
  C  C4  1  0.98622100  0.72355800  0.73370400  1
  C  C5  1  0.98685600  0.10637200  0.94157100  1
  C  C6  1  0.01265400  0.94909100  0.05802000  1
  C  C7  1  0.01308800  0.10634800  0.05803300  1
  C  C8  1  0.98655900  0.94911200  0.94154500  1
  C  C9  1  0.07650200  0.23840300  0.87511800  1
  C  C10  1  0.92262500  0.81710500  0.12416300  1
  C  C11  1  0.92294400  0.23791400  0.12491100  1
  C  C12  1  0.07596400  0.81685500  0.87540100  1
  C  C13  1  0.89331500  0.28220300  0.73593000  1
  C  C14  1  0.10549300  0.77321600  0.26376800  1
  C  C15  1  0.10626800  0.28254600  0.26336500  1
  C  C16  1  0.89292900  0.77342700  0.73573000  1
  C  C17  1  0.07817300  0.30978100  0.80397100  1
  C  C18  1  0.92070500  0.74570100  0.19523900  1
  C  C19  1  0.92102100  0.30924800  0.19608300  1
  C  C20  1  0.07759300  0.74545400  0.80429900  1
  C  C21  1  0.98409000  0.18758400  0.87541000  1
  C  C22  1  0.01510300  0.86790200  0.12419200  1
  C  C23  1  0.01565800  0.18752500  0.12424800  1
  C  C24  1  0.98371100  0.86790600  0.87536400  1
  C  C25  1  0.89269800  0.20949300  0.80518400  1
  C  C26  1  0.10633400  0.84593600  0.19459600  1
  C  C27  1  0.10712300  0.20981800  0.19413800  1
  C  C28  1  0.89238700  0.84616400  0.80493800  1
  C  C29  1  0.64152600  0.52391900  0.45518000  1
  C  C30  1  0.35695400  0.52398400  0.54515000  1
  C  C31  1  0.99060400  0.65129900  0.65266400  1
  C  C32  1  0.00797500  0.40423700  0.34684100  1
  C  C33  1  0.00755400  0.65125600  0.34671100  1
  C  C34  1  0.99101100  0.40430300  0.65278100  1
  C  C35  1  0.97308000  0.02775700  0.88441600  1
  C  C36  1  0.02653900  0.02770600  0.11516500  1
  C  C37  1  0.47367400  0.51703900  0.54956500  1
  C  C38  1  0.52469900  0.51818200  0.45218300  1
  C  C39  1  0.37930000  0.47213700  0.31150200  1
  C  C40  1  0.37589400  0.45684000  0.18687000  1
  C  C41  1  0.36729800  0.52742300  0.11367900  1
  C  C42  1  0.35774300  0.51409400  0.99789400  1
  C  C43  1  0.35671800  0.43015200  0.95499600  1
  C  C44  1  0.36528200  0.35952400  0.02789800  1
  C  C45  1  0.37483200  0.37272900  0.14376700  1
  C  C46  1  0.62279900  0.47262300  0.68930100  1
  C  C47  1  0.62981700  0.45744200  0.81412700  1
  C  C48  1  0.63463200  0.52825500  0.88694500  1
  C  C49  1  0.64486900  0.51526600  0.00278900  1
  C  C50  1  0.64997700  0.43143300  0.04609900  1
  C  C51  1  0.64510100  0.36056900  0.97356000  1
  C  C52  1  0.63515100  0.37343600  0.85763400  1
  N  N1  1  0.26300400  0.52800400  0.54007500  1
  N  N2  1  0.73550900  0.52742300  0.45941000  1
  O  O1  1  0.08646200  0.62310600  0.62934100  1
  O  O2  1  0.91213300  0.43247300  0.37015700  1
  O  O3  1  0.91173200  0.62291100  0.37002500  1
  O  O4  1  0.08675900  0.43268400  0.62942800  1
  O  O5  1  0.89903800  0.62010000  0.60343200  1
  O  O6  1  0.09944700  0.43548300  0.39607600  1
  O  O7  1  0.09916800  0.62021700  0.39595600  1
  O  O8  1  0.89943300  0.43535600  0.60351000  1
  O  O9  1  0.46937400  0.52138600  0.34739900  1
  O  O10  1  0.52680800  0.51484900  0.65554900  1
