# generated using pymatgen
data_ZnH3C16N5O4
_symmetry_space_group_name_H-M   'P 1'
_cell_length_a   8.54237100
_cell_length_b   12.77091500
_cell_length_c   14.28876000
_cell_angle_alpha   90.57159700
_cell_angle_beta   90.54505400
_cell_angle_gamma   93.59948300
_symmetry_Int_Tables_number   1
_chemical_formula_structural   ZnH3C16N5O4
_chemical_formula_sum   'Zn2 H6 C32 N10 O8'
_cell_volume   1555.58367594
_cell_formula_units_Z   2
loop_
 _symmetry_equiv_pos_site_id
 _symmetry_equiv_pos_as_xyz
  1  'x, y, z'
loop_
 _atom_site_type_symbol
 _atom_site_label
 _atom_site_symmetry_multiplicity
 _atom_site_fract_x
 _atom_site_fract_y
 _atom_site_fract_z
 _atom_site_occupancy
  Zn  Zn1  1  0.49981600  0.48848800  0.10385900  1
  Zn  Zn2  1  0.50018400  0.51151200  0.89614100  1
  H  H1  1  0.78442500  0.85724800  0.99912200  1
  H  H2  1  0.21557500  0.14275200  0.00087800  1
  H  H3  1  0.99798000  0.57134000  0.04395400  1
  H  H4  1  0.00202000  0.42866000  0.95604600  1
  H  H5  1  0.73137100  0.61140700  0.54853200  1
  H  H6  1  0.26862900  0.38859300  0.45146800  1
  C  C1  1  0.15514100  0.70301700  0.01855400  1
  C  C2  1  0.84485900  0.29698300  0.98144600  1
  C  C3  1  0.17028100  0.80911500  0.00302400  1
  C  C4  1  0.82971900  0.19088500  0.99697600  1
  C  C5  1  0.03927600  0.86719300  0.00210900  1
  C  C6  1  0.96072400  0.13280700  0.99789100  1
  C  C7  1  0.89040900  0.81603200  0.00706500  1
  C  C8  1  0.10959100  0.18396800  0.99293500  1
  C  C9  1  0.87669600  0.70876400  0.02106100  1
  C  C10  1  0.12330400  0.29123600  0.97893900  1
  C  C11  1  0.00933600  0.65452500  0.03195400  1
  C  C12  1  0.99066400  0.34547500  0.96804600  1
  C  C13  1  0.28928600  0.63848100  0.01232100  1
  C  C14  1  0.71071400  0.36151900  0.98767900  1
  C  C15  1  0.27314400  0.35321500  0.98567500  1
  C  C16  1  0.72685600  0.64678500  0.01432500  1
  C  C17  1  0.62686600  0.56085500  0.52664700  1
  C  C18  1  0.37313400  0.43914500  0.47335300  1
  C  C19  1  0.62671600  0.45692400  0.47364800  1
  C  C20  1  0.37328400  0.54307600  0.52635100  1
  C  C21  1  0.49540800  0.59164000  0.46190200  1
  C  C22  1  0.50459200  0.40836000  0.53809800  1
  C  C23  1  0.49763900  0.48876500  0.40939800  1
  C  C24  1  0.50236100  0.51123500  0.59060200  1
  C  C25  1  0.49879500  0.48052900  0.30720100  1
  C  C26  1  0.50120500  0.51947100  0.69279900  1
  C  C27  1  0.32299500  0.85938200  0.98897500  1
  C  C28  1  0.67700500  0.14061800  0.01102500  1
  C  C29  1  0.76618700  0.40572100  0.44303900  1
  C  C30  1  0.23381300  0.59427900  0.55696100  1
  C  C31  1  0.51386800  0.30613200  0.58242100  1
  C  C32  1  0.48613200  0.69386800  0.41757900  1
  N  N1  1  0.06138700  0.97736200  0.99369800  1
  N  N2  1  0.93861300  0.02263800  0.00630200  1
  N  N3  1  0.49956100  0.47678900  0.22626900  1
  N  N4  1  0.50043900  0.52321100  0.77373100  1
  N  N5  1  0.44640900  0.89946500  0.97744500  1
  N  N6  1  0.55359100  0.10053500  0.02255500  1
  N  N7  1  0.87648500  0.36522500  0.41883400  1
  N  N8  1  0.12351500  0.63477500  0.58116600  1
  N  N9  1  0.52119800  0.22528500  0.61747400  1
  N  N10  1  0.47880200  0.77471500  0.38252600  1
  O  O1  1  0.33716500  0.61291800  0.92866100  1
  O  O2  1  0.66283500  0.38708200  0.07133900  1
  O  O3  1  0.34208600  0.59822400  0.08956200  1
  O  O4  1  0.65791400  0.40177600  0.91043800  1
  O  O5  1  0.32487000  0.38123300  0.06971700  1
  O  O6  1  0.67513000  0.61876700  0.93028300  1
  O  O7  1  0.32991900  0.39607300  0.90899600  1
  O  O8  1  0.67008100  0.60392700  0.09100400  1
