# generated using pymatgen
data_ZnH9C19NO5
_symmetry_space_group_name_H-M   'P 1'
_cell_length_a   11.06333000
_cell_length_b   13.42093600
_cell_length_c   8.56114000
_cell_angle_alpha   90.00000000
_cell_angle_beta   102.45392800
_cell_angle_gamma   90.00000000
_symmetry_Int_Tables_number   1
_chemical_formula_structural   ZnH9C19NO5
_chemical_formula_sum   'Zn2 H18 C38 N2 O10'
_cell_volume   1241.24941634
_cell_formula_units_Z   2
loop_
 _symmetry_equiv_pos_site_id
 _symmetry_equiv_pos_as_xyz
  1  'x, y, z'
loop_
 _atom_site_type_symbol
 _atom_site_label
 _atom_site_symmetry_multiplicity
 _atom_site_fract_x
 _atom_site_fract_y
 _atom_site_fract_z
 _atom_site_occupancy
  Zn  Zn1  1  0.49296100  0.88869200  0.50391400  1
  Zn  Zn2  1  0.50427000  0.10876700  0.50908900  1
  H  H1  1  0.41176600  0.03244500  0.98378400  1
  H  H2  1  0.07965500  0.98763900  0.63995300  1
  H  H3  1  0.58456300  0.96750300  0.02902000  1
  H  H4  1  0.91758000  0.00829300  0.37300400  1
  H  H5  1  0.10986200  0.00233500  0.28837600  1
  H  H6  1  0.88733500  0.99035300  0.72458300  1
  H  H7  1  0.70028500  0.24801100  0.57087100  1
  H  H8  1  0.68408300  0.75616700  0.57281100  1
  H  H9  1  0.19306100  0.58096600  0.39706800  1
  H  H10  1  0.19800200  0.40610800  0.40547500  1
  H  H11  1  0.70690700  0.42623700  0.57097800  1
  H  H12  1  0.70123100  0.57921800  0.57939000  1
  H  H13  1  0.23318400  0.72871900  0.14913600  1
  H  H14  1  0.01293400  0.80611800  0.15714000  1
  H  H15  1  0.01593100  0.84186800  0.46098600  1
  H  H16  1  0.23720100  0.23634700  0.68180700  1
  H  H17  1  0.01471400  0.18129300  0.51787600  1
  H  H18  1  0.02567400  0.18715700  0.21356600  1
  C  C1  1  0.25395000  0.00706200  0.07877400  1
  C  C2  1  0.31481200  0.01722900  0.95631600  1
  C  C3  1  0.25509300  0.00461700  0.80003700  1
  C  C4  1  0.12818300  0.99424200  0.76333500  1
  C  C5  1  0.06345100  0.99630800  0.88519000  1
  C  C6  1  0.12638500  0.99975600  0.04372000  1
  C  C7  1  0.93576400  0.99382000  0.84836700  1
  C  C8  1  0.87071300  0.99502200  0.96917700  1
  C  C9  1  0.93367400  0.99821300  0.12775100  1
  C  C10  1  0.06140900  0.99954300  0.16456500  1
  C  C11  1  0.74295800  0.98999300  0.93408300  1
  C  C12  1  0.68184500  0.98121600  0.05655500  1
  C  C13  1  0.74185100  0.99278500  0.21296300  1
  C  C14  1  0.86897100  0.00150700  0.24964500  1
  C  C15  1  0.66716200  0.99404700  0.77152400  1
  C  C16  1  0.33078800  0.00146000  0.67955000  1
  C  C17  1  0.32984300  0.00329100  0.24123000  1
  C  C18  1  0.66628700  0.99597500  0.33368000  1
  C  C19  1  0.39837100  0.29069300  0.47651200  1
  C  C20  1  0.38558100  0.70361100  0.46112600  1
  C  C21  1  0.61427300  0.28912700  0.54401500  1
  C  C22  1  0.60049200  0.71219700  0.54231500  1
  C  C23  1  0.61698200  0.39215600  0.54397800  1
  C  C24  1  0.60963800  0.60974400  0.54477500  1
  C  C25  1  0.50750500  0.44671000  0.50801800  1
  C  C26  1  0.50397300  0.55140300  0.50596900  1
  C  C27  1  0.39763300  0.39392700  0.47277500  1
  C  C28  1  0.39105300  0.60024100  0.46439200  1
  C  C29  1  0.28283900  0.54590100  0.42806700  1
  C  C30  1  0.28597300  0.44410900  0.43355300  1
  C  C31  1  0.26614100  0.75318700  0.40926500  1
  C  C32  1  0.20221900  0.75555500  0.25296500  1
  C  C33  1  0.08989500  0.79461900  0.25723400  1
  C  C34  1  0.09276900  0.81247700  0.41602600  1
  C  C35  1  0.27965400  0.23852100  0.44186900  1
  C  C36  1  0.20955600  0.22395100  0.55429800  1
  C  C37  1  0.09570000  0.19717300  0.47058600  1
  C  C38  1  0.10294700  0.20026800  0.31257300  1
  N  N1  1  0.50612200  0.23957000  0.51093400  1
  N  N2  1  0.48994500  0.75796600  0.50171000  1
  O  O1  1  0.63225900  0.08207000  0.70986300  1
  O  O2  1  0.62028500  0.91008800  0.70695300  1
  O  O3  1  0.36544200  0.91425800  0.63508700  1
  O  O4  1  0.37740500  0.08547200  0.64177800  1
  O  O5  1  0.36439800  0.91548800  0.30328700  1
  O  O6  1  0.37656500  0.08714100  0.30602100  1
  O  O7  1  0.63161000  0.08341700  0.37799000  1
  O  O8  1  0.61957800  0.91170600  0.37114100  1
  O  O9  1  0.19952100  0.78609800  0.50976900  1
  O  O10  1  0.21409100  0.22739200  0.29396900  1
