# generated using pymatgen
data_Fe2H13C42NO19
_symmetry_space_group_name_H-M   'P 1'
_cell_length_a   15.82181900
_cell_length_b   11.97259600
_cell_length_c   13.21926700
_cell_angle_alpha   91.47304600
_cell_angle_beta   87.04797700
_cell_angle_gamma   107.29740200
_symmetry_Int_Tables_number   1
_chemical_formula_structural   Fe2H13C42NO19
_chemical_formula_sum   'Fe2 H13 C42 N1 O19'
_cell_volume   2387.53822602
_cell_formula_units_Z   1
loop_
 _symmetry_equiv_pos_site_id
 _symmetry_equiv_pos_as_xyz
  1  'x, y, z'
loop_
 _atom_site_type_symbol
 _atom_site_label
 _atom_site_symmetry_multiplicity
 _atom_site_fract_x
 _atom_site_fract_y
 _atom_site_fract_z
 _atom_site_occupancy
  Fe  Fe1  1  0.50437000  0.98939000  0.17064500  1
  Fe  Fe2  1  0.51678600  0.98883700  0.74427300  1
  H  H1  1  0.90582600  0.88872900  0.82495600  1
  H  H2  1  0.18255200  0.98651900  0.79656800  1
  H  H3  1  0.03706500  0.98256200  0.83916800  1
  H  H4  1  0.25805500  0.08823400  0.14923100  1
  H  H5  1  0.11750000  0.10664700  0.18444800  1
  H  H6  1  0.81757400  0.09332500  0.17562200  1
  H  H7  1  0.54783900  0.12710700  0.45009200  1
  H  H8  1  0.48199800  0.85531900  0.45219400  1
  H  H9  1  0.51377400  0.41256700  0.62586100  1
  H  H10  1  0.52178500  0.58849700  0.61863200  1
  H  H11  1  0.80468800  0.84554300  0.69254200  1
  H  H12  1  0.93060400  0.18356300  0.28885100  1
  H  H13  1  0.37660200  0.58842100  0.19923900  1
  C  C1  1  0.86421600  0.92273700  0.87601400  1
  C  C2  1  0.28592500  0.02301800  0.90221200  1
  C  C3  1  0.20021800  0.01021700  0.87376500  1
  C  C4  1  0.13560200  0.02264700  0.94454700  1
  C  C5  1  0.04918200  0.00231600  0.91783500  1
  C  C6  1  0.98271200  0.01041100  0.98943500  1
  C  C7  1  0.77863400  0.90154500  0.84887000  1
  C  C8  1  0.71771200  0.93418800  0.91225000  1
  C  C9  1  0.89300600  0.98036500  0.96574200  1
  C  C10  1  0.83044500  0.00418300  0.03424100  1
  C  C11  1  0.74050300  0.97525600  0.01025700  1
  C  C12  1  0.30539200  0.04972600  0.00328600  1
  C  C13  1  0.24159700  0.06719500  0.07129400  1
  C  C14  1  0.15718200  0.05424100  0.04211300  1
  C  C15  1  0.09485100  0.07337500  0.11119000  1
  C  C16  1  0.00722900  0.05178700  0.08601900  1
  C  C17  1  0.94467000  0.07643400  0.15376900  1
  C  C18  1  0.85987000  0.06078500  0.12426800  1
  C  C19  1  0.66928500  0.98047200  0.08775500  1
  C  C20  1  0.49196800  0.77205800  0.27062500  1
  C  C21  1  0.38864900  0.04956600  0.04530600  1
  C  C22  1  0.50243600  0.18615800  0.27983800  1
  C  C23  1  0.51692900  0.80456100  0.62548800  1
  C  C24  1  0.63423000  0.93498800  0.86937900  1
  C  C25  1  0.53288300  0.19942500  0.63991400  1
  C  C26  1  0.35284600  0.00509500  0.82598100  1
  C  C27  1  0.53985900  0.21360200  0.45541400  1
  C  C28  1  0.53389200  0.26680200  0.54796100  1
  C  C29  1  0.51919900  0.37540800  0.55184200  1
  C  C30  1  0.52197800  0.26141500  0.36908500  1
  C  C31  1  0.50411300  0.36707700  0.37278700  1
  C  C32  1  0.50715700  0.42921300  0.46284600  1
  C  C33  1  0.49492100  0.54071400  0.46061700  1
  C  C34  1  0.50278100  0.61171400  0.54708600  1
  C  C35  1  0.49089300  0.72035700  0.54309500  1
  C  C36  1  0.46127700  0.50788500  0.28493400  1
  C  C37  1  0.47821700  0.58399000  0.36836100  1
  C  C38  1  0.47874300  0.70135600  0.36353200  1
  C  C39  1  0.47967400  0.76429800  0.45243700  1
  C  C40  1  0.75426800  0.83884800  0.75271500  1
  C  C41  1  0.96383600  0.12255700  0.25715500  1
  C  C42  1  0.41473000  0.52671700  0.19663000  1
  N  N1  1  0.47804400  0.40477500  0.28862700  1
  O  O1  1  0.59253600  0.98694800  0.05944000  1
  O  O2  1  0.53881100  0.75141800  0.19142600  1
  O  O3  1  0.67738900  0.96237300  0.18378800  1
  O  O4  1  0.47017300  0.86968100  0.27787300  1
  O  O5  1  0.38776500  0.96531800  0.10712400  1
  O  O6  1  0.46041700  0.13825800  0.03104600  1
  O  O7  1  0.56330100  0.14203300  0.23944300  1
  O  O8  1  0.41893100  0.13480800  0.26244700  1
  O  O9  1  0.45685300  0.82998700  0.68644000  1
  O  O10  1  0.59597800  0.88059600  0.61706300  1
  O  O11  1  0.63451500  0.01906600  0.80694900  1
  O  O12  1  0.56240000  0.84639000  0.88385600  1
  O  O13  1  0.33572400  0.99507700  0.72952000  1
  O  O14  1  0.54873500  0.09797400  0.62886000  1
  O  O15  1  0.43040200  0.00161700  0.85439400  1
  O  O16  1  0.50440200  0.23079100  0.72791400  1
  O  O17  1  0.68175000  0.76735200  0.74434200  1
  O  O18  1  0.00478000  0.08019300  0.31307400  1
  O  O19  1  0.41228800  0.46440000  0.12178000  1
