# generated using pymatgen
data_CuH16C12NO5
_symmetry_space_group_name_H-M   'P 1'
_cell_length_a   10.67635700
_cell_length_b   11.04358700
_cell_length_c   9.59192300
_cell_angle_alpha   90.02050300
_cell_angle_beta   90.01143500
_cell_angle_gamma   90.00624000
_symmetry_Int_Tables_number   1
_chemical_formula_structural   CuH16C12NO5
_chemical_formula_sum   'Cu2 H32 C24 N2 O10'
_cell_volume   1130.93824020
_cell_formula_units_Z   2
loop_
 _symmetry_equiv_pos_site_id
 _symmetry_equiv_pos_as_xyz
  1  'x, y, z'
loop_
 _atom_site_type_symbol
 _atom_site_label
 _atom_site_symmetry_multiplicity
 _atom_site_fract_x
 _atom_site_fract_y
 _atom_site_fract_z
 _atom_site_occupancy
  Cu  Cu1  1  0.51382800  0.48273800  0.64831400  1
  Cu  Cu2  1  0.51222300  0.48478400  0.36916400  1
  H  H1  1  0.11136300  0.59830100  0.69062400  1
  H  H2  1  0.11817400  0.43870700  0.73221800  1
  H  H3  1  0.91193400  0.41772500  0.71680300  1
  H  H4  1  0.90309800  0.58133300  0.70678300  1
  H  H5  1  0.13171200  0.66793600  0.44240600  1
  H  H6  1  0.92223900  0.67986900  0.47593700  1
  H  H7  1  0.12308900  0.33574300  0.36072200  1
  H  H8  1  0.10269600  0.28956100  0.53968800  1
  H  H9  1  0.89420100  0.29276900  0.49817400  1
  H  H10  1  0.91611000  0.36703500  0.33220500  1
  H  H11  1  0.11251500  0.55785900  0.30477500  1
  H  H12  1  0.90590500  0.59357300  0.31693800  1
  H  H13  1  0.56755700  0.87072000  0.31347500  1
  H  H14  1  0.50748300  0.09103900  0.29667200  1
  H  H15  1  0.54964200  0.07914600  0.61174500  1
  H  H16  1  0.56717100  0.54772400  0.90559400  1
  H  H17  1  0.53713800  0.30365800  0.13499300  1
  H  H18  1  0.47036500  0.56008800  0.11079700  1
  H  H19  1  0.27626100  0.78566200  0.63256900  1
  H  H20  1  0.28285600  0.88617400  0.48336700  1
  H  H21  1  0.23633600  0.95636100  0.78820000  1
  H  H22  1  0.25241500  0.06235400  0.64507900  1
  H  H23  1  0.07114900  0.96783900  0.52565600  1
  H  H24  1  0.02854800  0.01784700  0.69871900  1
  H  H25  1  0.05629300  0.85886200  0.66580700  1
  H  H26  1  0.27881900  0.28780400  0.77250000  1
  H  H27  1  0.28483700  0.37931800  0.92870800  1
  H  H28  1  0.17370400  0.15472500  0.90610300  1
  H  H29  1  0.32852600  0.11160200  0.96457300  1
  H  H30  1  0.30653600  0.25691300  0.16441300  1
  H  H31  1  0.18480500  0.14376200  0.16315700  1
  H  H32  1  0.15068400  0.29509700  0.10318800  1
  C  C1  1  0.52136800  0.25124300  0.50638000  1
  C  C2  1  0.27220300  0.47803300  0.51167700  1
  C  C3  1  0.50533600  0.71623400  0.51115000  1
  C  C4  1  0.75368500  0.49051300  0.50603000  1
  C  C5  1  0.08244800  0.50636400  0.65693100  1
  C  C6  1  0.94095800  0.49864100  0.65636600  1
  C  C7  1  0.08713100  0.58070900  0.41377100  1
  C  C8  1  0.08050900  0.36070500  0.46194500  1
  C  C9  1  0.13192500  0.48122200  0.51135400  1
  C  C10  1  0.89379200  0.48842200  0.50731000  1
  C  C11  1  0.94597800  0.59330100  0.42360200  1
  C  C12  1  0.93972100  0.37018800  0.44475700  1
  C  C13  1  0.52904300  0.91563300  0.40430500  1
  C  C14  1  0.49057900  0.84830700  0.51284500  1
  C  C15  1  0.51776300  0.04908000  0.39812100  1
  C  C16  1  0.52971500  0.11880400  0.51114800  1
  C  C17  1  0.48820000  0.38940300  0.93526400  1
  C  C18  1  0.51668800  0.38965000  0.08632000  1
  C  C19  1  0.30171500  0.87784100  0.59663700  1
  C  C20  1  0.22292700  0.96955000  0.67462500  1
  C  C21  1  0.08577900  0.95223300  0.63870600  1
  C  C22  1  0.31412500  0.29241900  0.88086800  1
  C  C23  1  0.25923600  0.18630500  0.96066300  1
  C  C24  1  0.22335300  0.22342000  0.10737700  1
  N  N1  1  0.51592000  0.48103100  0.85721700  1
  N  N2  1  0.50853300  0.48629000  0.16042700  1
  O  O1  1  0.51706700  0.30712100  0.62628100  1
  O  O2  1  0.52081400  0.30859200  0.38645600  1
  O  O3  1  0.33151300  0.48061800  0.63147900  1
  O  O4  1  0.33054500  0.47653300  0.39132200  1
  O  O5  1  0.50217200  0.65854500  0.63037500  1
  O  O6  1  0.51295500  0.66058900  0.39113100  1
  O  O7  1  0.69519500  0.49412600  0.62586900  1
  O  O8  1  0.69459000  0.48404500  0.38632000  1
  O  O9  1  0.42848300  0.89942900  0.62322800  1
  O  O10  1  0.44458200  0.28373700  0.87822400  1
