# generated using pymatgen
data_Fe2H31C80N6O20F
_symmetry_space_group_name_H-M   'P 1'
_cell_length_a   16.87702900
_cell_length_b   9.25664200
_cell_length_c   34.77664300
_cell_angle_alpha   95.33370600
_cell_angle_beta   89.08009600
_cell_angle_gamma   69.73188900
_symmetry_Int_Tables_number   1
_chemical_formula_structural   Fe2H31C80N6O20F
_chemical_formula_sum   'Fe2 H31 C80 N6 O20 F1'
_cell_volume   5067.72425970
_cell_formula_units_Z   1
loop_
 _symmetry_equiv_pos_site_id
 _symmetry_equiv_pos_as_xyz
  1  'x, y, z'
loop_
 _atom_site_type_symbol
 _atom_site_label
 _atom_site_symmetry_multiplicity
 _atom_site_fract_x
 _atom_site_fract_y
 _atom_site_fract_z
 _atom_site_occupancy
  Fe  Fe1  1  0.49775200  0.92644000  0.82282900  1
  Fe  Fe2  1  0.50005100  0.07467200  0.17711200  1
  H  H1  1  0.01655700  0.75563900  0.88213800  1
  H  H2  1  0.27901800  0.93194800  0.99345900  1
  H  H3  1  0.98109300  0.24598300  0.11765700  1
  H  H4  1  0.71866700  0.06920900  0.00638000  1
  H  H5  1  0.06587400  0.86214300  0.98693100  1
  H  H6  1  0.93186300  0.13902800  0.01286700  1
  H  H7  1  0.89793700  0.15682600  0.15536300  1
  H  H8  1  0.68709900  0.03506000  0.07287900  1
  H  H9  1  0.65998400  0.01806700  0.94854900  1
  H  H10  1  0.75966200  0.74588000  0.84021600  1
  H  H11  1  0.90299200  0.71538700  0.85781300  1
  H  H12  1  0.09942300  0.84583300  0.84445600  1
  H  H13  1  0.31039200  0.96697100  0.92697400  1
  H  H14  1  0.33773000  0.98267600  0.05134100  1
  H  H15  1  0.23803500  0.25452300  0.15972400  1
  H  H16  1  0.09472100  0.28544700  0.14207100  1
  H  H17  1  0.78041200  0.10553600  0.18501000  1
  H  H18  1  0.21687500  0.89750600  0.81483400  1
  H  H19  1  0.49632700  0.82686200  0.30858500  1
  H  H20  1  0.33794300  0.86999300  0.42281500  1
  H  H21  1  0.49261800  0.64122000  0.71032200  1
  H  H22  1  0.31673200  0.74284100  0.60776400  1
  H  H23  1  0.31538100  0.77903800  0.54199900  1
  H  H24  1  0.33484400  0.84207200  0.48897600  1
  H  H25  1  0.50330000  0.36046300  0.28943000  1
  H  H26  1  0.68644500  0.18558000  0.51377900  1
  H  H27  1  0.68074400  0.15396200  0.57967000  1
  H  H28  1  0.50940900  0.16955200  0.69144700  1
  H  H29  1  0.67229200  0.18470200  0.45570800  1
  H  H30  1  0.50697900  0.61484200  0.19381600  1
  H  H31  1  0.48972200  0.38750700  0.80621600  1
  C  C1  1  0.79515100  0.92701000  0.93843400  1
  C  C2  1  0.86136600  0.84806400  0.91317300  1
  C  C3  1  0.93307400  0.86000200  0.92940300  1
  C  C4  1  0.82848300  0.98024600  0.97047500  1
  C  C5  1  0.00919500  0.81195700  0.91127500  1
  C  C6  1  0.08027600  0.85468300  0.92558600  1
  C  C7  1  0.14034100  0.87537100  0.90179100  1
  C  C8  1  0.19707700  0.91055900  0.92449400  1
  C  C9  1  0.17010100  0.91239200  0.96233900  1
  C  C10  1  0.21234900  0.94914800  0.99652600  1
  C  C11  1  0.16920100  0.02094700  0.02936600  1
  C  C12  1  0.20255700  0.07393700  0.06143500  1
  C  C13  1  0.13633600  0.15295400  0.08668700  1
  C  C14  1  0.06460000  0.14131700  0.07042200  1
  C  C15  1  0.98844500  0.18962500  0.08852600  1
  C  C16  1  0.91728900  0.14713500  0.07421900  1
  C  C17  1  0.85712800  0.12681100  0.09802500  1
  C  C18  1  0.80041800  0.09148600  0.07533200  1
  C  C19  1  0.82750100  0.08922700  0.03748000  1
  C  C20  1  0.78531900  0.05213400  0.00330600  1
  C  C21  1  0.85171500  0.13161800  0.13743700  1
  C  C22  1  0.78525700  0.10078700  0.15387800  1
  C  C23  1  0.72518600  0.06737300  0.13111300  1
  C  C24  1  0.73254500  0.06201800  0.09102300  1
  C  C25  1  0.71287900  0.94869600  0.92916400  1
  C  C26  1  0.70005200  0.88367600  0.89317200  1
  C  C27  1  0.76899700  0.79585600  0.86834800  1
  C  C28  1  0.85049300  0.77912000  0.87796800  1
  C  C29  1  0.14566900  0.87094200  0.86238500  1
  C  C30  1  0.21207700  0.90199100  0.84596100  1
  C  C31  1  0.27219000  0.93520900  0.86873800  1
  C  C32  1  0.26490300  0.94021100  0.90882100  1
  C  C33  1  0.28484100  0.05203000  0.07073300  1
  C  C34  1  0.29767000  0.11684100  0.10675300  1
  C  C35  1  0.22872000  0.20466700  0.13157400  1
  C  C36  1  0.14721700  0.22167200  0.12191900  1
  C  C37  1  0.49019900  0.66068500  0.78788400  1
  C  C38  1  0.34390600  0.95692700  0.84888200  1
  C  C39  1  0.61489500  0.91677700  0.87902000  1
  C  C40  1  0.50556300  0.12059100  0.76671000  1
  C  C41  1  0.49484300  0.87953100  0.23359300  1
  C  C42  1  0.38281700  0.08376900  0.12092000  1
  C  C43  1  0.65352000  0.04557700  0.15099300  1
  C  C44  1  0.50546900  0.34202600  0.21200400  1
  C  C45  1  0.44520600  0.68081300  0.36868800  1
  C  C46  1  0.56497400  0.45669900  0.35716300  1
  C  C47  1  0.50400100  0.46502000  0.27818700  1
  C  C48  1  0.50564500  0.47320300  0.23884100  1
  C  C49  1  0.50107700  0.73522600  0.24954900  1
  C  C50  1  0.49813800  0.72769800  0.28907000  1
  C  C51  1  0.50209400  0.59075500  0.30342300  1
  C  C52  1  0.50484700  0.53889200  0.42178800  1
  C  C53  1  0.44496100  0.66322500  0.40777100  1
  C  C54  1  0.38456200  0.76955100  0.43284000  1
  C  C55  1  0.56557500  0.43491300  0.39613700  1
  C  C56  1  0.50634900  0.60710600  0.22461200  1
  C  C57  1  0.49152600  0.39422700  0.77539100  1
  C  C58  1  0.43686100  0.59772000  0.52508900  1
  C  C59  1  0.56611700  0.37706000  0.51435400  1
  C  C60  1  0.50076500  0.47709300  0.53909600  1
  C  C61  1  0.37016100  0.68980100  0.55058900  1
  C  C62  1  0.36948000  0.66784800  0.58904700  1
  C  C63  1  0.43456500  0.55278600  0.60313200  1
  C  C64  1  0.49941100  0.45662000  0.57823600  1
  C  C65  1  0.56301800  0.34026100  0.59300400  1
  C  C66  1  0.56147500  0.32268200  0.63210600  1
  C  C67  1  0.43465600  0.53319400  0.64206400  1
  C  C68  1  0.49366900  0.53589400  0.72171900  1
  C  C69  1  0.49125700  0.52858700  0.76108900  1
  C  C70  1  0.49943400  0.26442800  0.75055200  1
  C  C71  1  0.50472100  0.27029500  0.71102200  1
  C  C72  1  0.49901700  0.40787200  0.69660800  1
  C  C73  1  0.44041000  0.62265300  0.48607900  1
  C  C74  1  0.50367600  0.51863400  0.46098700  1
  C  C75  1  0.56555600  0.39427600  0.47473200  1
  C  C76  1  0.38243700  0.75049300  0.47144500  1
  C  C77  1  0.62550700  0.30904200  0.40965200  1
  C  C78  1  0.63098500  0.26250000  0.53010600  1
  C  C79  1  0.62903900  0.24429800  0.56880200  1
  C  C80  1  0.62517900  0.28881100  0.44822100  1
  N  N1  1  0.91318100  0.94033000  0.96475600  1
  N  N2  1  0.09834700  0.87766800  0.96284600  1
  N  N3  1  0.08448300  0.06107300  0.03506000  1
  N  N4  1  0.89929500  0.12382400  0.03696000  1
  N  N5  1  0.50454800  0.57734500  0.34401800  1
  N  N6  1  0.49796600  0.41971900  0.65600300  1
  O  O1  1  0.50000600  0.78340000  0.77544600  1
  O  O2  1  0.48276400  0.65458800  0.82526000  1
  O  O3  1  0.41245200  0.95556900  0.86642900  1
  O  O4  1  0.34470000  0.95654000  0.81114800  1
  O  O5  1  0.55298400  0.98737000  0.74846400  1
  O  O6  1  0.60513300  0.83268500  0.84816100  1
  O  O7  1  0.46930800  0.12744600  0.80103100  1
  O  O8  1  0.55263700  0.04215400  0.89302200  1
  O  O9  1  0.52907000  0.87356900  0.19885600  1
  O  O10  1  0.44523500  0.95890100  0.10677700  1
  O  O11  1  0.44857600  0.01235000  0.25239600  1
  O  O12  1  0.39245700  0.16755200  0.15186600  1
  O  O13  1  0.58501800  0.04647900  0.13347000  1
  O  O14  1  0.65280600  0.04592100  0.18872600  1
  O  O15  1  0.49753000  0.21785800  0.22446500  1
  O  O16  1  0.51162700  0.34908400  0.17461700  1
  O  O17  1  0.38421400  0.79831900  0.35500300  1
  O  O18  1  0.37064000  0.62643000  0.66618200  1
  O  O19  1  0.62569200  0.35918500  0.33216600  1
  O  O20  1  0.62494800  0.21204100  0.64663600  1
  F  F1  1  0.68520400  0.20085300  0.38557200  1
