# generated using pymatgen
data_ZnH20C23NO6
_symmetry_space_group_name_H-M   'P 1'
_cell_length_a   17.77039800
_cell_length_b   16.60017500
_cell_length_c   11.91853900
_cell_angle_alpha   90.00000000
_cell_angle_beta   89.99709800
_cell_angle_gamma   90.00000000
_symmetry_Int_Tables_number   1
_chemical_formula_structural   ZnH20C23NO6
_chemical_formula_sum   'Zn2 H40 C46 N2 O12'
_cell_volume   3515.87027470
_cell_formula_units_Z   2
loop_
 _symmetry_equiv_pos_site_id
 _symmetry_equiv_pos_as_xyz
  1  'x, y, z'
loop_
 _atom_site_type_symbol
 _atom_site_label
 _atom_site_symmetry_multiplicity
 _atom_site_fract_x
 _atom_site_fract_y
 _atom_site_fract_z
 _atom_site_occupancy
  Zn  Zn1  1  0.50000000  0.59177300  0.50000000  1
  Zn  Zn2  1  0.50000000  0.40828500  0.50000000  1
  H  H1  1  0.41474600  0.86745500  0.37452600  1
  H  H2  1  0.58526300  0.13260500  0.62546000  1
  H  H3  1  0.58525400  0.86745500  0.62547400  1
  H  H4  1  0.41473700  0.13260500  0.37454000  1
  H  H5  1  0.41577900  0.71938900  0.37604500  1
  H  H6  1  0.58423200  0.28067100  0.62394400  1
  H  H7  1  0.58422100  0.71938900  0.62395400  1
  H  H8  1  0.41576800  0.28067100  0.37605600  1
  H  H9  1  0.73788500  0.59667000  0.38256300  1
  H  H10  1  0.26216900  0.40334800  0.38265300  1
  H  H11  1  0.26211500  0.59667000  0.61743700  1
  H  H12  1  0.73783100  0.40334800  0.61734700  1
  H  H13  1  0.95125600  0.69317500  0.43311300  1
  H  H14  1  0.86457800  0.67401400  0.50723000  1
  H  H15  1  0.87940500  0.74972900  0.27253600  1
  H  H16  1  0.79240600  0.73272600  0.34757700  1
  H  H17  1  0.83694100  0.82192700  0.50166400  1
  H  H18  1  0.83525000  0.87378600  0.36826900  1
  H  H19  1  0.92376800  0.83946300  0.42579600  1
  H  H20  1  0.04884100  0.30673000  0.43322200  1
  H  H21  1  0.13548300  0.32598000  0.50736900  1
  H  H22  1  0.12079900  0.25020200  0.27269700  1
  H  H23  1  0.20775200  0.26726600  0.34782000  1
  H  H24  1  0.16317600  0.17806900  0.50189400  1
  H  H25  1  0.16497200  0.12618800  0.36851800  1
  H  H26  1  0.07640200  0.16046500  0.42593400  1
  H  H27  1  0.04874400  0.69317500  0.56688700  1
  H  H28  1  0.13542100  0.67401400  0.49277000  1
  H  H29  1  0.12059500  0.74972900  0.72746400  1
  H  H30  1  0.20759400  0.73272600  0.65242300  1
  H  H31  1  0.16305900  0.82192700  0.49833600  1
  H  H32  1  0.16474900  0.87378600  0.63173100  1
  H  H33  1  0.07623200  0.83946300  0.57420400  1
  H  H34  1  0.95115800  0.30673000  0.56677800  1
  H  H35  1  0.86451600  0.32598000  0.49263100  1
  H  H36  1  0.87920100  0.25020200  0.72730200  1
  H  H37  1  0.79224800  0.26726600  0.65217900  1
  H  H38  1  0.83682400  0.17806900  0.49810500  1
  H  H39  1  0.83502800  0.12618800  0.63148100  1
  H  H40  1  0.92359800  0.16046500  0.57406500  1
  C  C1  1  0.35286600  0.50002800  0.50003600  1
  C  C2  1  0.64713400  0.50002800  0.49996400  1
  C  C3  1  0.49997900  0.50002900  0.28073600  1
  C  C4  1  0.50002100  0.50002900  0.71926300  1
  C  C5  1  0.45243300  0.83541100  0.42999300  1
  C  C6  1  0.54757200  0.16464900  0.57000000  1
  C  C7  1  0.54756700  0.83541100  0.57000700  1
  C  C8  1  0.45242800  0.16464900  0.43000000  1
  C  C9  1  0.45311000  0.75234400  0.43098800  1
  C  C10  1  0.54689600  0.24771600  0.56900500  1
  C  C11  1  0.54689000  0.75234400  0.56901200  1
  C  C12  1  0.45310400  0.24771600  0.43099500  1
  C  C13  1  0.50000000  0.96373500  0.50000000  1
  C  C14  1  0.50000000  0.03632500  0.50000000  1
  C  C15  1  0.49998400  0.50002900  0.16033700  1
  C  C16  1  0.50001600  0.50002900  0.83966300  1
  C  C17  1  0.49999300  0.50002900  0.05923500  1
  C  C18  1  0.50000600  0.50002900  0.94076500  1
  C  C19  1  0.50000000  0.87728900  0.50000000  1
  C  C20  1  0.50000000  0.12277100  0.50000000  1
  C  C21  1  0.84598000  0.55496000  0.43491300  1
  C  C22  1  0.15405000  0.44501700  0.43498100  1
  C  C23  1  0.15402000  0.55496000  0.56508700  1
  C  C24  1  0.84595000  0.44501700  0.56501900  1
  C  C25  1  0.76823900  0.55486200  0.43528800  1
  C  C26  1  0.23179000  0.44515200  0.43536200  1
  C  C27  1  0.23176100  0.55486200  0.56471100  1
  C  C28  1  0.76821000  0.44515200  0.56463800  1
  C  C29  1  0.72933900  0.50001900  0.49996700  1
  C  C30  1  0.27066000  0.50001900  0.50003300  1
  C  C31  1  0.88501400  0.49998200  0.49997300  1
  C  C32  1  0.11498600  0.49998200  0.50002700  1
  C  C33  1  0.96603000  0.49997300  0.49999100  1
  C  C34  1  0.03396900  0.49997300  0.50000900  1
  C  C35  1  0.89080300  0.67886300  0.42307400  1
  C  C36  1  0.85326100  0.74574900  0.35684400  1
  C  C37  1  0.86302600  0.82540300  0.41727200  1
  C  C38  1  0.10928800  0.32108700  0.42320200  1
  C  C39  1  0.14689800  0.25421100  0.35703000  1
  C  C40  1  0.13714200  0.17456200  0.41747400  1
  C  C41  1  0.10919700  0.67886300  0.57692600  1
  C  C42  1  0.14673900  0.74574900  0.64315600  1
  C  C43  1  0.13697400  0.82540300  0.58272800  1
  C  C44  1  0.89071200  0.32108700  0.57679800  1
  C  C45  1  0.85310200  0.25421100  0.64296900  1
  C  C46  1  0.86285800  0.17456100  0.58252600  1
  N  N1  1  0.50000000  0.71220900  0.50000000  1
  N  N2  1  0.50000000  0.28785000  0.50000000  1
  O  O1  1  0.38787800  0.56964100  0.50116800  1
  O  O2  1  0.61212100  0.43041800  0.50111100  1
  O  O3  1  0.61212200  0.56964100  0.49883200  1
  O  O4  1  0.38787800  0.43041800  0.49888900  1
  O  O5  1  0.49933200  0.56963900  0.33283000  1
  O  O6  1  0.49936600  0.43041900  0.66717000  1
  O  O7  1  0.50066800  0.56963900  0.66717000  1
  O  O8  1  0.50063400  0.43041900  0.33283000  1
  O  O9  1  0.88401300  0.60613800  0.36485900  1
  O  O10  1  0.11604500  0.39380200  0.36495100  1
  O  O11  1  0.11598700  0.60613800  0.63514100  1
  O  O12  1  0.88395500  0.39380200  0.63504900  1
