# generated using pymatgen
data_Zn2H17C33N6O8F9
_symmetry_space_group_name_H-M   'P 1'
_cell_length_a   11.13946000
_cell_length_b   15.92311200
_cell_length_c   17.11259600
_cell_angle_alpha   89.11971600
_cell_angle_beta   89.99654300
_cell_angle_gamma   92.80086300
_symmetry_Int_Tables_number   1
_chemical_formula_structural   Zn2H17C33N6O8F9
_chemical_formula_sum   'Zn2 H17 C33 N6 O8 F9'
_cell_volume   3031.35965085
_cell_formula_units_Z   1
loop_
 _symmetry_equiv_pos_site_id
 _symmetry_equiv_pos_as_xyz
  1  'x, y, z'
loop_
 _atom_site_type_symbol
 _atom_site_label
 _atom_site_symmetry_multiplicity
 _atom_site_fract_x
 _atom_site_fract_y
 _atom_site_fract_z
 _atom_site_occupancy
  Zn  Zn1  1  0.48126300  0.40491200  0.50478000  1
  Zn  Zn2  1  0.50141500  0.59592200  0.50925900  1
  H  H1  1  0.07897700  0.44978100  0.54020300  1
  H  H2  1  0.88320700  0.62482400  0.50544900  1
  H  H3  1  0.89585100  0.43435900  0.48786900  1
  H  H4  1  0.50860200  0.38064700  0.25177300  1
  H  H5  1  0.50578100  0.38965400  0.11120900  1
  H  H6  1  0.45983600  0.35242300  0.89482000  1
  H  H7  1  0.45085700  0.35894700  0.75309500  1
  H  H8  1  0.44962000  0.64362000  0.26464600  1
  H  H9  1  0.44520400  0.65275300  0.12273900  1
  H  H10  1  0.56414500  0.61804400  0.75627700  1
  H  H11  1  0.63257100  0.26806400  0.56232200  1
  H  H12  1  0.62433400  0.11634800  0.56089400  1
  H  H13  1  0.61768600  0.88052900  0.62061600  1
  H  H14  1  0.60575400  0.72675200  0.61869500  1
  H  H15  1  0.30268100  0.27494900  0.44356100  1
  H  H16  1  0.28702300  0.12089900  0.44088200  1
  H  H17  1  0.42643800  0.72997500  0.40375300  1
  C  C1  1  0.49893000  0.49436900  0.65997400  1
  C  C2  1  0.72592100  0.49697700  0.50195600  1
  C  C3  1  0.48408500  0.50645800  0.35408500  1
  C  C4  1  0.25636800  0.50417800  0.51116000  1
  C  C5  1  0.05818600  0.56933200  0.48932900  1
  C  C6  1  0.12406700  0.50532400  0.51464700  1
  C  C7  1  0.92610800  0.56574200  0.49914400  1
  C  C8  1  0.85728800  0.49454600  0.49696400  1
  C  C9  1  0.50501200  0.48997800  0.74559800  1
  C  C10  1  0.54106300  0.56019500  0.78763700  1
  C  C11  1  0.55036900  0.55656300  0.86854700  1
  C  C12  1  0.51605200  0.48120700  0.90774600  1
  C  C13  1  0.48345100  0.41114200  0.86479500  1
  C  C14  1  0.47826500  0.41500100  0.78454300  1
  C  C15  1  0.49391600  0.44651300  0.14345100  1
  C  C16  1  0.49464000  0.44083300  0.22408200  1
  C  C17  1  0.47644700  0.52319700  0.10658200  1
  C  C18  1  0.48007400  0.51143500  0.26848500  1
  C  C19  1  0.46235200  0.58755200  0.23147500  1
  C  C20  1  0.45930500  0.59293500  0.15114000  1
  C  C21  1  0.46880100  0.76483600  0.45065300  1
  C  C22  1  0.47653400  0.85208000  0.44800900  1
  C  C23  1  0.52722100  0.89473900  0.51178200  1
  C  C24  1  0.57527000  0.84852300  0.57186400  1
  C  C25  1  0.56813600  0.76201800  0.57095100  1
  C  C26  1  0.55139700  0.14858200  0.53401900  1
  C  C27  1  0.55667500  0.23529900  0.53515900  1
  C  C28  1  0.45374400  0.10638900  0.49974300  1
  C  C29  1  0.37286800  0.23920800  0.46947700  1
  C  C30  1  0.36394800  0.15260100  0.46794600  1
  C  C31  1  0.11279100  0.64744300  0.45033000  1
  C  C32  1  0.60620300  0.63198600  0.90936800  1
  C  C33  1  0.43841600  0.89587600  0.37409600  1
  N  N1  1  0.51618800  0.47156500  0.99022100  1
  N  N2  1  0.47576500  0.53258500  0.02425900  1
  N  N3  1  0.51378900  0.72159500  0.51127900  1
  N  N4  1  0.53654400  0.98355400  0.51690500  1
  N  N5  1  0.44363700  0.01764700  0.49561600  1
  N  N6  1  0.46858800  0.27920400  0.50275500  1
  O  O1  1  0.48915400  0.42372300  0.62152400  1
  O  O2  1  0.50497100  0.56851300  0.62522400  1
  O  O3  1  0.66222000  0.42539800  0.50131500  1
  O  O4  1  0.67760600  0.57036500  0.50510300  1
  O  O5  1  0.47814800  0.43223500  0.38875400  1
  O  O6  1  0.49361600  0.57703500  0.39255400  1
  O  O7  1  0.30497100  0.43069700  0.50907500  1
  O  O8  1  0.32068500  0.57522700  0.51287500  1
  F  F1  1  0.02318500  0.69339800  0.41728700  1
  F  F2  1  0.18994100  0.62633000  0.39123100  1
  F  F3  1  0.17331500  0.69708500  0.50458900  1
  F  F4  1  0.51774300  0.67733000  0.94332400  1
  F  F5  1  0.66915500  0.68408800  0.85676500  1
  F  F6  1  0.68628000  0.60664900  0.96575600  1
  F  F7  1  0.32680100  0.92851000  0.38430100  1
  F  F8  1  0.43086500  0.84005100  0.31303400  1
  F  F9  1  0.52199200  0.95957600  0.35382400  1
