# generated using pymatgen
data_ZnH18C28N2O5
_symmetry_space_group_name_H-M   'P 1'
_cell_length_a   14.82511200
_cell_length_b   16.03475700
_cell_length_c   17.53283000
_cell_angle_alpha   91.17701600
_cell_angle_beta   99.48802900
_cell_angle_gamma   93.95075700
_symmetry_Int_Tables_number   1
_chemical_formula_structural   ZnH18C28N2O5
_chemical_formula_sum   'Zn2 H36 C56 N4 O10'
_cell_volume   4098.91257307
_cell_formula_units_Z   2
loop_
 _symmetry_equiv_pos_site_id
 _symmetry_equiv_pos_as_xyz
  1  'x, y, z'
loop_
 _atom_site_type_symbol
 _atom_site_label
 _atom_site_symmetry_multiplicity
 _atom_site_fract_x
 _atom_site_fract_y
 _atom_site_fract_z
 _atom_site_occupancy
  Zn  Zn1  1  0.60082400  0.48119500  0.52172500  1
  Zn  Zn2  1  0.40235700  0.52318800  0.48111700  1
  H  H1  1  0.38074500  0.52416400  0.23652700  1
  H  H2  1  0.59223300  0.42994500  0.76019300  1
  H  H3  1  0.41191100  0.54689200  0.98751900  1
  H  H4  1  0.59621000  0.46823000  0.01514200  1
  H  H5  1  0.66433100  0.46167900  0.14428200  1
  H  H6  1  0.36996700  0.59542400  0.86251900  1
  H  H7  1  0.58657600  0.43003400  0.89580500  1
  H  H8  1  0.38418300  0.52137500  0.10121600  1
  H  H9  1  0.74478400  0.01922300  0.54384900  1
  H  H10  1  0.25834100  0.98518300  0.46023700  1
  H  H11  1  0.55328000  0.21637800  0.51119200  1
  H  H12  1  0.44992200  0.78800600  0.49117700  1
  H  H13  1  0.27547500  0.27319900  0.46461500  1
  H  H14  1  0.72766900  0.73120600  0.53906700  1
  H  H15  1  0.77655100  0.87869100  0.54823400  1
  H  H16  1  0.22657800  0.12571500  0.45574300  1
  H  H17  1  0.64407100  0.12606000  0.52750500  1
  H  H18  1  0.35905500  0.87834700  0.47650400  1
  H  H19  1  0.98763300  0.65666000  0.35836400  1
  H  H20  1  0.01411600  0.34253700  0.63923600  1
  H  H21  1  0.77035700  0.53833400  0.47105200  1
  H  H22  1  0.23267100  0.46596900  0.53151800  1
  H  H23  1  0.70200100  0.36420900  0.62840100  1
  H  H24  1  0.30118600  0.63992400  0.37409700  1
  H  H25  1  0.14187100  0.67517300  0.34151500  1
  H  H26  1  0.86075400  0.32686200  0.65888100  1
  H  H27  1  0.86986400  0.59357400  0.41682400  1
  H  H28  1  0.13140200  0.40432000  0.57945300  1
  H  H29  1  0.36288900  0.66722700  0.72796800  1
  H  H30  1  0.20306600  0.65449700  0.62196700  1
  H  H31  1  0.19307100  0.67029800  0.72280900  1
  H  H32  1  0.12918600  0.58311100  0.66683500  1
  H  H33  1  0.74022500  0.48045500  0.28173300  1
  H  H34  1  0.80499400  0.36389900  0.38533200  1
  H  H35  1  0.81444500  0.34401200  0.28500400  1
  H  H36  1  0.75789300  0.26577200  0.33730300  1
  C  C1  1  0.55440200  0.66197300  0.50927800  1
  C  C2  1  0.44877200  0.34241100  0.49367600  1
  C  C3  1  0.51405100  0.49629000  0.35379300  1
  C  C4  1  0.48924600  0.50819100  0.64888400  1
  C  C5  1  0.52013700  0.49316900  0.27054800  1
  C  C6  1  0.48302400  0.51062500  0.73178700  1
  C  C7  1  0.44403800  0.51034200  0.21767600  1
  C  C8  1  0.54322800  0.46704200  0.78188900  1
  C  C9  1  0.44646600  0.50980100  0.13941600  1
  C  C10  1  0.54034500  0.46784400  0.86008300  1
  C  C11  1  0.52624300  0.49363400  0.11216900  1
  C  C12  1  0.47845900  0.51465600  0.89011600  1
  C  C13  1  0.60198800  0.47589200  0.16465700  1
  C  C14  1  0.41865600  0.55852700  0.84009000  1
  C  C15  1  0.59952200  0.47421200  0.24295500  1
  C  C16  1  0.41960300  0.55615100  0.76148700  1
  C  C17  1  0.53396800  0.49113800  0.02919000  1
  C  C18  1  0.47089900  0.51816200  0.97308800  1
  C  C19  1  0.58427300  0.75151100  0.51432300  1
  C  C20  1  0.41889400  0.25288000  0.48879700  1
  C  C21  1  0.70409100  0.85987500  0.53558300  1
  C  C22  1  0.29905000  0.14452700  0.46812600  1
  C  C23  1  0.67634800  0.77631700  0.53041500  1
  C  C24  1  0.32680000  0.22808300  0.47311800  1
  C  C25  1  0.52043000  0.81117700  0.50345400  1
  C  C26  1  0.48274800  0.19321400  0.49947700  1
  C  C27  1  0.54763200  0.89670800  0.50877500  1
  C  C28  1  0.45552800  0.10768900  0.49454400  1
  C  C29  1  0.64067200  0.91935500  0.52500400  1
  C  C30  1  0.36247500  0.08504600  0.47859500  1
  C  C31  1  0.48527900  0.95994300  0.49858900  1
  C  C32  1  0.51787700  0.04445600  0.50482600  1
  C  C33  1  0.61223800  0.06363500  0.52130300  1
  C  C34  1  0.39090400  0.94076800  0.48238300  1
  C  C35  1  0.67199400  0.00191400  0.53108100  1
  C  C36  1  0.33114300  0.00248900  0.47273400  1
  C  C37  1  0.15964400  0.62829800  0.38374100  1
  C  C38  1  0.84306600  0.37418300  0.61708900  1
  C  C39  1  0.24902800  0.60865300  0.40192000  1
  C  C40  1  0.75402900  0.39509100  0.60017500  1
  C  C41  1  0.20798100  0.51080000  0.49001300  1
  C  C42  1  0.79491300  0.49273600  0.51182200  1
  C  C43  1  0.11586300  0.52852500  0.47336100  1
  C  C44  1  0.88660300  0.47341000  0.52689100  1
  C  C45  1  0.09334200  0.58856600  0.41947800  1
  C  C46  1  0.90906600  0.41302400  0.58045000  1
  C  C47  1  0.04628900  0.48903900  0.50889500  1
  C  C48  1  0.95585400  0.51185500  0.49032100  1
  C  C49  1  0.93685300  0.57249500  0.43540200  1
  C  C50  1  0.06492000  0.42709600  0.56255300  1
  C  C51  1  0.00473100  0.60975300  0.40070400  1
  C  C52  1  0.99721400  0.39024500  0.59767000  1
  C  C53  1  0.27236600  0.56954300  0.69911000  1
  C  C54  1  0.19454500  0.62279800  0.67623100  1
  C  C55  1  0.68101700  0.37075900  0.30503500  1
  C  C56  1  0.77028300  0.33386100  0.32973700  1
  N  N1  1  0.27158500  0.55077000  0.45450700  1
  N  N2  1  0.73157900  0.45351800  0.54811800  1
  N  N3  1  0.35907200  0.60443300  0.71344000  1
  N  N4  1  0.67895600  0.45347000  0.29293200  1
  O  O1  1  0.61698400  0.60774000  0.52296000  1
  O  O2  1  0.38620000  0.39665700  0.48025900  1
  O  O3  1  0.46649000  0.63957000  0.49175600  1
  O  O4  1  0.53668300  0.36481800  0.51086000  1
  O  O5  1  0.58610800  0.48219500  0.40482400  1
  O  O6  1  0.41702100  0.52262800  0.59805200  1
  O  O7  1  0.43580900  0.51364700  0.37394800  1
  O  O8  1  0.56744100  0.49034500  0.62893300  1
  O  O9  1  0.25749000  0.49437100  0.70469600  1
  O  O10  1  0.61001000  0.32587500  0.29536000  1
