# generated using pymatgen
data_ZnH11C24NO5
_symmetry_space_group_name_H-M   'P 1'
_cell_length_a   8.53114500
_cell_length_b   11.07826200
_cell_length_c   17.47381100
_cell_angle_alpha   90.85053900
_cell_angle_beta   90.08721800
_cell_angle_gamma   102.56746600
_symmetry_Int_Tables_number   1
_chemical_formula_structural   ZnH11C24NO5
_chemical_formula_sum   'Zn2 H22 C48 N2 O10'
_cell_volume   1611.68963703
_cell_formula_units_Z   2
loop_
 _symmetry_equiv_pos_site_id
 _symmetry_equiv_pos_as_xyz
  1  'x, y, z'
loop_
 _atom_site_type_symbol
 _atom_site_label
 _atom_site_symmetry_multiplicity
 _atom_site_fract_x
 _atom_site_fract_y
 _atom_site_fract_z
 _atom_site_occupancy
  Zn  Zn1  1  0.49501100  0.48860100  0.91468400  1
  Zn  Zn2  1  0.50466000  0.51142200  0.08525100  1
  H  H1  1  0.97615700  0.41440200  0.02834000  1
  H  H2  1  0.02341200  0.58554600  0.97186500  1
  H  H3  1  0.63159200  0.08020500  0.99316900  1
  H  H4  1  0.36814800  0.91987900  0.00624700  1
  H  H5  1  0.28270300  0.11128600  0.00775100  1
  H  H6  1  0.71700100  0.88877100  0.99197400  1
  H  H7  1  0.42854800  0.17845200  0.67622300  1
  H  H8  1  0.61585900  0.82150400  0.32396000  1
  H  H9  1  0.58811800  0.79253900  0.70005400  1
  H  H10  1  0.42996800  0.20744400  0.29992700  1
  H  H11  1  0.40045600  0.07707000  0.55417200  1
  H  H12  1  0.64091200  0.92288100  0.44594700  1
  H  H13  1  0.40211800  0.08753600  0.41436700  1
  H  H14  1  0.63169400  0.91242600  0.58571000  1
  H  H15  1  0.54721500  0.67298800  0.81289500  1
  H  H16  1  0.45800700  0.32706500  0.18702900  1
  H  H17  1  0.21719800  0.16350000  0.75480000  1
  H  H18  1  0.20356100  0.30880400  0.79952700  1
  H  H19  1  0.20795900  0.17472800  0.85720300  1
  H  H20  1  0.41253300  0.83616500  0.24624000  1
  H  H21  1  0.31631100  0.69036900  0.20216200  1
  H  H22  1  0.39363600  0.82446000  0.14405500  1
  C  C1  1  0.07149800  0.25531800  0.01162000  1
  C  C2  1  0.92816600  0.74471500  0.98836900  1
  C  C3  1  0.94852100  0.31638100  0.01848800  1
  C  C4  1  0.05109900  0.68360100  0.98156500  1
  C  C5  1  0.79158900  0.25574900  0.00891500  1
  C  C6  1  0.20806800  0.74425300  0.99092500  1
  C  C7  1  0.75528900  0.12887400  0.99972900  1
  C  C8  1  0.24442100  0.87117300  0.99989500  1
  C  C9  1  0.87784500  0.06453700  0.00064300  1
  C  C10  1  0.12185800  0.93551200  0.99907000  1
  C  C11  1  0.03679700  0.12775000  0.00483400  1
  C  C12  1  0.96289700  0.87229700  0.99498400  1
  C  C13  1  0.84131000  0.93700800  0.99590300  1
  C  C14  1  0.15839400  0.06304600  0.00382500  1
  C  C15  1  0.76559300  0.66877400  0.99264900  1
  C  C16  1  0.23406500  0.33129300  0.00733800  1
  C  C17  1  0.67046200  0.33086500  0.00534100  1
  C  C18  1  0.32918200  0.66912300  0.99453000  1
  C  C19  1  0.46065500  0.37168800  0.77286000  1
  C  C20  1  0.53939900  0.62833900  0.22714800  1
  C  C21  1  0.52389300  0.58837200  0.77925800  1
  C  C22  1  0.48217800  0.41167000  0.22067800  1
  C  C23  1  0.44734900  0.26771400  0.64961800  1
  C  C24  1  0.58326900  0.73223300  0.35048000  1
  C  C25  1  0.46965600  0.37525400  0.69346800  1
  C  C26  1  0.54583600  0.62471400  0.30656000  1
  C  C27  1  0.50255400  0.48789100  0.65752100  1
  C  C28  1  0.51471800  0.51206900  0.34248700  1
  C  C29  1  0.52997800  0.59489400  0.70076800  1
  C  C30  1  0.48317900  0.40509400  0.29919900  1
  C  C31  1  0.56536500  0.70842800  0.66579900  1
  C  C32  1  0.45367400  0.29154900  0.33419200  1
  C  C33  1  0.42381700  0.16618500  0.52698800  1
  C  C34  1  0.61306000  0.83376800  0.47311300  1
  C  C35  1  0.45076700  0.27358300  0.57068500  1
  C  C36  1  0.58092900  0.72635900  0.42940400  1
  C  C37  1  0.48063900  0.38669200  0.53530700  1
  C  C38  1  0.54575100  0.61324900  0.46474800  1
  C  C39  1  0.42464400  0.17205900  0.44822400  1
  C  C40  1  0.60771600  0.82790100  0.55184800  1
  C  C41  1  0.45388300  0.28534300  0.41295400  1
  C  C42  1  0.57172000  0.71461600  0.58707800  1
  C  C43  1  0.50846900  0.49391100  0.57878400  1
  C  C44  1  0.51478000  0.50603400  0.42125100  1
  C  C45  1  0.54201400  0.60725800  0.54353200  1
  C  C46  1  0.48316700  0.39268800  0.45651100  1
  C  C47  1  0.25478600  0.22547500  0.80489800  1
  C  C48  1  0.41394800  0.77397600  0.19618100  1
  N  N1  1  0.48995800  0.47825700  0.81436700  1
  N  N2  1  0.50969400  0.52179900  0.18557500  1
  O  O1  1  0.70801900  0.63536700  0.06068400  1
  O  O2  1  0.29128900  0.36523900  0.93936900  1
  O  O3  1  0.69673100  0.62088000  0.92877100  1
  O  O4  1  0.30326200  0.37882300  0.07118700  1
  O  O5  1  0.62920300  0.36442000  0.93767600  1
  O  O6  1  0.36975900  0.63499700  0.06212000  1
  O  O7  1  0.63098800  0.37909000  0.06959600  1
  O  O8  1  0.36918500  0.62124500  0.93032000  1
  O  O9  1  0.42225300  0.26053200  0.80910200  1
  O  O10  1  0.56189100  0.73952900  0.19100600  1
