# generated using pymatgen
data_Fe2H14(C2O)19
_symmetry_space_group_name_H-M   'P 1'
_cell_length_a   14.32911100
_cell_length_b   11.78616000
_cell_length_c   13.61748000
_cell_angle_alpha   91.16781100
_cell_angle_beta   92.91828000
_cell_angle_gamma   110.16034800
_symmetry_Int_Tables_number   1
_chemical_formula_structural   Fe2H14(C2O)19
_chemical_formula_sum   'Fe2 H14 C38 O19'
_cell_volume   2154.32184722
_cell_formula_units_Z   1
loop_
 _symmetry_equiv_pos_site_id
 _symmetry_equiv_pos_as_xyz
  1  'x, y, z'
loop_
 _atom_site_type_symbol
 _atom_site_label
 _atom_site_symmetry_multiplicity
 _atom_site_fract_x
 _atom_site_fract_y
 _atom_site_fract_z
 _atom_site_occupancy
  Fe  Fe1  1  0.50275500  0.01473200  0.14035800  1
  Fe  Fe2  1  0.50141500  0.00239300  0.71809100  1
  H  H1  1  0.98341800  0.87412300  0.83621100  1
  H  H2  1  0.97719100  0.06693200  0.85059300  1
  H  H3  1  0.82287100  0.07096800  0.77711900  1
  H  H4  1  0.24729100  0.97359300  0.15300900  1
  H  H5  1  0.11359500  0.96644300  0.24865800  1
  H  H6  1  0.79087200  0.95888600  0.19312100  1
  H  H7  1  0.51080500  0.59806300  0.57829200  1
  H  H8  1  0.48462900  0.40801600  0.27157700  1
  H  H9  1  0.43975400  0.40717200  0.58368000  1
  H  H10  1  0.47825900  0.88806200  0.42680900  1
  H  H11  1  0.47401900  0.10717500  0.43588500  1
  H  H12  1  0.10041600  0.93764900  0.68500400  1
  H  H13  1  0.31854300  0.50258000  0.26475300  1
  H  H14  1  0.91823400  0.86920200  0.29762800  1
  C  C1  1  0.23175700  0.94190600  0.85386700  1
  C  C2  1  0.13414900  0.90551800  0.81397600  1
  C  C3  1  0.05789500  0.90782700  0.87051000  1
  C  C4  1  0.91206900  0.03391000  0.89260800  1
  C  C5  1  0.24775000  0.96412300  0.95600800  1
  C  C6  1  0.16810000  0.96200000  0.01235700  1
  C  C7  1  0.07563600  0.94931500  0.96789500  1
  C  C8  1  0.00074900  0.96576300  0.02439900  1
  C  C9  1  0.82522000  0.04245000  0.85185400  1
  C  C10  1  0.74077100  0.00807400  0.90351400  1
  C  C11  1  0.91519300  0.98615900  0.98474900  1
  C  C12  1  0.83518900  0.97338700  0.04299600  1
  C  C13  1  0.74627300  0.98066400  0.00129400  1
  C  C14  1  0.18001100  0.97116700  0.11385100  1
  C  C15  1  0.10196300  0.96554900  0.16961900  1
  C  C16  1  0.01278000  0.96358100  0.12584500  1
  C  C17  1  0.93636600  0.96089600  0.18437000  1
  C  C18  1  0.84721200  0.96072500  0.14313800  1
  C  C19  1  0.65957500  0.96773300  0.05963200  1
  C  C20  1  0.44553500  0.79121600  0.24679300  1
  C  C21  1  0.34844000  0.00165100  0.00524800  1
  C  C22  1  0.45804100  0.16872400  0.26005500  1
  C  C23  1  0.51734500  0.82495200  0.59843800  1
  C  C24  1  0.64514200  0.99368800  0.85220700  1
  C  C25  1  0.47114900  0.19577300  0.61171900  1
  C  C26  1  0.31409300  0.95298600  0.78786100  1
  C  C27  1  0.48593900  0.74402100  0.51105000  1
  C  C28  1  0.48546400  0.62715200  0.51074600  1
  C  C29  1  0.45776600  0.55327200  0.42499400  1
  C  C30  1  0.43218600  0.60281300  0.33889100  1
  C  C31  1  0.44633200  0.72548400  0.33767400  1
  C  C32  1  0.47042400  0.79356800  0.42464000  1
  C  C33  1  0.47482600  0.36752400  0.34212300  1
  C  C34  1  0.47379800  0.25028800  0.34616500  1
  C  C35  1  0.47264500  0.19816100  0.43482900  1
  C  C36  1  0.46583900  0.25717000  0.52023200  1
  C  C37  1  0.45355200  0.36823500  0.51609500  1
  C  C38  1  0.46076200  0.42749900  0.42702200  1
  O  O1  1  0.61317200  0.04643200  0.05142400  1
  O  O2  1  0.41080000  0.73535600  0.16125800  1
  O  O3  1  0.62516600  0.87478200  0.11542000  1
  O  O4  1  0.49088700  0.90917400  0.25381500  1
  O  O5  1  0.37600000  0.92622700  0.05994200  1
  O  O6  1  0.40470500  0.11631800  0.00732700  1
  O  O7  1  0.52666800  0.18183200  0.19663300  1
  O  O8  1  0.38996700  0.06165000  0.26533500  1
  O  O9  1  0.44993500  0.83398500  0.65731400  1
  O  O10  1  0.60167200  0.91598200  0.59711300  1
  O  O11  1  0.63922300  0.06722700  0.78332000  1
  O  O12  1  0.56707300  0.89785500  0.86630500  1
  O  O13  1  0.29540500  0.93300400  0.69253700  1
  O  O14  1  0.51413600  0.11374200  0.60870800  1
  O  O15  1  0.40724900  0.98924400  0.82237300  1
  O  O16  1  0.42994800  0.21589100  0.69100200  1
  O  O17  1  0.11079500  0.86807900  0.71736500  1
  O  O18  1  0.39110900  0.53211200  0.25619900  1
  O  O19  1  0.94765800  0.95625300  0.28431700  1
