# generated using pymatgen
data_CuH36C61(NO3)4
_symmetry_space_group_name_H-M   'P 1'
_cell_length_a   38.90243000
_cell_length_b   38.89452400
_cell_length_c   26.07786100
_cell_angle_alpha   90.00000000
_cell_angle_beta   90.00000000
_cell_angle_gamma   90.00000000
_symmetry_Int_Tables_number   1
_chemical_formula_structural   CuH36C61(NO3)4
_chemical_formula_sum   'Cu4 H144 C244 N16 O48'
_cell_volume   39458.18974670
_cell_formula_units_Z   4
loop_
 _symmetry_equiv_pos_site_id
 _symmetry_equiv_pos_as_xyz
  1  'x, y, z'
loop_
 _atom_site_type_symbol
 _atom_site_label
 _atom_site_symmetry_multiplicity
 _atom_site_fract_x
 _atom_site_fract_y
 _atom_site_fract_z
 _atom_site_occupancy
  Cu  Cu1  1  0.00002500  0.50038100  0.55727600  1
  Cu  Cu2  1  0.99992600  0.49962400  0.45476600  1
  Cu  Cu3  1  0.50016800  0.00006800  0.55759500  1
  Cu  Cu4  1  0.49975200  0.99969200  0.45505900  1
  H  H1  1  0.92928100  0.41786400  0.58735500  1
  H  H2  1  0.07249800  0.58144700  0.58699000  1
  H  H3  1  0.08274000  0.42981300  0.58775000  1
  H  H4  1  0.93179500  0.58467700  0.58536500  1
  H  H5  1  0.43026100  0.91641200  0.58769000  1
  H  H6  1  0.58353800  0.06947300  0.58625200  1
  H  H7  1  0.58238200  0.92897200  0.58735400  1
  H  H8  1  0.43168900  0.08446300  0.58690000  1
  H  H9  1  0.88468100  0.37337300  0.58688600  1
  H  H10  1  0.11611100  0.62591400  0.58561000  1
  H  H11  1  0.12642700  0.38546000  0.58786500  1
  H  H12  1  0.88714300  0.62936600  0.58478200  1
  H  H13  1  0.38591700  0.87182300  0.58687000  1
  H  H14  1  0.62771600  0.11418200  0.58559100  1
  H  H15  1  0.62633700  0.88478000  0.58685900  1
  H  H16  1  0.38731800  0.12909100  0.58639000  1
  H  H17  1  0.92621900  0.45499300  0.96828700  1
  H  H18  1  0.08097300  0.53093300  0.04375600  1
  H  H19  1  0.07441300  0.54417600  0.96817700  1
  H  H20  1  0.91980400  0.46834300  0.04393200  1
  H  H21  1  0.41927300  0.96804100  0.96775900  1
  H  H22  1  0.57372600  0.04477700  0.04461000  1
  H  H23  1  0.58039900  0.03081800  0.96909800  1
  H  H24  1  0.42534200  0.95590600  0.04359500  1
  H  H25  1  0.08140400  0.57129100  0.42362300  1
  H  H26  1  0.91670700  0.43045700  0.42548900  1
  H  H27  1  0.91682600  0.56939900  0.42458800  1
  H  H28  1  0.06905900  0.41551400  0.42598100  1
  H  H29  1  0.56993700  0.08247200  0.42441800  1
  H  H30  1  0.41591200  0.93091100  0.42634100  1
  H  H31  1  0.41582000  0.06902300  0.42607500  1
  H  H32  1  0.56863700  0.91570400  0.42550800  1
  H  H33  1  0.12535100  0.61565900  0.42355000  1
  H  H34  1  0.87221400  0.38617500  0.42581500  1
  H  H35  1  0.87210700  0.61377300  0.42488900  1
  H  H36  1  0.11292200  0.37100500  0.42697100  1
  H  H37  1  0.61395300  0.12736400  0.42483400  1
  H  H38  1  0.37169800  0.88665000  0.42649400  1
  H  H39  1  0.37167900  0.11311600  0.42655800  1
  H  H40  1  0.61280300  0.87112200  0.42589300  1
  H  H41  1  0.24916500  0.62973300  0.49008100  1
  H  H42  1  0.75115600  0.36946000  0.48078000  1
  H  H43  1  0.75112800  0.62892000  0.50144900  1
  H  H44  1  0.24674800  0.36822500  0.53697100  1
  H  H45  1  0.74917500  0.12944500  0.50292700  1
  H  H46  1  0.25063700  0.87014800  0.48848700  1
  H  H47  1  0.25093100  0.12894500  0.50361000  1
  H  H48  1  0.74673900  0.86839100  0.53549200  1
  H  H49  1  0.29262800  0.67154900  0.49089700  1
  H  H50  1  0.70775200  0.32775900  0.48005200  1
  H  H51  1  0.70729600  0.67021500  0.50167300  1
  H  H52  1  0.29052100  0.32673900  0.53662600  1
  H  H53  1  0.79264500  0.17107500  0.50184900  1
  H  H54  1  0.20710100  0.82844100  0.48866400  1
  H  H55  1  0.20716500  0.17032700  0.50446600  1
  H  H56  1  0.79062400  0.82699600  0.53456500  1
  H  H57  1  0.82685600  0.20730800  0.52807500  1
  H  H58  1  0.17198100  0.79349000  0.51751100  1
  H  H59  1  0.17308700  0.20665400  0.47772300  1
  H  H60  1  0.82722500  0.79411500  0.50458700  1
  H  H61  1  0.32716300  0.70658900  0.52100200  1
  H  H62  1  0.67154600  0.29380600  0.50774200  1
  H  H63  1  0.67324700  0.70681300  0.47595000  1
  H  H64  1  0.32723600  0.29402600  0.50692500  1
  H  H65  1  0.00421800  0.55309500  0.37393400  1
  H  H66  1  0.00066800  0.44630200  0.63871100  1
  H  H67  1  0.99552500  0.44523600  0.37297600  1
  H  H68  1  0.99937600  0.55451300  0.63839300  1
  H  H69  1  0.49809700  0.05363100  0.37425300  1
  H  H70  1  0.49603200  0.94626900  0.63910500  1
  H  H71  1  0.49945100  0.94548800  0.37322900  1
  H  H72  1  0.50455900  0.05411800  0.63869300  1
  H  H73  1  0.00442200  0.55390800  0.27916500  1
  H  H74  1  0.00108300  0.44570400  0.73263700  1
  H  H75  1  0.99567000  0.44465600  0.27987300  1
  H  H76  1  0.99932100  0.55530100  0.73228700  1
  H  H77  1  0.49752300  0.05458400  0.28035700  1
  H  H78  1  0.49549000  0.94551600  0.73376300  1
  H  H79  1  0.49940400  0.94493800  0.27932400  1
  H  H80  1  0.50427900  0.05485500  0.73177200  1
  H  H81  1  0.92113000  0.46815400  0.13370900  1
  H  H82  1  0.07315600  0.54399300  0.87855200  1
  H  H83  1  0.07990700  0.53048300  0.13361400  1
  H  H84  1  0.92675800  0.45646800  0.87838300  1
  H  H85  1  0.42603600  0.95653000  0.13326100  1
  H  H86  1  0.57906600  0.03151700  0.87893800  1
  H  H87  1  0.57261300  0.04378900  0.13445400  1
  H  H88  1  0.42038800  0.96900600  0.87831700  1
  H  H89  1  0.91096200  0.25477300  0.46725300  1
  H  H90  1  0.86852400  0.24133500  0.44831200  1
  H  H91  1  0.92122000  0.19780300  0.50759800  1
  H  H92  1  0.87879200  0.18393900  0.48822400  1
  H  H93  1  0.89419800  0.19386700  0.39688400  1
  H  H94  1  0.92312000  0.16365800  0.42716400  1
  H  H95  1  0.93679200  0.20748600  0.41624100  1
  H  H96  1  0.08994300  0.74371700  0.45406800  1
  H  H97  1  0.13289400  0.75688700  0.43746000  1
  H  H98  1  0.07827900  0.80185000  0.49010600  1
  H  H99  1  0.12112900  0.81534000  0.47219000  1
  H  H100  1  0.10812500  0.80216300  0.38090200  1
  H  H101  1  0.07835600  0.83321900  0.40725600  1
  H  H102  1  0.06510000  0.78900800  0.39894200  1
  H  H103  1  0.13327100  0.21929600  0.40676200  1
  H  H104  1  0.14045600  0.26523400  0.40226600  1
  H  H105  1  0.07052400  0.22975900  0.41587900  1
  H  H106  1  0.07785200  0.27549300  0.40958700  1
  H  H107  1  0.10377800  0.26613800  0.32361700  1
  H  H108  1  0.06037900  0.24967900  0.32679900  1
  H  H109  1  0.09637100  0.22033000  0.32975100  1
  H  H110  1  0.87482800  0.78960100  0.44254800  1
  H  H111  1  0.86628700  0.74547800  0.42419900  1
  H  H112  1  0.93569800  0.77436600  0.46004600  1
  H  H113  1  0.92719700  0.73049800  0.44082300  1
  H  H114  1  0.90963800  0.75087800  0.35430100  1
  H  H115  1  0.95309200  0.76377000  0.36975500  1
  H  H116  1  0.91854100  0.79477200  0.37337900  1
  H  H117  1  0.41044900  0.75566200  0.45980300  1
  H  H118  1  0.36769300  0.74267900  0.44177800  1
  H  H119  1  0.42121800  0.69777900  0.49710400  1
  H  H120  1  0.37858000  0.68437000  0.47795900  1
  H  H121  1  0.39294400  0.69666100  0.38699900  1
  H  H122  1  0.42225900  0.66578000  0.41486600  1
  H  H123  1  0.43574700  0.70988500  0.40606600  1
  H  H124  1  0.59208800  0.24250300  0.44151100  1
  H  H125  1  0.63550600  0.25561800  0.42778000  1
  H  H126  1  0.57881500  0.30133100  0.47364600  1
  H  H127  1  0.62218300  0.31470600  0.45870800  1
  H  H128  1  0.61258500  0.29971000  0.36697000  1
  H  H129  1  0.58182400  0.33113100  0.38953300  1
  H  H130  1  0.56902200  0.28672800  0.38209500  1
  H  H131  1  0.63328900  0.71945200  0.40540800  1
  H  H132  1  0.64030700  0.76540700  0.40063200  1
  H  H133  1  0.57056800  0.72971700  0.41490900  1
  H  H134  1  0.57771800  0.77548600  0.40850400  1
  H  H135  1  0.60344500  0.76611500  0.32234800  1
  H  H136  1  0.56003800  0.74962900  0.32574600  1
  H  H137  1  0.59607500  0.72031700  0.32853000  1
  H  H138  1  0.37477000  0.28950500  0.44414000  1
  H  H139  1  0.36618000  0.24531500  0.42629500  1
  H  H140  1  0.43572500  0.27422600  0.46164500  1
  H  H141  1  0.42711500  0.23035400  0.44259000  1
  H  H142  1  0.40933200  0.25062100  0.35615600  1
  H  H143  1  0.45279400  0.26358700  0.37135700  1
  H  H144  1  0.41822000  0.29454200  0.37514000  1
  C  C1  1  0.04618100  0.45277600  0.50654800  1
  C  C2  1  0.95369000  0.54714200  0.50544900  1
  C  C3  1  0.95284100  0.45362300  0.50627300  1
  C  C4  1  0.04704600  0.54627700  0.50575800  1
  C  C5  1  0.54617200  0.95275800  0.50607700  1
  C  C6  1  0.45347700  0.04693000  0.50661800  1
  C  C7  1  0.45289500  0.95353000  0.50677300  1
  C  C8  1  0.54694600  0.04633000  0.50589600  1
  C  C9  1  0.00016100  0.49985000  0.95283800  1
  C  C10  1  0.00051000  0.49927600  0.05928400  1
  C  C11  1  0.49961400  0.00035300  0.95304200  1
  C  C12  1  0.49952600  0.00018400  0.05948600  1
  C  C13  1  0.99755700  0.46934400  0.35253900  1
  C  C14  1  0.99970700  0.53053100  0.65933900  1
  C  C15  1  0.00256200  0.52934100  0.35260400  1
  C  C16  1  0.00033600  0.47033100  0.65955700  1
  C  C17  1  0.49929900  0.96956300  0.35262200  1
  C  C18  1  0.50244300  0.03008200  0.65949700  1
  C  C19  1  0.49855300  0.02973500  0.35307200  1
  C  C20  1  0.49747000  0.97009100  0.66006900  1
  C  C21  1  0.00045300  0.49926100  0.27295300  1
  C  C22  1  0.99995600  0.50054300  0.73908900  1
  C  C23  1  0.49941100  0.99979200  0.27319900  1
  C  C24  1  0.49979700  0.00024900  0.73939100  1
  C  C25  1  0.00067800  0.49892400  0.11262500  1
  C  C26  1  0.00012600  0.49988700  0.89949100  1
  C  C27  1  0.49955300  0.99985600  0.11283100  1
  C  C28  1  0.49975200  0.00017400  0.89969400  1
  C  C29  1  0.97259100  0.48739000  0.13965600  1
  C  C30  1  0.02630400  0.51528100  0.87249300  1
  C  C31  1  0.02880800  0.51041900  0.13959000  1
  C  C32  1  0.97380300  0.48475000  0.87249500  1
  C  C33  1  0.47319600  0.98462600  0.13965700  1
  C  C34  1  0.52782200  0.01182600  0.87279400  1
  C  C35  1  0.52574600  0.01508900  0.14000200  1
  C  C36  1  0.47164700  0.98871400  0.87259000  1
  C  C37  1  0.97288400  0.48764800  0.19267800  1
  C  C38  1  0.02584400  0.51545500  0.81949100  1
  C  C39  1  0.02853000  0.51026700  0.19262800  1
  C  C40  1  0.97388000  0.48532500  0.81945000  1
  C  C41  1  0.47328700  0.98481900  0.19269900  1
  C  C42  1  0.52745200  0.01184200  0.81973000  1
  C  C43  1  0.52526700  0.01492300  0.19301200  1
  C  C44  1  0.47184900  0.98912200  0.81960700  1
  C  C45  1  0.85930500  0.31787000  0.51393200  1
  C  C46  1  0.13990600  0.68248100  0.50877200  1
  C  C47  1  0.13950500  0.31647800  0.49768300  1
  C  C48  1  0.86019500  0.68321600  0.50627400  1
  C  C49  1  0.35952800  0.81752500  0.51180200  1
  C  C50  1  0.63956600  0.18265700  0.50488600  1
  C  C51  1  0.63955700  0.81655100  0.49644300  1
  C  C52  1  0.36011700  0.18309500  0.50811500  1
  C  C53  1  0.81719700  0.35927000  0.49728700  1
  C  C54  1  0.18248000  0.64055100  0.49884700  1
  C  C55  1  0.18103600  0.35794000  0.51718300  1
  C  C56  1  0.81786600  0.64064800  0.50239000  1
  C  C57  1  0.31708700  0.85937100  0.50000900  1
  C  C58  1  0.68236600  0.14047000  0.50480200  1
  C  C59  1  0.68109400  0.85801300  0.51588400  1
  C  C60  1  0.31773700  0.14055000  0.50430100  1
  C  C61  1  0.88470800  0.39319400  0.46129000  1
  C  C62  1  0.11376200  0.60788400  0.45939300  1
  C  C63  1  0.10596400  0.38376100  0.46234500  1
  C  C64  1  0.88514600  0.60716500  0.46013400  1
  C  C65  1  0.38432500  0.89343100  0.46200000  1
  C  C66  1  0.60707000  0.11455900  0.46018500  1
  C  C67  1  0.60607400  0.88398300  0.46126600  1
  C  C68  1  0.38498200  0.10699700  0.46175800  1
  C  C69  1  0.90995100  0.41806100  0.46118800  1
  C  C70  1  0.08875700  0.58283100  0.45969700  1
  C  C71  1  0.08126700  0.40912400  0.46195100  1
  C  C72  1  0.91041100  0.58227600  0.46006100  1
  C  C73  1  0.40951900  0.91830200  0.46198200  1
  C  C74  1  0.58236500  0.08913800  0.46016500  1
  C  C75  1  0.58126000  0.90928700  0.46110300  1
  C  C76  1  0.41009400  0.08207100  0.46167100  1
  C  C77  1  0.91688300  0.41109800  0.55163000  1
  C  C78  1  0.08389600  0.58840700  0.55071100  1
  C  C79  1  0.08882400  0.41703700  0.55212900  1
  C  C80  1  0.91865000  0.59074200  0.54998600  1
  C  C81  1  0.41741900  0.91031600  0.55205100  1
  C  C82  1  0.58990300  0.08203500  0.55055600  1
  C  C83  1  0.58875900  0.91674900  0.55137200  1
  C  C84  1  0.41873900  0.09070400  0.55147300  1
  C  C85  1  0.89184900  0.38596400  0.55151500  1
  C  C86  1  0.10859700  0.61374100  0.55010100  1
  C  C87  1  0.11373400  0.39189400  0.55228800  1
  C  C88  1  0.89368100  0.61593400  0.54980300  1
  C  C89  1  0.39245100  0.88510000  0.55179800  1
  C  C90  1  0.61486500  0.10716600  0.55031000  1
  C  C91  1  0.61378000  0.89172200  0.55131600  1
  C  C92  1  0.39385600  0.11595000  0.55127000  1
  C  C93  1  0.87572100  0.37697900  0.50636600  1
  C  C94  1  0.12368500  0.62337000  0.50451100  1
  C  C95  1  0.12231700  0.37513500  0.50744700  1
  C  C96  1  0.87685400  0.62404500  0.50493100  1
  C  C97  1  0.37573800  0.87679000  0.50683900  1
  C  C98  1  0.62334300  0.12351100  0.50519400  1
  C  C99  1  0.62252200  0.87531700  0.50631700  1
  C  C100  1  0.37693700  0.12408100  0.50644400  1
  C  C101  1  0.80058500  0.30026500  0.50463700  1
  C  C102  1  0.19891300  0.69971500  0.50355600  1
  C  C103  1  0.19834700  0.29934700  0.50672400  1
  C  C104  1  0.80091500  0.69972500  0.50382200  1
  C  C105  1  0.30058700  0.80026700  0.50500500  1
  C  C106  1  0.69874300  0.19974700  0.50416400  1
  C  C107  1  0.69844900  0.79948500  0.50503700  1
  C  C108  1  0.30084400  0.19966000  0.50575600  1
  C  C109  1  0.83472200  0.29181800  0.51229900  1
  C  C110  1  0.16454800  0.70843800  0.50738700  1
  C  C111  1  0.16450500  0.29086900  0.49664500  1
  C  C112  1  0.83522200  0.70882200  0.50498100  1
  C  C113  1  0.33488500  0.79157000  0.51012700  1
  C  C114  1  0.66430300  0.20855500  0.50378900  1
  C  C115  1  0.66460800  0.79100500  0.49508000  1
  C  C116  1  0.33517700  0.20875500  0.50695300  1
  C  C117  1  0.84344000  0.25755800  0.51873900  1
  C  C118  1  0.15562900  0.74285500  0.51063000  1
  C  C119  1  0.15642100  0.25702700  0.48528100  1
  C  C120  1  0.84385900  0.74331800  0.50390900  1
  C  C121  1  0.34374500  0.75716900  0.51402100  1
  C  C122  1  0.65540600  0.24304700  0.50340800  1
  C  C123  1  0.65655900  0.75720800  0.48352900  1
  C  C124  1  0.34383100  0.24328600  0.50600800  1
  C  C125  1  0.79204600  0.33424400  0.49703600  1
  C  C126  1  0.20769400  0.66549600  0.49927400  1
  C  C127  1  0.20642100  0.33314200  0.51698000  1
  C  C128  1  0.79242700  0.66535800  0.50231300  1
  C  C129  1  0.29188700  0.83443700  0.49996800  1
  C  C130  1  0.70756500  0.16544500  0.50457000  1
  C  C131  1  0.70650100  0.83327200  0.51534300  1
  C  C132  1  0.29231100  0.16529800  0.50432400  1
  C  C133  1  0.92609000  0.42716700  0.50638000  1
  C  C134  1  0.07372000  0.57285800  0.50545300  1
  C  C135  1  0.07247900  0.42584700  0.50688900  1
  C  C136  1  0.92714500  0.57385100  0.50512200  1
  C  C137  1  0.42609900  0.92702300  0.50702600  1
  C  C138  1  0.57353700  0.07291500  0.50550400  1
  C  C139  1  0.57254300  0.92588100  0.50615800  1
  C  C140  1  0.42705500  0.07373400  0.50657900  1
  C  C141  1  0.25873100  0.71544200  0.50270700  1
  C  C142  1  0.74087800  0.28437800  0.49876300  1
  C  C143  1  0.74099800  0.71500800  0.50050300  1
  C  C144  1  0.25802200  0.28374600  0.51416200  1
  C  C145  1  0.75861800  0.21547200  0.50645900  1
  C  C146  1  0.24078200  0.78455700  0.50199400  1
  C  C147  1  0.24091500  0.21494700  0.50254900  1
  C  C148  1  0.75812500  0.78391300  0.51215500  1
  C  C149  1  0.21530000  0.75928700  0.50559100  1
  C  C150  1  0.78400200  0.24086200  0.50985800  1
  C  C151  1  0.78398200  0.75907300  0.50795600  1
  C  C152  1  0.21539800  0.24020100  0.49917100  1
  C  C153  1  0.71523200  0.25927400  0.50216100  1
  C  C154  1  0.28414900  0.74073000  0.50688700  1
  C  C155  1  0.28391900  0.25895900  0.51007400  1
  C  C156  1  0.71551600  0.74032800  0.49723000  1
  C  C157  1  0.22435400  0.72487200  0.50388800  1
  C  C158  1  0.77512400  0.27510200  0.50428700  1
  C  C159  1  0.77525100  0.72465900  0.50405000  1
  C  C160  1  0.22397300  0.27437900  0.50661500  1
  C  C161  1  0.72423800  0.22488500  0.50420800  1
  C  C162  1  0.27513800  0.77512600  0.50444400  1
  C  C163  1  0.27518500  0.22458100  0.50602000  1
  C  C164  1  0.72408200  0.77452100  0.50476700  1
  C  C165  1  0.26687200  0.68083600  0.49651100  1
  C  C166  1  0.73312000  0.31868200  0.48915000  1
  C  C167  1  0.73308500  0.68008900  0.50054200  1
  C  C168  1  0.26534600  0.31782400  0.52607100  1
  C  C169  1  0.76681500  0.18068200  0.50454900  1
  C  C170  1  0.23275300  0.81914500  0.49527300  1
  C  C171  1  0.23296900  0.18008400  0.50282300  1
  C  C172  1  0.76543800  0.81801300  0.52416400  1
  C  C173  1  0.24163700  0.65628300  0.49479200  1
  C  C174  1  0.75840700  0.34316500  0.48837400  1
  C  C175  1  0.75850300  0.65570400  0.50141600  1
  C  C176  1  0.23984100  0.34209700  0.52746200  1
  C  C177  1  0.74158600  0.15612500  0.50394400  1
  C  C178  1  0.25804400  0.84364200  0.49405800  1
  C  C179  1  0.25836000  0.15569100  0.50348200  1
  C  C180  1  0.73990500  0.84226200  0.52577600  1
  C  C181  1  0.99760500  0.46890100  0.29983200  1
  C  C182  1  0.99971800  0.53103400  0.71216300  1
  C  C183  1  0.00280900  0.52976600  0.29963700  1
  C  C184  1  0.00034300  0.46995500  0.71238500  1
  C  C185  1  0.49950200  0.96916800  0.29975300  1
  C  C186  1  0.50228200  0.03055200  0.71219700  1
  C  C187  1  0.49871800  0.03025600  0.30026400  1
  C  C188  1  0.49711700  0.96966000  0.71302300  1
  C  C189  1  0.81824100  0.23281200  0.51906500  1
  C  C190  1  0.18079100  0.76765600  0.51113300  1
  C  C191  1  0.18143400  0.23214000  0.48759800  1
  C  C192  1  0.81855500  0.76792100  0.50630800  1
  C  C193  1  0.31854200  0.73239400  0.51393000  1
  C  C194  1  0.68058700  0.26781100  0.50412000  1
  C  C195  1  0.68157100  0.73231500  0.48568300  1
  C  C196  1  0.31850800  0.26784500  0.50856900  1
  C  C197  1  0.94702800  0.46906800  0.95118000  1
  C  C198  1  0.05729900  0.52261100  0.06089600  1
  C  C199  1  0.05337700  0.53045600  0.95111400  1
  C  C200  1  0.94367600  0.47608700  0.06104400  1
  C  C201  1  0.44295400  0.97665600  0.95101300  1
  C  C202  1  0.55274800  0.03084600  0.06154900  1
  C  C203  1  0.55653900  0.02329500  0.95166300  1
  C  C204  1  0.44629000  0.96963400  0.06082200  1
  C  C205  1  0.94394600  0.47645400  0.11361600  1
  C  C206  1  0.05265700  0.53092500  0.89856400  1
  C  C207  1  0.05722400  0.52184500  0.11348700  1
  C  C208  1  0.94745800  0.46909200  0.89857200  1
  C  C209  1  0.44679100  0.96924500  0.11337800  1
  C  C210  1  0.55632000  0.02302100  0.89901300  1
  C  C211  1  0.55210000  0.03091000  0.11414600  1
  C  C212  1  0.44311000  0.97748600  0.89850100  1
  C  C213  1  0.97286200  0.48524100  0.97928300  1
  C  C214  1  0.02862700  0.51223600  0.03282800  1
  C  C215  1  0.02761400  0.51422400  0.97923700  1
  C  C216  1  0.97220500  0.48667200  0.03290200  1
  C  C217  1  0.47137200  0.98751700  0.97929100  1
  C  C218  1  0.52692300  0.01476700  0.03325000  1
  C  C219  1  0.52779700  0.01310100  0.97962800  1
  C  C220  1  0.47213700  0.98583300  0.03288700  1
  C  C221  1  0.88895000  0.23804200  0.47756700  1
  C  C222  1  0.90072500  0.20089000  0.47841000  1
  C  C223  1  0.91461700  0.19086700  0.42621700  1
  C  C224  1  0.11149700  0.76089300  0.46490000  1
  C  C225  1  0.09954400  0.79793500  0.46240300  1
  C  C226  1  0.08696400  0.80606700  0.40880100  1
  C  C227  1  0.12374700  0.24494500  0.41870600  1
  C  C228  1  0.08744200  0.24965000  0.39882500  1
  C  C229  1  0.08703200  0.24620400  0.34094300  1
  C  C230  1  0.88219500  0.76239400  0.44889100  1
  C  C231  1  0.91973500  0.75772400  0.43505800  1
  C  C232  1  0.92557400  0.76744400  0.37945800  1
  C  C233  1  0.38859100  0.73871700  0.47008300  1
  C  C234  1  0.40039200  0.70159500  0.46862600  1
  C  C235  1  0.41371200  0.69296400  0.41560100  1
  C  C236  1  0.61309800  0.26009000  0.45319500  1
  C  C237  1  0.60107600  0.29699500  0.44789600  1
  C  C238  1  0.59045200  0.30404800  0.39298600  1
  C  C239  1  0.62370800  0.74509000  0.41725500  1
  C  C240  1  0.58732900  0.74966200  0.39764900  1
  C  C241  1  0.58673400  0.74618600  0.33976600  1
  C  C242  1  0.38212400  0.26231500  0.45078800  1
  C  C243  1  0.41964200  0.25757400  0.43683600  1
  C  C244  1  0.42530700  0.26723100  0.38119400  1
  N  N1  1  0.00066800  0.49904800  0.21829000  1
  N  N2  1  0.99976100  0.50061800  0.79378900  1
  N  N3  1  0.49916900  0.99998500  0.21851700  1
  N  N4  1  0.49961700  0.00059200  0.79403800  1
  N  N5  1  0.85012000  0.35079300  0.50609100  1
  N  N6  1  0.14931600  0.64940200  0.50396000  1
  N  N7  1  0.14824000  0.34928500  0.50746700  1
  N  N8  1  0.85103500  0.64991900  0.50472300  1
  N  N9  1  0.35018000  0.85061400  0.50636100  1
  N  N10  1  0.64906800  0.14946300  0.50497800  1
  N  N11  1  0.64829800  0.84934500  0.50637300  1
  N  N12  1  0.35095400  0.14981000  0.50640700  1
  N  N13  1  0.99982100  0.49938400  0.37810400  1
  N  N14  1  0.99979100  0.50028300  0.63391700  1
  N  N15  1  0.49931700  0.99969700  0.37841500  1
  N  N16  1  0.50063200  0.00003400  0.63425100  1
  O  O1  1  0.03584800  0.46540600  0.55045200  1
  O  O2  1  0.96423200  0.53468300  0.46156500  1
  O  O3  1  0.96567800  0.53651500  0.54962800  1
  O  O4  1  0.03398100  0.46316200  0.46238600  1
  O  O5  1  0.96339000  0.46574600  0.46220000  1
  O  O6  1  0.03626400  0.53436400  0.54991900  1
  O  O7  1  0.03490100  0.53549300  0.46178700  1
  O  O8  1  0.96519500  0.46414400  0.55019400  1
  O  O9  1  0.53602900  0.96531000  0.55010500  1
  O  O10  1  0.46380400  0.03457500  0.46250200  1
  O  O11  1  0.46594900  0.03650400  0.55061300  1
  O  O12  1  0.53386700  0.96335700  0.46212900  1
  O  O13  1  0.46327100  0.96563700  0.46258700  1
  O  O14  1  0.53657000  0.03423200  0.55015600  1
  O  O15  1  0.53445400  0.03572300  0.46203000  1
  O  O16  1  0.46540100  0.96411900  0.55058800  1
  O  O17  1  0.94501800  0.47734700  0.21895900  1
  O  O18  1  0.05198100  0.52968600  0.79334400  1
  O  O19  1  0.05630500  0.52092300  0.21882900  1
  O  O20  1  0.94766700  0.47122000  0.79328700  1
  O  O21  1  0.44716600  0.97038100  0.21868100  1
  O  O22  1  0.55525600  0.02235000  0.79348400  1
  O  O23  1  0.55144800  0.02885000  0.21941500  1
  O  O24  1  0.44405400  0.97855600  0.79336600  1
  O  O25  1  0.89255400  0.31079500  0.52293600  1
  O  O26  1  0.10639100  0.68973300  0.51476500  1
  O  O27  1  0.10616100  0.30890200  0.49066600  1
  O  O28  1  0.89375500  0.69104700  0.50924600  1
  O  O29  1  0.39296000  0.81022200  0.51864500  1
  O  O30  1  0.60587200  0.19006000  0.50657000  1
  O  O31  1  0.60622500  0.80895400  0.48925900  1
  O  O32  1  0.39368900  0.19085100  0.51098500  1
  O  O33  1  0.19093500  0.60718800  0.49441100  1
  O  O34  1  0.80883500  0.39241900  0.48990300  1
  O  O35  1  0.80968200  0.60710100  0.50104700  1
  O  O36  1  0.18905000  0.39098700  0.52630700  1
  O  O37  1  0.69091700  0.10699800  0.50455900  1
  O  O38  1  0.30864400  0.89270300  0.49509200  1
  O  O39  1  0.30946000  0.10702400  0.50283900  1
  O  O40  1  0.68909000  0.89106900  0.52497100  1
  O  O41  1  0.87676400  0.24735100  0.52611900  1
  O  O42  1  0.12209000  0.75314600  0.51485100  1
  O  O43  1  0.12373200  0.24727700  0.47222700  1
  O  O44  1  0.87733200  0.75388900  0.50047700  1
  O  O45  1  0.37721500  0.74688000  0.51951700  1
  O  O46  1  0.62182300  0.25354500  0.50431900  1
  O  O47  1  0.62383700  0.74747200  0.47074700  1
  O  O48  1  0.37729000  0.25395700  0.50245400  1
