# generated using pymatgen
data_ZnH6(C3O)4
_symmetry_space_group_name_H-M   'P 1'
_cell_length_a   21.48918500
_cell_length_b   14.05710400
_cell_length_c   16.36711700
_cell_angle_alpha   116.96154800
_cell_angle_beta   50.50696000
_cell_angle_gamma   135.50664400
_symmetry_Int_Tables_number   1
_chemical_formula_structural   ZnH6(C3O)4
_chemical_formula_sum   'Zn4 H24 C48 O16'
_cell_volume   2673.91759501
_cell_formula_units_Z   4
loop_
 _symmetry_equiv_pos_site_id
 _symmetry_equiv_pos_as_xyz
  1  'x, y, z'
loop_
 _atom_site_type_symbol
 _atom_site_label
 _atom_site_symmetry_multiplicity
 _atom_site_fract_x
 _atom_site_fract_y
 _atom_site_fract_z
 _atom_site_occupancy
  Zn  Zn1  1  0.08385400  0.62213000  0.43295600  1
  Zn  Zn2  1  0.91480900  0.37476100  0.56773600  1
  Zn  Zn3  1  0.53391900  0.62506900  0.56430300  1
  Zn  Zn4  1  0.46509600  0.37167300  0.43593800  1
  H  H1  1  0.06502900  0.91302000  0.67982700  1
  H  H2  1  0.86148700  0.91778500  0.00797400  1
  H  H3  1  0.85978900  0.58050200  0.87568600  1
  H  H4  1  0.13880500  0.41644400  0.12495600  1
  H  H5  1  0.13738100  0.07936800  0.99251100  1
  H  H6  1  0.93373900  0.08386000  0.32067500  1
  H  H7  1  0.00894000  0.91021300  0.97799800  1
  H  H8  1  0.69320800  0.59321400  0.13252600  1
  H  H9  1  0.84445200  0.86414500  0.31315200  1
  H  H10  1  0.30573400  0.40363500  0.86785300  1
  H  H11  1  0.15449900  0.13270500  0.68721800  1
  H  H12  1  0.98990800  0.08703500  0.02245900  1
  H  H13  1  0.84895400  0.44929900  0.31788100  1
  H  H14  1  0.82226400  0.65085500  0.41150600  1
  H  H15  1  0.82140400  0.65520700  0.58598400  1
  H  H16  1  0.60601400  0.45599600  0.68470500  1
  H  H17  1  0.63245300  0.25389800  0.59128200  1
  H  H18  1  0.63325700  0.24955700  0.41641600  1
  H  H19  1  0.09662700  0.34423300  0.59512500  1
  H  H20  1  0.23069500  0.54739100  0.67641100  1
  H  H21  1  0.28462700  0.74585300  0.59037800  1
  H  H22  1  0.44658000  0.74302800  0.40328100  1
  H  H23  1  0.31158100  0.54003000  0.32195400  1
  H  H24  1  0.25645800  0.34134600  0.40789600  1
  C  C1  1  0.96972200  0.64814700  0.67180500  1
  C  C2  1  0.13386900  0.53367100  0.50779300  1
  C  C3  1  0.86462500  0.46308900  0.49316800  1
  C  C4  1  0.02891600  0.34871700  0.32885000  1
  C  C5  1  0.33173400  0.35879500  0.67470900  1
  C  C6  1  0.59958300  0.46211800  0.50950000  1
  C  C7  1  0.39945400  0.53447500  0.49049600  1
  C  C8  1  0.66727400  0.63792500  0.32557200  1
  C  C9  1  0.94782800  0.72901600  0.76589600  1
  C  C10  1  0.97736100  0.94001700  0.84558200  1
  C  C11  1  0.85843500  0.74878200  0.95286500  1
  C  C12  1  0.00111200  0.86534900  0.75614500  1
  C  C13  1  0.88865400  0.86750300  0.93771400  1
  C  C14  1  0.88350600  0.67466300  0.86557100  1
  C  C15  1  0.05085000  0.26791300  0.23469200  1
  C  C16  1  0.14033000  0.24829200  0.04767200  1
  C  C17  1  0.02147400  0.05702500  0.15489800  1
  C  C18  1  0.11514500  0.32230400  0.13502100  1
  C  C19  1  0.11017300  0.12960300  0.06278600  1
  C  C20  1  0.99765300  0.13160000  0.24437700  1
  C  C21  1  0.94000600  0.90995100  0.14756500  1
  C  C22  1  0.85375700  0.75003500  0.04625700  1
  C  C23  1  0.76259800  0.71469800  0.23005600  1
  C  C24  1  0.94197800  0.85788400  0.05148600  1
  C  C25  1  0.76341000  0.67563300  0.13544900  1
  C  C26  1  0.84925400  0.83273900  0.23696900  1
  C  C27  1  0.14511600  0.24707400  0.95419300  1
  C  C28  1  0.23638000  0.28212600  0.77028000  1
  C  C29  1  0.05888900  0.08708800  0.85285400  1
  C  C30  1  0.23552800  0.32127800  0.86493000  1
  C  C31  1  0.14968700  0.16416100  0.76340800  1
  C  C32  1  0.05689700  0.13927100  0.94894500  1
  C  C33  1  0.78020100  0.56074200  0.45214600  1
  C  C34  1  0.79288000  0.45067700  0.40112600  1
  C  C35  1  0.78940000  0.45313300  0.49684700  1
  C  C36  1  0.77766100  0.56310500  0.54769600  1
  C  C37  1  0.66199700  0.45443300  0.60145900  1
  C  C38  1  0.67474300  0.34412400  0.55058400  1
  C  C39  1  0.67689200  0.34175700  0.45475400  1
  C  C40  1  0.66553700  0.45214800  0.50575300  1
  C  C41  1  0.24814300  0.54574100  0.59601300  1
  C  C42  1  0.17660600  0.43505200  0.55133600  1
  C  C43  1  0.20896900  0.54322800  0.50407900  1
  C  C44  1  0.27950500  0.65432100  0.54883500  1
  C  C45  1  0.36617700  0.65276000  0.44691900  1
  C  C46  1  0.29419600  0.54180900  0.40234900  1
  C  C47  1  0.26263100  0.43350200  0.44960900  1
  C  C48  1  0.33325700  0.54406900  0.49428000  1
  O  O1  1  0.04133500  0.70528700  0.57796700  1
  O  O2  1  0.03624900  0.43088000  0.55713400  1
  O  O3  1  0.16586200  0.62030100  0.45458700  1
  O  O4  1  0.91293800  0.51692000  0.68100900  1
  O  O5  1  0.83276500  0.37646900  0.54623000  1
  O  O6  1  0.08566600  0.47994300  0.31969500  1
  O  O7  1  0.95732700  0.29154700  0.42268700  1
  O  O8  1  0.96222600  0.56596100  0.44374300  1
  O  O9  1  0.40049100  0.48935800  0.68111600  1
  O  O10  1  0.54859900  0.37384000  0.45849100  1
  O  O11  1  0.60068700  0.56727500  0.55622200  1
  O  O12  1  0.34656200  0.29731100  0.58271600  1
  O  O13  1  0.39847800  0.42942500  0.44383300  1
  O  O14  1  0.65238700  0.69938500  0.41756400  1
  O  O15  1  0.59856200  0.50735100  0.31911500  1
  O  O16  1  0.45030900  0.62275500  0.54165800  1
