# generated using pymatgen
data_ZnH9C23(NO5)2
_symmetry_space_group_name_H-M   'P 1'
_cell_length_a   12.71119900
_cell_length_b   17.62761200
_cell_length_c   8.51762900
_cell_angle_alpha   90.00000000
_cell_angle_beta   93.29528300
_cell_angle_gamma   90.00000000
_symmetry_Int_Tables_number   1
_chemical_formula_structural   ZnH9C23(NO5)2
_chemical_formula_sum   'Zn2 H18 C46 N4 O20'
_cell_volume   1905.37315794
_cell_formula_units_Z   2
loop_
 _symmetry_equiv_pos_site_id
 _symmetry_equiv_pos_as_xyz
  1  'x, y, z'
loop_
 _atom_site_type_symbol
 _atom_site_label
 _atom_site_symmetry_multiplicity
 _atom_site_fract_x
 _atom_site_fract_y
 _atom_site_fract_z
 _atom_site_occupancy
  Zn  Zn1  1  0.50000000  0.07728400  0.50000000  1
  Zn  Zn2  1  0.50000000  0.90552900  0.50000000  1
  H  H1  1  0.84649700  0.02835800  0.28470200  1
  H  H2  1  0.15350300  0.02835600  0.71529900  1
  H  H3  1  0.58384200  0.95217600  0.00113900  1
  H  H4  1  0.41615900  0.95217800  0.99886200  1
  H  H5  1  0.76442400  0.54794600  0.54362200  1
  H  H6  1  0.23607900  0.43491900  0.44498600  1
  H  H7  1  0.23557600  0.54794600  0.45636300  1
  H  H8  1  0.76392100  0.43492000  0.55503000  1
  H  H9  1  0.33824900  0.18143000  0.45485900  1
  H  H10  1  0.66198600  0.80141300  0.54238400  1
  H  H11  1  0.66175200  0.18143000  0.54514300  1
  H  H12  1  0.33801400  0.80141300  0.45761400  1
  H  H13  1  0.93526600  0.13008000  0.63393600  1
  H  H14  1  0.06473400  0.13007800  0.36606700  1
  H  H15  1  0.93989200  0.29226100  0.62147300  1
  H  H16  1  0.05989000  0.69102800  0.38561600  1
  H  H17  1  0.06010600  0.29226000  0.37854700  1
  H  H18  1  0.94011200  0.69102700  0.61436400  1
  C  C1  1  0.70712100  0.99218800  0.15610700  1
  C  C2  1  0.29287900  0.99218800  0.84389400  1
  C  C3  1  0.80879200  0.01868200  0.16943900  1
  C  C4  1  0.19120800  0.01868100  0.83056200  1
  C  C5  1  0.86516100  0.02864400  0.03702600  1
  C  C6  1  0.13483900  0.02864300  0.96297400  1
  C  C7  1  0.81257300  0.02259700  0.88786400  1
  C  C8  1  0.18742700  0.02259700  0.11213700  1
  C  C9  1  0.71157800  0.99227100  0.87697700  1
  C  C10  1  0.28842300  0.99227200  0.12302400  1
  C  C11  1  0.66291100  0.97335500  0.01105800  1
  C  C12  1  0.33709000  0.97335600  0.98894300  1
  C  C13  1  0.64061600  0.99136700  0.28995800  1
  C  C14  1  0.35938400  0.99136700  0.71004300  1
  C  C15  1  0.35454500  0.99152600  0.26963100  1
  C  C16  1  0.64545500  0.99152600  0.73037000  1
  C  C17  1  0.59144600  0.21440300  0.52159000  1
  C  C18  1  0.40845800  0.76842600  0.47990000  1
  C  C19  1  0.40855400  0.21440300  0.47841300  1
  C  C20  1  0.59154200  0.76842600  0.52009800  1
  C  C21  1  0.50000000  0.33308800  0.50000100  1
  C  C22  1  0.50000000  0.64974600  0.49999900  1
  C  C23  1  0.59359500  0.29300500  0.51654300  1
  C  C24  1  0.40635700  0.68983100  0.48521000  1
  C  C25  1  0.40640600  0.29300500  0.48346000  1
  C  C26  1  0.59364200  0.68983100  0.51478800  1
  C  C27  1  0.68779100  0.33205800  0.53329200  1
  C  C28  1  0.31209000  0.65077800  0.47124500  1
  C  C29  1  0.31220900  0.33205800  0.46671500  1
  C  C30  1  0.68791000  0.65077800  0.52874900  1
  C  C31  1  0.59459000  0.53124700  0.51907700  1
  C  C32  1  0.40547700  0.45158700  0.47969600  1
  C  C33  1  0.40541000  0.53124700  0.48092100  1
  C  C34  1  0.59452300  0.45158700  0.52030600  1
  C  C35  1  0.50000000  0.57053400  0.49999900  1
  C  C36  1  0.50000000  0.41230000  0.50000100  1
  C  C37  1  0.68772100  0.57297100  0.53404100  1
  C  C38  1  0.31254000  0.40986000  0.46046000  1
  C  C39  1  0.31227900  0.57297100  0.46595200  1
  C  C40  1  0.68746000  0.40986000  0.53954800  1
  C  C41  1  0.85675500  0.05055400  0.74278500  1
  C  C42  1  0.14324400  0.05055300  0.25721600  1
  C  C43  1  0.79085400  0.29391400  0.53957700  1
  C  C44  1  0.20910800  0.68893800  0.46664000  1
  C  C45  1  0.20914600  0.29391300  0.46043500  1
  C  C46  1  0.79089200  0.68893800  0.53334900  1
  N  N1  1  0.97618800  0.03443800  0.06154100  1
  N  N2  1  0.02381200  0.03443600  0.93846000  1
  N  N3  1  0.50000000  0.17682700  0.50000100  1
  N  N4  1  0.50000000  0.80599200  0.50000000  1
  O  O1  1  0.60706400  0.92540400  0.33976000  1
  O  O2  1  0.39284700  0.05732500  0.65996200  1
  O  O3  1  0.39293600  0.92540400  0.66024000  1
  O  O4  1  0.60715300  0.05732500  0.34003900  1
  O  O5  1  0.38980200  0.05646100  0.32476400  1
  O  O6  1  0.61000500  0.92641100  0.67565300  1
  O  O7  1  0.61019900  0.05646100  0.67523700  1
  O  O8  1  0.38999500  0.92641100  0.32434800  1
  O  O9  1  0.83536000  0.01849800  0.61819400  1
  O  O10  1  0.91438400  0.11775200  0.74393700  1
  O  O11  1  0.16463900  0.01849500  0.38180600  1
  O  O12  1  0.08561700  0.11775200  0.25606600  1
  O  O13  1  0.80730100  0.24151500  0.45082700  1
  O  O14  1  0.87378600  0.32298700  0.63504900  1
  O  O15  1  0.19334800  0.74145900  0.55541900  1
  O  O16  1  0.12568400  0.65997000  0.37201900  1
  O  O17  1  0.19270100  0.24151300  0.54918500  1
  O  O18  1  0.12621200  0.32298600  0.36496800  1
  O  O19  1  0.80665000  0.74146000  0.44457000  1
  O  O20  1  0.87431800  0.65997000  0.62796400  1
