# generated using pymatgen
data_ZnH14C24N7O10
_symmetry_space_group_name_H-M   'P 1'
_cell_length_a   16.13530600
_cell_length_b   14.97933400
_cell_length_c   17.83243900
_cell_angle_alpha   90.00000000
_cell_angle_beta   89.98926500
_cell_angle_gamma   90.00000000
_symmetry_Int_Tables_number   1
_chemical_formula_structural   ZnH14C24N7O10
_chemical_formula_sum   'Zn2 H28 C48 N14 O20'
_cell_volume   4310.03155760
_cell_formula_units_Z   2
loop_
 _symmetry_equiv_pos_site_id
 _symmetry_equiv_pos_as_xyz
  1  'x, y, z'
loop_
 _atom_site_type_symbol
 _atom_site_label
 _atom_site_symmetry_multiplicity
 _atom_site_fract_x
 _atom_site_fract_y
 _atom_site_fract_z
 _atom_site_occupancy
  Zn  Zn1  1  0.50055600  0.60060600  0.49694600  1
  Zn  Zn2  1  0.49949100  0.39759900  0.49746800  1
  H  H1  1  0.58165300  0.61062000  0.87528500  1
  H  H2  1  0.58084600  0.38683200  0.11913300  1
  H  H3  1  0.42004900  0.61035700  0.11910900  1
  H  H4  1  0.41913000  0.38852900  0.87523100  1
  H  H5  1  0.66289100  0.62863100  0.63229500  1
  H  H6  1  0.66603800  0.52903400  0.67807000  1
  H  H7  1  0.66247900  0.36963900  0.36198400  1
  H  H8  1  0.66604000  0.46880600  0.31562400  1
  H  H9  1  0.33776700  0.62815800  0.36179600  1
  H  H10  1  0.33430900  0.52855200  0.31604300  1
  H  H11  1  0.33581600  0.37293600  0.63283000  1
  H  H12  1  0.33359500  0.47212500  0.67921100  1
  H  H13  1  0.12029400  0.74828800  0.57714100  1
  H  H14  1  0.05323900  0.79213500  0.51458500  1
  H  H15  1  0.87997000  0.25851600  0.59350000  1
  H  H16  1  0.94714300  0.20899800  0.53406400  1
  H  H17  1  0.87288800  0.75209800  0.56721400  1
  H  H18  1  0.86152300  0.64508100  0.59417300  1
  H  H19  1  0.12666700  0.25345000  0.58320700  1
  H  H20  1  0.13832100  0.36256500  0.60321600  1
  H  H21  1  0.33356200  0.12613200  0.33306700  1
  H  H22  1  0.26519600  0.05565400  0.37342100  1
  H  H23  1  0.66429500  0.86729400  0.66313600  1
  H  H24  1  0.73282100  0.93984900  0.62579000  1
  H  H25  1  0.66925000  0.13489600  0.66184400  1
  H  H26  1  0.56752400  0.14649100  0.64338600  1
  H  H27  1  0.24986800  0.84854800  0.45627400  1
  H  H28  1  0.26338500  0.95189000  0.49190900  1
  C  C1  1  0.33808700  0.50019100  0.49717000  1
  C  C2  1  0.66196300  0.49803000  0.49725700  1
  C  C3  1  0.50006800  0.49839100  0.35007300  1
  C  C4  1  0.49996600  0.49983600  0.64433500  1
  C  C5  1  0.54524900  0.56246400  0.84442300  1
  C  C6  1  0.54475200  0.43528800  0.14997300  1
  C  C7  1  0.45592400  0.56174500  0.14997400  1
  C  C8  1  0.45543400  0.43680600  0.84439300  1
  C  C9  1  0.54720700  0.56209500  0.76707300  1
  C  C10  1  0.54676500  0.43577400  0.22731600  1
  C  C11  1  0.45350700  0.56099700  0.22729400  1
  C  C12  1  0.45297300  0.43770300  0.76708300  1
  C  C13  1  0.50001000  0.49996200  0.72713700  1
  C  C14  1  0.50003600  0.49830400  0.26725600  1
  C  C15  1  0.50050800  0.49946000  0.88296200  1
  C  C16  1  0.50044700  0.49861200  0.11141800  1
  C  C17  1  0.50066300  0.49916500  0.96341000  1
  C  C18  1  0.50064100  0.49887600  0.03097000  1
  C  C19  1  0.95614900  0.57878700  0.49687000  1
  C  C20  1  0.04391000  0.41994100  0.50193500  1
  C  C21  1  0.04205200  0.58026400  0.49574200  1
  C  C22  1  0.95802700  0.41836600  0.50106200  1
  C  C23  1  0.91454300  0.49803700  0.49855100  1
  C  C24  1  0.08551900  0.50057700  0.49834600  1
  C  C25  1  0.82548100  0.49763700  0.49792900  1
  C  C26  1  0.17457600  0.50081700  0.49771500  1
  C  C27  1  0.24924900  0.50065700  0.49738400  1
  C  C28  1  0.75080700  0.49764000  0.49755000  1
  C  C29  1  0.43401800  0.95188600  0.46837900  1
  C  C30  1  0.56474400  0.04611400  0.53036300  1
  C  C31  1  0.56841600  0.95374300  0.52626300  1
  C  C32  1  0.43068400  0.04429300  0.47141500  1
  C  C33  1  0.50269500  0.90721000  0.49522200  1
  C  C34  1  0.49644300  0.09098900  0.50237800  1
  C  C35  1  0.50198900  0.81132200  0.49589400  1
  C  C36  1  0.49768600  0.18689000  0.49980100  1
  C  C37  1  0.60237600  0.62711300  0.73084300  1
  C  C38  1  0.60177000  0.37068200  0.26357800  1
  C  C39  1  0.39857400  0.62630100  0.26343500  1
  C  C40  1  0.39725500  0.37325100  0.73088200  1
  C  C41  1  0.08727300  0.66568400  0.49391500  1
  C  C42  1  0.91287900  0.33301700  0.50498300  1
  C  C43  1  0.90845700  0.66197900  0.49057100  1
  C  C44  1  0.09157600  0.33641700  0.50093700  1
  C  C45  1  0.35972800  0.09309500  0.43939900  1
  C  C46  1  0.63957100  0.90457400  0.55752800  1
  C  C47  1  0.63574800  0.09774800  0.55823000  1
  C  C48  1  0.36369900  0.89917900  0.44084700  1
  N  N1  1  0.49866300  0.26409600  0.49805500  1
  N  N2  1  0.50136300  0.73410100  0.49641700  1
  N  N3  1  0.66943500  0.59816700  0.68454100  1
  N  N4  1  0.66909100  0.39960200  0.30954700  1
  N  N5  1  0.33124100  0.59770000  0.30955200  1
  N  N6  1  0.32989500  0.40296100  0.68530900  1
  N  N7  1  0.06713000  0.73502500  0.54570300  1
  N  N8  1  0.93311400  0.26885100  0.56124900  1
  N  N9  1  0.85373300  0.68904100  0.54929600  1
  N  N10  1  0.14608500  0.31460900  0.56131800  1
  N  N11  1  0.32817800  0.06983500  0.36722800  1
  N  N12  1  0.66983000  0.92503900  0.63074600  1
  N  N13  1  0.62681900  0.15575800  0.62127900  1
  N  N14  1  0.29097500  0.88934500  0.48575200  1
  O  O1  1  0.37694500  0.57699600  0.49721900  1
  O  O2  1  0.62310900  0.42120700  0.49757500  1
  O  O3  1  0.62386900  0.57527200  0.49691800  1
  O  O4  1  0.37617700  0.42294100  0.49716600  1
  O  O5  1  0.50035100  0.57542600  0.38529600  1
  O  O6  1  0.49950600  0.42280500  0.60911500  1
  O  O7  1  0.50045500  0.57666900  0.60879600  1
  O  O8  1  0.49979300  0.42152300  0.38560900  1
  O  O9  1  0.59746000  0.70566200  0.74818400  1
  O  O10  1  0.59650300  0.29206900  0.24652700  1
  O  O11  1  0.40389900  0.70482700  0.24611900  1
  O  O12  1  0.40202600  0.29451900  0.74766200  1
  O  O13  1  0.14313600  0.67730800  0.44886800  1
  O  O14  1  0.85702700  0.31708200  0.46088400  1
  O  O15  1  0.91697600  0.70947300  0.43555900  1
  O  O16  1  0.08315400  0.28416000  0.44905100  1
  O  O17  1  0.32805400  0.15457500  0.47390800  1
  O  O18  1  0.67203800  0.84465200  0.52171400  1
  O  O19  1  0.70337100  0.08965400  0.52842700  1
  O  O20  1  0.36941100  0.85873800  0.38171100  1
