# generated using pymatgen
data_ZnH19C18NO6
_symmetry_space_group_name_H-M   'P 1'
_cell_length_a   16.01410800
_cell_length_b   10.76607600
_cell_length_c   9.58741600
_cell_angle_alpha   90.06343900
_cell_angle_beta   89.97974300
_cell_angle_gamma   89.99731000
_symmetry_Int_Tables_number   1
_chemical_formula_structural   ZnH19C18NO6
_chemical_formula_sum   'Zn2 H38 C36 N2 O12'
_cell_volume   1652.95668195
_cell_formula_units_Z   2
loop_
 _symmetry_equiv_pos_site_id
 _symmetry_equiv_pos_as_xyz
  1  'x, y, z'
loop_
 _atom_site_type_symbol
 _atom_site_label
 _atom_site_symmetry_multiplicity
 _atom_site_fract_x
 _atom_site_fract_y
 _atom_site_fract_z
 _atom_site_occupancy
  Zn  Zn1  1  0.50274800  0.50096800  0.65111400  1
  Zn  Zn2  1  0.50300800  0.50052900  0.33317300  1
  H  H1  1  0.05505800  0.30447200  0.40395900  1
  H  H2  1  0.95274100  0.33585900  0.64102800  1
  H  H3  1  0.94953100  0.46954100  0.25600800  1
  H  H4  1  0.95005300  0.69963200  0.57774100  1
  H  H5  1  0.05555800  0.53471500  0.72588500  1
  H  H6  1  0.44158100  0.10064900  0.69296900  1
  H  H7  1  0.55313800  0.10564800  0.70522200  1
  H  H8  1  0.55856100  0.89813800  0.69806600  1
  H  H9  1  0.44544300  0.89553300  0.69571300  1
  H  H10  1  0.36862000  0.10310300  0.47523000  1
  H  H11  1  0.36989500  0.89399200  0.46542700  1
  H  H12  1  0.57207100  0.09720100  0.30283400  1
  H  H13  1  0.63783300  0.89860400  0.47951000  1
  H  H14  1  0.58586400  0.89305900  0.31332500  1
  H  H15  1  0.42296200  0.10726500  0.31066900  1
  H  H16  1  0.42896700  0.89970900  0.30492000  1
  H  H17  1  0.44328700  0.32543100  0.09839500  1
  H  H18  1  0.55535200  0.32094100  0.11774900  1
  H  H19  1  0.57615800  0.33903700  0.88654900  1
  H  H20  1  0.46555500  0.31035200  0.86862300  1
  H  H21  1  0.37019600  0.52052800  0.11489700  1
  H  H22  1  0.37192700  0.48048200  0.88720900  1
  H  H23  1  0.58012100  0.65636300  0.11936100  1
  H  H24  1  0.63149900  0.50888200  0.09618200  1
  H  H25  1  0.62913500  0.54984700  0.86803400  1
  H  H26  1  0.55583100  0.67551000  0.88819600  1
  H  H27  1  0.42969400  0.66188100  0.09616900  1
  H  H28  1  0.40880800  0.63734300  0.86400200  1
  H  H29  1  0.75878400  0.24934800  0.64321900  1
  H  H30  1  0.81524600  0.12115300  0.56405800  1
  H  H31  1  0.73317200  0.12134300  0.85362100  1
  H  H32  1  0.84375100  0.13599600  0.81760400  1
  H  H33  1  0.78948000  0.99342600  0.77467400  1
  H  H34  1  0.14841900  0.89189300  0.24637900  1
  H  H35  1  0.12603300  0.79623500  0.09486700  1
  H  H36  1  0.28757300  0.78503000  0.26558000  1
  H  H37  1  0.27449700  0.86969200  0.10367700  1
  H  H38  1  0.26412000  0.70226000  0.10590300  1
  C  C1  1  0.50270000  0.25764900  0.49315400  1
  C  C2  1  0.33963800  0.50179100  0.49211000  1
  C  C3  1  0.50350100  0.74386200  0.49128500  1
  C  C4  1  0.66605300  0.50019400  0.49213700  1
  C  C5  1  0.97645100  0.41121000  0.57290500  1
  C  C6  1  0.03033000  0.39410900  0.44336100  1
  C  C7  1  0.24992600  0.50269400  0.49130400  1
  C  C8  1  0.75566100  0.49990800  0.49259900  1
  C  C9  1  0.03056400  0.51999600  0.61928100  1
  C  C10  1  0.08313200  0.50291800  0.48970100  1
  C  C11  1  0.97462600  0.60962200  0.53914700  1
  C  C12  1  0.92226200  0.50069000  0.49256700  1
  C  C13  1  0.02804000  0.59090500  0.41069800  1
  C  C14  1  0.97433400  0.48345500  0.36287200  1
  C  C15  1  0.17462100  0.50320000  0.49019100  1
  C  C16  1  0.83090700  0.49991500  0.49299600  1
  C  C17  1  0.50039300  0.07032000  0.64211000  1
  C  C18  1  0.50208500  0.92991300  0.64139100  1
  C  C19  1  0.42533000  0.07153300  0.41902900  1
  C  C20  1  0.57899100  0.07089800  0.41401900  1
  C  C21  1  0.50279000  0.11883500  0.49302300  1
  C  C22  1  0.50365600  0.88273000  0.49202900  1
  C  C23  1  0.42717300  0.93071100  0.41520700  1
  C  C24  1  0.58208800  0.93022600  0.42105300  1
  C  C25  1  0.50253900  0.37294800  0.07114300  1
  C  C26  1  0.51297000  0.37354300  0.91395000  1
  C  C27  1  0.42742100  0.56165300  0.06959300  1
  C  C28  1  0.57462800  0.56313700  0.07101700  1
  C  C29  1  0.42296200  0.54632500  0.91262700  1
  C  C30  1  0.56845900  0.57695900  0.91427800  1
  C  C31  1  0.65870200  0.12748900  0.46517700  1
  C  C32  1  0.76419800  0.14679800  0.63685800  1
  C  C33  1  0.78397200  0.09599300  0.78028100  1
  C  C34  1  0.05479300  0.69381200  0.31694100  1
  C  C35  1  0.16055800  0.80128300  0.19502100  1
  C  C36  1  0.25296000  0.78887200  0.16563100  1
  N  N1  1  0.50121700  0.49950700  0.12429500  1
  N  N2  1  0.50181300  0.49870000  0.85989100  1
  O  O1  1  0.50241600  0.31575300  0.61355900  1
  O  O2  1  0.50254400  0.31566000  0.37274500  1
  O  O3  1  0.37829700  0.50096400  0.61283200  1
  O  O4  1  0.37861300  0.50137400  0.37177600  1
  O  O5  1  0.50312500  0.68576300  0.61157300  1
  O  O6  1  0.50319900  0.68583300  0.37064600  1
  O  O7  1  0.62713000  0.49979400  0.61244000  1
  O  O8  1  0.62741800  0.50036300  0.37155100  1
  O  O9  1  0.69669600  0.19894000  0.38968200  1
  O  O10  1  0.69024400  0.09717100  0.59103100  1
  O  O11  1  0.00261200  0.76507100  0.27040500  1
  O  O12  1  0.13567400  0.70654500  0.28105600  1
