# generated using pymatgen
data_CuH16C24(NO2)3
_symmetry_space_group_name_H-M   'P 1'
_cell_length_a   10.92289300
_cell_length_b   16.04850300
_cell_length_c   14.61309100
_cell_angle_alpha   90.00927300
_cell_angle_beta   90.01730200
_cell_angle_gamma   89.98728800
_symmetry_Int_Tables_number   1
_chemical_formula_structural   CuH16C24(NO2)3
_chemical_formula_sum   'Cu2 H32 C48 N6 O12'
_cell_volume   2561.61737139
_cell_formula_units_Z   2
loop_
 _symmetry_equiv_pos_site_id
 _symmetry_equiv_pos_as_xyz
  1  'x, y, z'
loop_
 _atom_site_type_symbol
 _atom_site_label
 _atom_site_symmetry_multiplicity
 _atom_site_fract_x
 _atom_site_fract_y
 _atom_site_fract_z
 _atom_site_occupancy
  Cu  Cu1  1  0.49750300  0.50104000  0.59117100  1
  Cu  Cu2  1  0.50331800  0.49971900  0.40835700  1
  H  H1  1  0.22736700  0.53743800  0.07748100  1
  H  H2  1  0.77345600  0.46331900  0.92204700  1
  H  H3  1  0.23759000  0.65562200  0.18361800  1
  H  H4  1  0.76323400  0.34513500  0.81591000  1
  H  H5  1  0.16017400  0.64130900  0.34071600  1
  H  H6  1  0.84064900  0.35944900  0.65881100  1
  H  H7  1  0.06715100  0.38823900  0.28742500  1
  H  H8  1  0.93366900  0.61251900  0.71210300  1
  H  H9  1  0.88127500  0.50465500  0.35799800  1
  H  H10  1  0.11954600  0.49610500  0.64152900  1
  H  H11  1  0.45174500  0.92036700  0.63836600  1
  H  H12  1  0.54907700  0.08039300  0.36116200  1
  H  H13  1  0.51873000  0.63215800  0.08466300  1
  H  H14  1  0.48209100  0.36860200  0.91486500  1
  H  H15  1  0.51130500  0.63334700  0.91642500  1
  H  H16  1  0.48951700  0.36741300  0.08310300  1
  H  H17  1  0.20651000  0.38733800  0.06207400  1
  H  H18  1  0.10908300  0.28419700  0.98170100  1
  H  H19  1  0.95937100  0.32774700  0.95901600  1
  H  H20  1  0.97538100  0.24009800  0.03573600  1
  H  H21  1  0.79431100  0.61341900  0.93745500  1
  H  H22  1  0.89173800  0.71656000  0.01782700  1
  H  H23  1  0.02543900  0.76066000  0.96379200  1
  H  H24  1  0.04145100  0.67301100  0.04051100  1
  H  H25  1  0.38768300  0.13785200  0.65712500  1
  H  H26  1  0.51542600  0.20500400  0.78289700  1
  H  H27  1  0.58519600  0.12843300  0.85733500  1
  H  H28  1  0.42058100  0.13041700  0.84317400  1
  H  H29  1  0.61313700  0.86290800  0.34240300  1
  H  H30  1  0.48540000  0.79576100  0.21662400  1
  H  H31  1  0.58025000  0.87034800  0.15635300  1
  H  H32  1  0.41563600  0.87233500  0.14218600  1
  C  C1  1  0.49728700  0.34046000  0.50064500  1
  C  C2  1  0.50353300  0.66029900  0.49888300  1
  C  C3  1  0.26431000  0.50309700  0.49572200  1
  C  C4  1  0.73651100  0.49766300  0.50380500  1
  C  C5  1  0.19993900  0.59686200  0.20629700  1
  C  C6  1  0.80088400  0.40389500  0.79323000  1
  C  C7  1  0.15715800  0.58870100  0.29455400  1
  C  C8  1  0.84366400  0.41205700  0.70497300  1
  C  C9  1  0.11029800  0.51342400  0.32378600  1
  C  C10  1  0.89052300  0.48733400  0.67574100  1
  C  C11  1  0.10335300  0.44714300  0.26384100  1
  C  C12  1  0.89746800  0.55361500  0.73568700  1
  C  C13  1  0.14389400  0.45563800  0.17465400  1
  C  C14  1  0.85692700  0.54512000  0.82487400  1
  C  C15  1  0.19398700  0.53037100  0.14666500  1
  C  C16  1  0.80683500  0.47038600  0.85286300  1
  C  C17  1  0.93232400  0.50179600  0.42122100  1
  C  C18  1  0.06849700  0.49896300  0.57830700  1
  C  C19  1  0.87213300  0.49720400  0.50438100  1
  C  C20  1  0.12868800  0.50355500  0.49514600  1
  C  C21  1  0.94248600  0.49523100  0.58394100  1
  C  C22  1  0.05833500  0.50552800  0.41558700  1
  C  C23  1  0.47423400  0.95580500  0.57774000  1
  C  C24  1  0.52658800  0.04495600  0.42178700  1
  C  C25  1  0.50410200  0.91431800  0.49816200  1
  C  C26  1  0.49671900  0.08644200  0.50136500  1
  C  C27  1  0.52939800  0.95887800  0.41933400  1
  C  C28  1  0.47142300  0.04188200  0.58019300  1
  C  C29  1  0.50441100  0.82480500  0.49797400  1
  C  C30  1  0.49640900  0.17595500  0.50155400  1
  C  C31  1  0.49656900  0.25104900  0.50132000  1
  C  C32  1  0.50425100  0.74971100  0.49820800  1
  C  C33  1  0.50628100  0.57492400  0.95303700  1
  C  C34  1  0.49454100  0.42583600  0.04649000  1
  C  C35  1  0.49568200  0.50107700  0.90542300  1
  C  C36  1  0.50514000  0.49968300  0.09410500  1
  C  C37  1  0.48990500  0.42652900  0.95217100  1
  C  C38  1  0.51091700  0.57423000  0.04735600  1
  C  C39  1  0.49375200  0.50159200  0.80719300  1
  C  C40  1  0.50706900  0.49916700  0.19233500  1
  C  C41  1  0.03149800  0.35704000  0.09085800  1
  C  C42  1  0.01844400  0.29876700  0.01186700  1
  C  C43  1  0.96932300  0.64371800  0.90867000  1
  C  C44  1  0.98237700  0.70199000  0.98766100  1
  C  C45  1  0.52028700  0.08099800  0.72995000  1
  C  C46  1  0.50961400  0.13999000  0.80826100  1
  C  C47  1  0.48054000  0.91976600  0.26957500  1
  C  C48  1  0.49121500  0.86077600  0.19126200  1
  N  N1  1  0.50747000  0.49896700  0.27152400  1
  N  N2  1  0.49335100  0.50179200  0.72800300  1
  N  N3  1  0.14302900  0.38694500  0.11406400  1
  N  N4  1  0.85779200  0.61381300  0.88546400  1
  N  N5  1  0.43711700  0.08342500  0.66163000  1
  N  N6  1  0.56370600  0.91733500  0.33789700  1
  O  O1  1  0.49118900  0.37993400  0.57887500  1
  O  O2  1  0.50963100  0.62082600  0.42065200  1
  O  O3  1  0.50485600  0.37866400  0.42178900  1
  O  O4  1  0.49596500  0.62209500  0.57773900  1
  O  O5  1  0.32008400  0.50555200  0.57524200  1
  O  O6  1  0.68073600  0.49520700  0.42428600  1
  O  O7  1  0.32501900  0.49853500  0.41849700  1
  O  O8  1  0.67580200  0.50222400  0.58103100  1
  O  O9  1  0.94039100  0.37815700  0.13310500  1
  O  O10  1  0.06043000  0.62260100  0.86642200  1
  O  O11  1  0.60509100  0.03163100  0.72760400  1
  O  O12  1  0.39573700  0.96913400  0.27191900  1
