# generated using pymatgen
data_Cu3H8C23(NO4)6
_symmetry_space_group_name_H-M   'P 1'
_cell_length_a   19.13392300
_cell_length_b   18.76184800
_cell_length_c   18.80166500
_cell_angle_alpha   108.93600900
_cell_angle_beta   110.26214900
_cell_angle_gamma   109.52784000
_symmetry_Int_Tables_number   1
_chemical_formula_structural   Cu3H8C23(NO4)6
_chemical_formula_sum   'Cu6 H16 C46 N12 O48'
_cell_volume   5175.17305855
_cell_formula_units_Z   2
loop_
 _symmetry_equiv_pos_site_id
 _symmetry_equiv_pos_as_xyz
  1  'x, y, z'
loop_
 _atom_site_type_symbol
 _atom_site_label
 _atom_site_symmetry_multiplicity
 _atom_site_fract_x
 _atom_site_fract_y
 _atom_site_fract_z
 _atom_site_occupancy
  Cu  Cu1  1  0.47970400  0.43615400  0.44447500  1
  Cu  Cu2  1  0.47020100  0.53761700  0.56952200  1
  Cu  Cu3  1  0.93753900  0.44631600  0.99162200  1
  Cu  Cu4  1  0.06424100  0.56048500  0.98992800  1
  Cu  Cu5  1  0.03018700  0.97055200  0.54895400  1
  Cu  Cu6  1  0.90800600  0.97204800  0.42702200  1
  H  H1  1  0.66817000  0.64697400  0.74842800  1
  H  H2  1  0.86588300  0.76110100  0.00998800  1
  H  H3  1  0.89963700  0.64844200  0.96867100  1
  H  H4  1  0.13316200  0.16747800  0.43295300  1
  H  H5  1  0.32070900  0.35798500  0.61090400  1
  H  H6  1  0.09155800  0.36680900  0.14738500  1
  H  H7  1  0.24326100  0.54016500  0.20679300  1
  H  H8  1  0.21881400  0.35559600  0.23854700  1
  H  H9  1  0.28505500  0.54973700  0.34784800  1
  H  H10  1  0.68481500  0.79788300  0.41243000  1
  H  H11  1  0.80574400  0.75965900  0.53042400  1
  H  H12  1  0.97265100  0.15266800  0.72534000  1
  H  H13  1  0.08077700  0.38359600  0.79265700  1
  H  H14  1  0.92567800  0.24076900  0.77243000  1
  H  H15  1  0.05366900  0.77035500  0.38829000  1
  H  H16  1  0.92442000  0.76567500  0.23233500  1
  C  C1  1  0.36722500  0.35441300  0.49628000  1
  C  C2  1  0.59910400  0.49088300  0.62056800  1
  C  C3  1  0.58231500  0.61985100  0.51774500  1
  C  C4  1  0.35313800  0.48597300  0.39476600  1
  C  C5  1  0.71521500  0.64231200  0.79546300  1
  C  C6  1  0.76367300  0.71028000  0.88075700  1
  C  C7  1  0.82741000  0.70917900  0.94269300  1
  C  C8  1  0.84593500  0.64360200  0.91864700  1
  C  C9  1  0.79904100  0.57637300  0.83268200  1
  C  C10  1  0.72894700  0.57193300  0.77141400  1
  C  C11  1  0.82526900  0.51704500  0.80671500  1
  C  C12  1  0.77970800  0.45303400  0.71923500  1
  C  C13  1  0.69713100  0.43332400  0.66610100  1
  C  C14  1  0.67421800  0.49737800  0.68797900  1
  C  C15  1  0.81505400  0.40800300  0.68442800  1
  C  C16  1  0.76067500  0.33019700  0.60547400  1
  C  C17  1  0.67308800  0.29895900  0.56279500  1
  C  C18  1  0.64014700  0.35007100  0.59284800  1
  C  C19  1  0.22908200  0.22260000  0.56249500  1
  C  C20  1  0.15104600  0.16206300  0.49151500  1
  C  C21  1  0.28943900  0.29196900  0.55801500  1
  C  C22  1  0.30917500  0.27854700  0.49482000  1
  C  C23  1  0.15646100  0.42247500  0.18809000  1
  C  C24  1  0.17655800  0.48921100  0.17289800  1
  C  C25  1  0.22352100  0.41835200  0.25266500  1
  C  C26  1  0.28555900  0.48895200  0.33012400  1
  C  C27  1  0.70399000  0.77009100  0.45276600  1
  C  C28  1  0.78637600  0.79048900  0.49369200  1
  C  C29  1  0.63495000  0.70354000  0.45214200  1
  C  C30  1  0.64472100  0.69733200  0.52424800  1
  C  C31  1  0.98894500  0.37766300  0.86991000  1
  C  C32  1  0.88999600  0.51206600  0.87313400  1
  C  C33  1  0.01539300  0.62882100  0.11474000  1
  C  C34  1  0.11161100  0.49247000  0.10576600  1
  C  C35  1  0.97569200  0.09337600  0.60730500  1
  C  C36  1  0.08575900  0.09073100  0.48908800  1
  C  C37  1  0.96573000  0.85208900  0.36862800  1
  C  C38  1  0.85227200  0.85513900  0.49007400  1
  C  C39  1  0.01577300  0.24656100  0.68954500  1
  C  C40  1  0.98234200  0.16478300  0.67607700  1
  C  C41  1  0.03088300  0.31781400  0.76677400  1
  C  C42  1  0.97931100  0.30486400  0.79980400  1
  C  C43  1  0.01716800  0.75420300  0.32111900  1
  C  C44  1  0.96586200  0.78674200  0.30019200  1
  C  C45  1  0.01997500  0.68964900  0.25409500  1
  C  C46  1  0.02819000  0.70072200  0.18940000  1
  N  N1  1  0.61778500  0.21377200  0.48784700  1
  N  N2  1  0.28259900  0.19276500  0.43163600  1
  N  N3  1  0.55397100  0.64810700  0.37173700  1
  N  N4  1  0.71514200  0.76652600  0.60945000  1
  N  N5  1  0.04499900  0.26879100  0.63496200  1
  N  N6  1  0.01964000  0.61708400  0.26395800  1
  N  N7  1  0.05418100  0.78392900  0.19395800  1
  N  N8  1  0.74772400  0.78118700  0.90482100  1
  N  N9  1  0.90563800  0.45347000  0.71607400  1
  N  N10  1  0.79362800  0.28139400  0.56684600  1
  N  N11  1  0.54962400  0.31068800  0.56240300  1
  N  N12  1  0.25114700  0.23096400  0.64683000  1
  O  O1  1  0.41536000  0.34461500  0.46207700  1
  O  O2  1  0.37159200  0.42984000  0.53490600  1
  O  O3  1  0.58686900  0.46486000  0.54058600  1
  O  O4  1  0.54692700  0.51116400  0.64248900  1
  O  O5  1  0.54243700  0.54360000  0.44628200  1
  O  O6  1  0.57026400  0.62958100  0.58467200  1
  O  O7  1  0.37119100  0.42361900  0.36797400  1
  O  O8  1  0.39518600  0.54840600  0.47708000  1
  O  O9  1  0.93859400  0.35873200  0.90152700  1
  O  O10  1  0.04426200  0.45784600  0.89579400  1
  O  O11  1  0.86315000  0.46515400  0.90689900  1
  O  O12  1  0.97186000  0.55769400  0.89948700  1
  O  O13  1  0.95843100  0.54867300  0.08683900  1
  O  O14  1  0.06241300  0.64775800  0.07965400  1
  O  O15  1  0.02994100  0.44809900  0.08104700  1
  O  O16  1  0.13906600  0.54251600  0.07512100  1
  O  O17  1  0.02740800  0.06364300  0.63120200  1
  O  O18  1  0.91738700  0.06079500  0.52573000  1
  O  O19  1  0.11026500  0.05730800  0.53784700  1
  O  O20  1  0.00457500  0.06279000  0.43658500  1
  O  O21  1  0.02199300  0.88297800  0.45037000  1
  O  O22  1  0.91068800  0.87850400  0.34510400  1
  O  O23  1  0.93327200  0.87933200  0.53859000  1
  O  O24  1  0.82791100  0.88657700  0.43924200  1
  O  O25  1  0.58374400  0.20551100  0.41052000  1
  O  O26  1  0.61849500  0.14731000  0.49496000  1
  O  O27  1  0.27551300  0.17839500  0.35632800  1
  O  O28  1  0.28106800  0.13404100  0.45443000  1
  O  O29  1  0.55291500  0.63489300  0.29898700  1
  O  O30  1  0.48273900  0.63181200  0.37263000  1
  O  O31  1  0.73987100  0.84734400  0.62936700  1
  O  O32  1  0.74321200  0.74903400  0.67153000  1
  O  O33  1  0.99940500  0.21896300  0.55050200  1
  O  O34  1  0.10592000  0.34778100  0.66768000  1
  O  O35  1  0.98509200  0.59317300  0.30675400  1
  O  O36  1  0.07328300  0.59273300  0.25377400  1
  O  O37  1  0.11094900  0.85516500  0.26862500  1
  O  O38  1  0.03566500  0.78779400  0.12243400  1
  O  O39  1  0.79370600  0.84510300  0.98510400  1
  O  O40  1  0.68702700  0.78236700  0.84694300  1
  O  O41  1  0.94284800  0.53543600  0.73821200  1
  O  O42  1  0.94603700  0.41143900  0.70389400  1
  O  O43  1  0.82173900  0.23986700  0.60164100  1
  O  O44  1  0.77778500  0.26250400  0.48799600  1
  O  O45  1  0.49307200  0.24737700  0.48272400  1
  O  O46  1  0.52474800  0.32664100  0.61911100  1
  O  O47  1  0.33226500  0.27194000  0.70609300  1
  O  O48  1  0.19461600  0.22139300  0.67156400  1
