# generated using pymatgen
data_Cu2H17C32I(NO4)2
_symmetry_space_group_name_H-M   'P 1'
_cell_length_a   16.03129700
_cell_length_b   14.77749200
_cell_length_c   9.45790100
_cell_angle_alpha   90.00000000
_cell_angle_beta   89.98239800
_cell_angle_gamma   90.00000000
_symmetry_Int_Tables_number   1
_chemical_formula_structural   Cu2H17C32I(NO4)2
_chemical_formula_sum   'Cu4 H34 C64 I2 N4 O16'
_cell_volume   2240.59899177
_cell_formula_units_Z   2
loop_
 _symmetry_equiv_pos_site_id
 _symmetry_equiv_pos_as_xyz
  1  'x, y, z'
loop_
 _atom_site_type_symbol
 _atom_site_label
 _atom_site_symmetry_multiplicity
 _atom_site_fract_x
 _atom_site_fract_y
 _atom_site_fract_z
 _atom_site_occupancy
  Cu  Cu1  1  0.50069500  0.00064900  0.63867500  1
  Cu  Cu2  1  0.00069500  0.49933800  0.63867400  1
  Cu  Cu3  1  0.50182000  0.99937500  0.35646500  1
  Cu  Cu4  1  0.00182000  0.50061300  0.35646400  1
  H  H1  1  0.29748300  0.18334200  0.27504000  1
  H  H2  1  0.29711300  0.81688900  0.27954900  1
  H  H3  1  0.79710900  0.68309400  0.27955100  1
  H  H4  1  0.79748500  0.31664300  0.27503800  1
  H  H5  1  0.41485700  0.22649700  0.73577800  1
  H  H6  1  0.41380000  0.77548500  0.74152300  1
  H  H7  1  0.91380300  0.72450200  0.74151800  1
  H  H8  1  0.91485700  0.27348800  0.73577800  1
  H  H9  1  0.35678900  0.26395000  0.96311200  1
  H  H10  1  0.35554400  0.73758700  0.96836200  1
  H  H11  1  0.85555200  0.76240500  0.96835700  1
  H  H12  1  0.85678700  0.23604100  0.96311300  1
  H  H13  1  0.70632300  0.79723700  0.98987400  1
  H  H14  1  0.70722100  0.20308500  0.98553800  1
  H  H15  1  0.20722500  0.29691100  0.98553800  1
  H  H16  1  0.20631400  0.70276200  0.98987300  1
  H  H17  1  0.62022700  0.80472800  0.78441000  1
  H  H18  1  0.62066700  0.19654400  0.78056200  1
  H  H19  1  0.12067000  0.30344900  0.78056400  1
  H  H20  1  0.12022100  0.69526700  0.78440500  1
  H  H21  1  0.68118500  0.78740600  0.28186700  1
  H  H22  1  0.68145600  0.21204700  0.27747800  1
  H  H23  1  0.18145600  0.28794000  0.27747800  1
  H  H24  1  0.18118700  0.71258000  0.28186600  1
  H  H25  1  0.37396100  0.99943800  0.12829600  1
  H  H26  1  0.87396100  0.50053900  0.12829500  1
  H  H27  1  0.66267700  0.99759200  0.25074800  1
  H  H28  1  0.16267700  0.50240600  0.25074700  1
  H  H29  1  0.78698500  0.00088900  0.86671300  1
  H  H30  1  0.28698500  0.49913700  0.86671100  1
  H  H31  1  0.66228400  0.00221500  0.74260200  1
  H  H32  1  0.16228400  0.49777500  0.74260100  1
  H  H33  1  0.37269500  0.00119400  0.87007100  1
  H  H34  1  0.87269500  0.49878400  0.87007000  1
  C  C1  1  0.38855200  0.87559600  0.49913200  1
  C  C2  1  0.38877200  0.12464700  0.49542200  1
  C  C3  1  0.88877400  0.37533800  0.49542100  1
  C  C4  1  0.88855000  0.62438900  0.49913200  1
  C  C5  1  0.61285800  0.12657100  0.49796700  1
  C  C6  1  0.61266100  0.87329200  0.50163600  1
  C  C7  1  0.11265900  0.62669800  0.50163600  1
  C  C8  1  0.11286000  0.37341900  0.49796600  1
  C  C9  1  0.34886700  0.24009000  0.74122300  1
  C  C10  1  0.34791100  0.76134200  0.74642300  1
  C  C11  1  0.84791400  0.73864700  0.74642000  1
  C  C12  1  0.84886700  0.25989600  0.74122200  1
  C  C13  1  0.31725400  0.26451100  0.87054900  1
  C  C14  1  0.31621300  0.73661300  0.87555800  1
  C  C15  1  0.81621900  0.76337900  0.87555600  1
  C  C16  1  0.81725200  0.23547900  0.87054900  1
  C  C17  1  0.73342900  0.78439500  0.88716600  1
  C  C18  1  0.73426800  0.21551200  0.88265800  1
  C  C19  1  0.23427100  0.28448100  0.88265800  1
  C  C20  1  0.23342200  0.71560000  0.88716600  1
  C  C21  1  0.68554300  0.79255000  0.76736300  1
  C  C22  1  0.68608500  0.20783000  0.76311100  1
  C  C23  1  0.18608700  0.29216200  0.76311200  1
  C  C24  1  0.18553800  0.70744400  0.76736100  1
  C  C25  1  0.71977800  0.77834900  0.63348700  1
  C  C26  1  0.72024600  0.22142900  0.62900800  1
  C  C27  1  0.22024700  0.27856000  0.62900800  1
  C  C28  1  0.21977500  0.72164200  0.63348600  1
  C  C29  1  0.29795200  0.23738500  0.62204200  1
  C  C30  1  0.29728900  0.76340400  0.62684400  1
  C  C31  1  0.79729000  0.73658300  0.62684300  1
  C  C32  1  0.79795200  0.26260200  0.62204100  1
  C  C33  1  0.32321800  0.19549400  0.49674900  1
  C  C34  1  0.32271900  0.80505200  0.50137500  1
  C  C35  1  0.82271800  0.69493300  0.50137500  1
  C  C36  1  0.82321900  0.30449100  0.49674800  1
  C  C37  1  0.27892400  0.21320800  0.37446800  1
  C  C38  1  0.27851700  0.78718400  0.37906900  1
  C  C39  1  0.77851500  0.71280100  0.37907000  1
  C  C40  1  0.77892500  0.28677800  0.37446600  1
  C  C41  1  0.71092800  0.77062700  0.38093700  1
  C  C42  1  0.71132200  0.22888400  0.37642400  1
  C  C43  1  0.21132200  0.27110300  0.37642400  1
  C  C44  1  0.21092900  0.72936000  0.38093600  1
  C  C45  1  0.67958700  0.80354300  0.50716900  1
  C  C46  1  0.67992100  0.19620500  0.50279900  1
  C  C47  1  0.17992300  0.30378400  0.50279900  1
  C  C48  1  0.17958500  0.69644600  0.50716800  1
  C  C49  1  0.65516200  0.99872600  0.13960200  1
  C  C50  1  0.15516200  0.50127600  0.13960100  1
  C  C51  1  0.72918700  0.99935900  0.06788100  1
  C  C52  1  0.22918700  0.50066300  0.06787900  1
  C  C53  1  0.72883300  0.00045800  0.92459200  1
  C  C54  1  0.22883300  0.49955800  0.92459100  1
  C  C55  1  0.65451300  0.00119000  0.85359200  1
  C  C56  1  0.15451300  0.49880700  0.85359000  1
  C  C57  1  0.57741000  0.00073800  0.92323500  1
  C  C58  1  0.07741000  0.49925500  0.92323400  1
  C  C59  1  0.57803300  0.99939000  0.07059600  1
  C  C60  1  0.07803300  0.50060400  0.07059500  1
  C  C61  1  0.43255100  0.99965400  0.07178100  1
  C  C62  1  0.93255100  0.50032800  0.07178100  1
  C  C63  1  0.43177900  0.00086700  0.92504500  1
  C  C64  1  0.93177900  0.49911400  0.92504500  1
  I  I1  1  0.84284300  0.99834800  0.17906600  1
  I  I2  1  0.34284300  0.50171800  0.17906200  1
  N  N1  1  0.50500900  0.99777200  0.14430700  1
  N  N2  1  0.00500900  0.50221600  0.14430600  1
  N  N3  1  0.50355000  0.00246600  0.85078500  1
  N  N4  1  0.00355000  0.49752100  0.85078400  1
  O  O1  1  0.41317800  0.90970300  0.62038600  1
  O  O2  1  0.41302200  0.09112300  0.61723100  1
  O  O3  1  0.91302300  0.40886200  0.61723000  1
  O  O4  1  0.91317600  0.59028200  0.62038600  1
  O  O5  1  0.41388800  0.90852100  0.37656600  1
  O  O6  1  0.41428300  0.09093400  0.37353500  1
  O  O7  1  0.91428500  0.40905100  0.37353400  1
  O  O8  1  0.91388500  0.59146300  0.37656500  1
  O  O9  1  0.58360300  0.09601700  0.61607100  1
  O  O10  1  0.58398700  0.90536300  0.61927500  1
  O  O11  1  0.08398500  0.59462600  0.61927500  1
  O  O12  1  0.08360500  0.40397200  0.61607000  1
  O  O13  1  0.58537500  0.09512800  0.37693900  1
  O  O14  1  0.58477300  0.90331500  0.38000400  1
  O  O15  1  0.08477000  0.59667500  0.38000400  1
  O  O16  1  0.08537800  0.40486200  0.37693700  1
