# generated using pymatgen
data_Zn2H17C29(NO4)3
_symmetry_space_group_name_H-M   'P 1'
_cell_length_a   8.52481500
_cell_length_b   10.69387600
_cell_length_c   14.25487900
_cell_angle_alpha   97.80315600
_cell_angle_beta   90.10268200
_cell_angle_gamma   90.00840500
_symmetry_Int_Tables_number   1
_chemical_formula_structural   Zn2H17C29(NO4)3
_chemical_formula_sum   'Zn2 H17 C29 N3 O12'
_cell_volume   1287.48674896
_cell_formula_units_Z   1
loop_
 _symmetry_equiv_pos_site_id
 _symmetry_equiv_pos_as_xyz
  1  'x, y, z'
loop_
 _atom_site_type_symbol
 _atom_site_label
 _atom_site_symmetry_multiplicity
 _atom_site_fract_x
 _atom_site_fract_y
 _atom_site_fract_z
 _atom_site_occupancy
  Zn  Zn1  1  0.49971000  0.49612200  0.10318300  1
  Zn  Zn2  1  0.49896100  0.50922200  0.89514900  1
  H  H1  1  0.99629700  0.59484100  0.05614800  1
  H  H2  1  0.99524900  0.40972300  0.94190300  1
  H  H3  1  0.25450800  0.90629200  0.99305700  1
  H  H4  1  0.25429900  0.09931200  0.00614300  1
  H  H5  1  0.61041500  0.10621700  0.98443300  1
  H  H6  1  0.69774900  0.63464500  0.59467600  1
  H  H7  1  0.72825400  0.57698300  0.43846700  1
  H  H8  1  0.48130100  0.29686000  0.41767700  1
  H  H9  1  0.67867400  0.35191500  0.40222900  1
  H  H10  1  0.71597100  0.40586000  0.56102300  1
  H  H11  1  0.54702800  0.30776200  0.57397500  1
  H  H12  1  0.26093700  0.43373000  0.40897800  1
  H  H13  1  0.58203700  0.69194300  0.42279800  1
  H  H14  1  0.51416200  0.71122400  0.58189000  1
  H  H15  1  0.29287900  0.39877200  0.55552000  1
  H  H16  1  0.08599200  0.71494200  0.36393000  1
  H  H17  1  0.02155300  0.60018200  0.68169600  1
  C  C1  1  0.99798600  0.69287300  0.04543200  1
  C  C2  1  0.13834700  0.75009200  0.03148000  1
  C  C3  1  0.14145900  0.87121800  0.01006900  1
  C  C4  1  0.85938300  0.75355800  0.03222700  1
  C  C5  1  0.86121400  0.87822100  0.01521800  1
  C  C6  1  0.00314300  0.93957100  0.00722000  1
  C  C7  1  0.00300100  0.06544600  0.99145200  1
  C  C8  1  0.14116500  0.13410000  0.98882000  1
  C  C9  1  0.13785000  0.25499300  0.96697900  1
  C  C10  1  0.72230200  0.06088100  0.99133000  1
  C  C11  1  0.86071100  0.12597800  0.98298700  1
  C  C12  1  0.85851400  0.25098400  0.96594300  1
  C  C13  1  0.99718000  0.31174500  0.95276000  1
  C  C14  1  0.27949300  0.67321500  0.02160500  1
  C  C15  1  0.27912400  0.33212200  0.97671700  1
  C  C16  1  0.71727600  0.32940700  0.97631700  1
  C  C17  1  0.71733800  0.67611600  0.02205700  1
  C  C18  1  0.60435400  0.60399700  0.45358800  1
  C  C19  1  0.56504800  0.37520100  0.43818800  1
  C  C20  1  0.58929900  0.39267500  0.54480200  1
  C  C21  1  0.49967000  0.49667600  0.40985000  1
  C  C22  1  0.58115400  0.62386200  0.55986400  1
  C  C23  1  0.49931900  0.50862700  0.58847300  1
  C  C24  1  0.33219700  0.49653900  0.55075800  1
  C  C25  1  0.33202800  0.51193700  0.44649300  1
  C  C26  1  0.49887600  0.51467000  0.69161100  1
  C  C27  1  0.50038600  0.49063300  0.30671500  1
  C  C28  1  0.25719200  0.63230000  0.42669400  1
  C  C29  1  0.21916600  0.58233600  0.60827600  1
  N  N1  1  0.72500800  0.93930400  0.00653200  1
  N  N2  1  0.49862100  0.51747300  0.77303000  1
  N  N3  1  0.50067900  0.48785400  0.22529800  1
  O  O1  1  0.33016500  0.63690800  0.93541100  1
  O  O2  1  0.33486800  0.62975100  0.09681100  1
  O  O3  1  0.33068500  0.36838800  0.06284800  1
  O  O4  1  0.33401000  0.37562700  0.90148100  1
  O  O5  1  0.66811300  0.36802500  0.06256500  1
  O  O6  1  0.66307800  0.37493200  0.90164800  1
  O  O7  1  0.66754600  0.63739900  0.93583500  1
  O  O8  1  0.66387100  0.63040600  0.09674000  1
  O  O9  1  0.31254300  0.73468900  0.45753900  1
  O  O10  1  0.12228500  0.62668000  0.37124300  1
  O  O11  1  0.24541300  0.69481500  0.62789300  1
  O  O12  1  0.08468800  0.53135100  0.64319600  1
