# generated using pymatgen
data_ZnH22C30N5O14
_symmetry_space_group_name_H-M   'P 1'
_cell_length_a   15.91003700
_cell_length_b   17.10823400
_cell_length_c   19.30711200
_cell_angle_alpha   89.99922800
_cell_angle_beta   92.71018200
_cell_angle_gamma   89.12009900
_symmetry_Int_Tables_number   1
_chemical_formula_structural   ZnH22C30N5O14
_chemical_formula_sum   'Zn2 H44 C60 N10 O28'
_cell_volume   5248.75520278
_cell_formula_units_Z   2
loop_
 _symmetry_equiv_pos_site_id
 _symmetry_equiv_pos_as_xyz
  1  'x, y, z'
loop_
 _atom_site_type_symbol
 _atom_site_label
 _atom_site_symmetry_multiplicity
 _atom_site_fract_x
 _atom_site_fract_y
 _atom_site_fract_z
 _atom_site_occupancy
  Zn  Zn1  1  0.40268700  0.49484300  0.48971500  1
  Zn  Zn2  1  0.59361800  0.50068400  0.50288200  1
  H  H1  1  0.36959200  0.53613600  0.71072600  1
  H  H2  1  0.62455000  0.45289500  0.28214700  1
  H  H3  1  0.37034500  0.54122200  0.83609500  1
  H  H4  1  0.62319900  0.44624600  0.15678400  1
  H  H5  1  0.61036200  0.42568800  0.84808600  1
  H  H6  1  0.38714900  0.56875700  0.14421000  1
  H  H7  1  0.40526600  0.88946300  0.59438600  1
  H  H8  1  0.59420100  0.10510400  0.40332100  1
  H  H9  1  0.26904100  0.54238800  0.57622900  1
  H  H10  1  0.72693500  0.45055100  0.41768300  1
  H  H11  1  0.11782800  0.54268800  0.57524300  1
  H  H12  1  0.87828900  0.44976400  0.41856300  1
  H  H13  1  0.88451300  0.55925000  0.61704800  1
  H  H14  1  0.11211200  0.43772700  0.37476500  1
  H  H15  1  0.56879000  0.69834800  0.65453600  1
  H  H16  1  0.67165200  0.70046000  0.69816700  1
  H  H17  1  0.60171200  0.61982600  0.71259500  1
  H  H18  1  0.42105500  0.29204700  0.33784100  1
  H  H19  1  0.39516400  0.37360100  0.28094800  1
  H  H20  1  0.31947100  0.29685900  0.29231800  1
  H  H21  1  0.65242900  0.27506000  0.59193800  1
  H  H22  1  0.70518500  0.27181900  0.67659400  1
  H  H23  1  0.72588100  0.35066100  0.61693300  1
  H  H24  1  0.35282100  0.72514400  0.39866300  1
  H  H25  1  0.27620000  0.65179100  0.37503900  1
  H  H26  1  0.29979200  0.72859000  0.31417900  1
  H  H27  1  0.20201300  0.28678600  0.59644400  1
  H  H28  1  0.28087300  0.36123600  0.60702900  1
  H  H29  1  0.28164000  0.27853800  0.66606600  1
  H  H30  1  0.58737100  0.66392400  0.26775000  1
  H  H31  1  0.66052200  0.62992000  0.33623700  1
  H  H32  1  0.66869500  0.72776300  0.30111900  1
  H  H33  1  0.29125800  0.11856000  0.69926000  1
  H  H34  1  0.36344700  0.03724300  0.71389400  1
  H  H35  1  0.28536600  0.03444500  0.64332000  1
  H  H36  1  0.79915800  0.96798600  0.48356600  1
  H  H37  1  0.72904900  0.05078200  0.46939900  1
  H  H38  1  0.74221200  0.98042200  0.40129000  1
  H  H39  1  0.31380700  0.75420300  0.75320700  1
  H  H40  1  0.30566700  0.66807400  0.69936000  1
  H  H41  1  0.24283900  0.75475300  0.67735200  1
  H  H42  1  0.78725100  0.21263500  0.31355700  1
  H  H43  1  0.75890400  0.30856300  0.34485000  1
  H  H44  1  0.69714800  0.26404500  0.27424900  1
  C  C1  1  0.48718100  0.65080700  0.50391800  1
  C  C2  1  0.50909000  0.34509300  0.48870700  1
  C  C3  1  0.49069000  0.48563300  0.63116300  1
  C  C4  1  0.50564400  0.50932100  0.36141900  1
  C  C5  1  0.42240800  0.51075300  0.74040400  1
  C  C6  1  0.57251500  0.47951500  0.25232500  1
  C  C7  1  0.42330000  0.51431900  0.81180100  1
  C  C8  1  0.57127200  0.47505200  0.18095100  1
  C  C9  1  0.49173000  0.48542400  0.85103000  1
  C  C10  1  0.50370100  0.50543900  0.14158700  1
  C  C11  1  0.55786200  0.45103300  0.81803700  1
  C  C12  1  0.43881500  0.54216300  0.17438400  1
  C  C13  1  0.55699400  0.44591700  0.74664900  1
  C  C14  1  0.44023200  0.54839500  0.24569900  1
  C  C15  1  0.48959300  0.47848500  0.70704100  1
  C  C16  1  0.50665300  0.51452900  0.28546400  1
  C  C17  1  0.50068300  0.50000700  0.06559400  1
  C  C18  1  0.49450800  0.49030600  0.92705000  1
  C  C19  1  0.48592800  0.73726000  0.50652700  1
  C  C20  1  0.51081300  0.25907700  0.48670200  1
  C  C21  1  0.54587900  0.77819900  0.47104600  1
  C  C22  1  0.45729700  0.21815300  0.52831600  1
  C  C23  1  0.55459800  0.85833800  0.47967100  1
  C  C24  1  0.45224300  0.13735500  0.52407700  1
  C  C25  1  0.50276600  0.89820500  0.52385900  1
  C  C26  1  0.50385200  0.09685000  0.47984500  1
  C  C27  1  0.44526000  0.85762200  0.56011900  1
  C  C28  1  0.55672900  0.13755400  0.43900600  1
  C  C29  1  0.43476000  0.77836300  0.55107700  1
  C  C30  1  0.56053400  0.21804400  0.44123000  1
  C  C31  1  0.76126400  0.47591600  0.46150200  1
  C  C32  1  0.23487100  0.51826600  0.53177700  1
  C  C33  1  0.84812300  0.47515700  0.46243500  1
  C  C34  1  0.14802800  0.51864300  0.53082400  1
  C  C35  1  0.89302900  0.50564100  0.51897600  1
  C  C36  1  0.10322100  0.48935700  0.47370100  1
  C  C37  1  0.84955900  0.53491400  0.57300800  1
  C  C38  1  0.14683500  0.46138800  0.41922900  1
  C  C39  1  0.76279400  0.53707300  0.57002400  1
  C  C40  1  0.23359200  0.45953400  0.42228300  1
  C  C41  1  0.72213500  0.57298100  0.62919500  1
  C  C42  1  0.62322500  0.66195300  0.67379400  1
  C  C43  1  0.27449400  0.42426600  0.36304500  1
  C  C44  1  0.36975000  0.33196500  0.31837400  1
  C  C45  1  0.62690400  0.40233900  0.71646800  1
  C  C46  1  0.67720700  0.31114800  0.63574300  1
  C  C47  1  0.37237900  0.59489200  0.27570600  1
  C  C48  1  0.32636900  0.68910900  0.35549100  1
  C  C49  1  0.40402900  0.26060900  0.57629300  1
  C  C50  1  0.26885900  0.29779100  0.61166900  1
  C  C51  1  0.60206600  0.73716700  0.42456900  1
  C  C52  1  0.62459700  0.68133900  0.31505900  1
  C  C53  1  0.38887200  0.09675700  0.56346400  1
  C  C54  1  0.32882800  0.07282000  0.67355300  1
  C  C55  1  0.62272600  0.89908900  0.44593800  1
  C  C56  1  0.73866300  0.98783300  0.45804600  1
  C  C57  1  0.37165900  0.74115200  0.59275100  1
  C  C58  1  0.30452200  0.73287100  0.69919500  1
  C  C59  1  0.61436100  0.25671900  0.39190400  1
  C  C60  1  0.73388500  0.25284700  0.32362400  1
  N  N1  1  0.56153800  0.46161100  0.96450700  1
  N  N2  1  0.43363600  0.52866300  0.02813800  1
  N  N3  1  0.56461600  0.46632300  0.03291300  1
  N  N4  1  0.43054500  0.52392400  0.95973700  1
  N  N5  1  0.50437600  0.98045600  0.53094500  1
  N  N6  1  0.50336500  0.01441700  0.47382200  1
  N  N7  1  0.71908600  0.50749200  0.51399700  1
  N  N8  1  0.27718800  0.48828500  0.47867700  1
  N  N9  1  0.98190000  0.50868900  0.52326000  1
  N  N10  1  0.01434900  0.48616800  0.46934600  1
  O  O1  1  0.41646300  0.61212400  0.49815500  1
  O  O2  1  0.58017800  0.38337800  0.49438400  1
  O  O3  1  0.56083800  0.61537700  0.50649300  1
  O  O4  1  0.43520000  0.38012800  0.48596600  1
  O  O5  1  0.41903800  0.48843100  0.59437100  1
  O  O6  1  0.57732300  0.50684400  0.39821100  1
  O  O7  1  0.56370500  0.49085300  0.60321900  1
  O  O8  1  0.43257400  0.50446700  0.38935600  1
  O  O9  1  0.75439600  0.56468800  0.68734100  1
  O  O10  1  0.65609900  0.62237800  0.61924900  1
  O  O11  1  0.24394100  0.43510900  0.30465200  1
  O  O12  1  0.33796800  0.37205200  0.37308200  1
  O  O13  1  0.69696800  0.40432100  0.74484600  1
  O  O14  1  0.61272700  0.35453400  0.66177400  1
  O  O15  1  0.30209600  0.59508600  0.24760000  1
  O  O16  1  0.38889800  0.64292900  0.32985300  1
  O  O17  1  0.43627000  0.30078400  0.62215300  1
  O  O18  1  0.31950500  0.25662600  0.56868700  1
  O  O19  1  0.67737900  0.73253100  0.43946100  1
  O  O20  1  0.57130000  0.70937800  0.36334400  1
  O  O21  1  0.34087900  0.05174500  0.53341600  1
  O  O22  1  0.38574400  0.10812200  0.63265600  1
  O  O23  1  0.63103300  0.89181600  0.38374300  1
  O  O24  1  0.67412300  0.94615100  0.48438100  1
  O  O25  1  0.31646800  0.70171800  0.56507700  1
  O  O26  1  0.36785400  0.76002300  0.66032300  1
  O  O27  1  0.59424600  0.32000000  0.36667000  1
  O  O28  1  0.68357200  0.21909100  0.37062200  1
