# generated using pymatgen
data_V2H32C39(N2O5)2
_symmetry_space_group_name_H-M   'P 1'
_cell_length_a   26.55198800
_cell_length_b   6.76326300
_cell_length_c   22.38812000
_cell_angle_alpha   90.00000000
_cell_angle_beta   100.92591200
_cell_angle_gamma   90.00000000
_symmetry_Int_Tables_number   1
_chemical_formula_structural   V2H32C39(N2O5)2
_chemical_formula_sum   'V4 H64 C78 N8 O20'
_cell_volume   3947.53786475
_cell_formula_units_Z   2
loop_
 _symmetry_equiv_pos_site_id
 _symmetry_equiv_pos_as_xyz
  1  'x, y, z'
loop_
 _atom_site_type_symbol
 _atom_site_label
 _atom_site_symmetry_multiplicity
 _atom_site_fract_x
 _atom_site_fract_y
 _atom_site_fract_z
 _atom_site_occupancy
  V  V1  1  0.49862500  0.96960300  0.48910700  1
  V  V2  1  0.50137500  0.46960300  0.51089400  1
  V  V3  1  0.00073600  0.27472700  0.00754300  1
  V  V4  1  0.99926400  0.77472700  0.99245800  1
  H  H1  1  0.81965700  0.98974600  0.71313400  1
  H  H2  1  0.18034300  0.48974600  0.28686600  1
  H  H3  1  0.74276400  0.93607200  0.65086800  1
  H  H4  1  0.25723600  0.43607100  0.34913300  1
  H  H5  1  0.72212200  0.44433100  0.70626500  1
  H  H6  1  0.27787800  0.94433200  0.29373500  1
  H  H7  1  0.76043500  0.29521100  0.66449600  1
  H  H8  1  0.23956600  0.79521100  0.33550500  1
  H  H9  1  0.82404900  0.33731100  0.74765600  1
  H  H10  1  0.17595100  0.83731000  0.25234400  1
  H  H11  1  0.77944000  0.41154800  0.79554900  1
  H  H12  1  0.22056000  0.91154700  0.20445100  1
  H  H13  1  0.68299900  0.27272200  0.78328000  1
  H  H14  1  0.31700100  0.77272200  0.21672100  1
  H  H15  1  0.71616000  0.81131300  0.70920900  1
  H  H16  1  0.28384000  0.31131200  0.29079100  1
  H  H17  1  0.80018900  0.79731000  0.75983400  1
  H  H18  1  0.19981100  0.29731100  0.24016600  1
  H  H19  1  0.74585300  0.16367700  0.85889200  1
  H  H20  1  0.25414700  0.66367700  0.14110800  1
  H  H21  1  0.11169500  0.38287400  0.90437500  1
  H  H22  1  0.88830500  0.88287400  0.09562500  1
  H  H23  1  0.17695700  0.40179200  0.83992900  1
  H  H24  1  0.82304300  0.90179200  0.16007200  1
  H  H25  1  0.16645300  0.77874300  0.81213100  1
  H  H26  1  0.83354700  0.27874300  0.18786900  1
  H  H27  1  0.10136600  0.75965500  0.87689700  1
  H  H28  1  0.89863400  0.25965500  0.12310300  1
  H  H29  1  0.33681200  0.44892500  0.69401100  1
  H  H30  1  0.66318800  0.94892500  0.30598900  1
  H  H31  1  0.38650100  0.85944600  0.59023200  1
  H  H32  1  0.61349900  0.35944600  0.40976900  1
  H  H33  1  0.32146800  0.83282900  0.65501200  1
  H  H34  1  0.67853200  0.33282900  0.34498800  1
  H  H35  1  0.39262100  0.64157000  0.65425700  1
  H  H36  1  0.40086200  0.56814700  0.57878100  1
  H  H37  1  0.48191400  0.37398400  0.66795200  1
  H  H38  1  0.47797400  0.80781300  0.62894500  1
  H  H39  1  0.53586700  0.65845900  0.66324100  1
  H  H40  1  0.60737900  0.14157000  0.34574300  1
  H  H41  1  0.59913800  0.06814700  0.42121900  1
  H  H42  1  0.51808600  0.87398400  0.33204800  1
  H  H43  1  0.52202600  0.30781300  0.37105500  1
  H  H44  1  0.46413400  0.15845900  0.33675900  1
  H  H45  1  0.66563800  0.82505600  0.76611800  1
  H  H46  1  0.61964200  0.01540700  0.73737800  1
  H  H47  1  0.65578100  0.08946200  0.86832700  1
  H  H48  1  0.57991500  0.77191600  0.81074600  1
  H  H49  1  0.58730800  0.88121800  0.88901000  1
  H  H50  1  0.33436200  0.32505500  0.23388200  1
  H  H51  1  0.38035800  0.51540700  0.26262300  1
  H  H52  1  0.34421900  0.58946200  0.13167200  1
  H  H53  1  0.42008600  0.27191600  0.18925400  1
  H  H54  1  0.41269300  0.38121600  0.11099100  1
  H  H55  1  0.73934900  0.75291500  0.79879200  1
  H  H56  1  0.70402300  0.83152100  0.85596900  1
  H  H57  1  0.81286800  0.91733000  0.90318400  1
  H  H58  1  0.76137700  0.51142800  0.89374900  1
  H  H59  1  0.82224800  0.58882000  0.94566600  1
  H  H60  1  0.26065100  0.25291500  0.20120900  1
  H  H61  1  0.29597800  0.33152100  0.14403200  1
  H  H62  1  0.18713200  0.41733000  0.09681600  1
  H  H63  1  0.23862300  0.01142800  0.10625200  1
  H  H64  1  0.17775200  0.08882000  0.05433400  1
  C  C1  1  0.56385300  0.68609600  0.43265900  1
  C  C2  1  0.43614700  0.18609600  0.56734100  1
  C  C3  1  0.42123000  0.68533100  0.42097300  1
  C  C4  1  0.57877000  0.18533100  0.57902700  1
  C  C5  1  0.73803900  0.94250300  0.69899600  1
  C  C6  1  0.26196100  0.44250300  0.30100500  1
  C  C7  1  0.74420200  0.30504100  0.70653700  1
  C  C8  1  0.25579800  0.80504100  0.29346300  1
  C  C9  1  0.78724000  0.30147700  0.76172700  1
  C  C10  1  0.21276000  0.80147700  0.23827300  1
  C  C11  1  0.87526000  0.06782000  0.87473900  1
  C  C12  1  0.12474000  0.56782000  0.12526100  1
  C  C13  1  0.70945800  0.12931100  0.70958900  1
  C  C14  1  0.29054200  0.62931100  0.29041200  1
  C  C15  1  0.79046100  0.94587500  0.74007100  1
  C  C16  1  0.20953900  0.44587500  0.25992900  1
  C  C17  1  0.79006400  0.09718400  0.78987900  1
  C  C18  1  0.20993600  0.59718400  0.21012100  1
  C  C19  1  0.74316200  0.06677300  0.81845100  1
  C  C20  1  0.25683800  0.56677300  0.18154900  1
  C  C21  1  0.69582300  0.12326900  0.77229200  1
  C  C22  1  0.30417700  0.62326900  0.22770800  1
  C  C23  1  0.83685500  0.07994200  0.83627400  1
  C  C24  1  0.16314500  0.57994200  0.16372600  1
  C  C25  1  0.66276500  0.14842200  0.66311500  1
  C  C26  1  0.33723500  0.64842200  0.33688500  1
  C  C27  1  0.62438400  0.16496800  0.62480700  1
  C  C28  1  0.37561600  0.66496800  0.37519300  1
  C  C29  1  0.12363700  0.25024700  0.88397800  1
  C  C30  1  0.87636300  0.75024700  0.11602300  1
  C  C31  1  0.16022600  0.26081100  0.84791500  1
  C  C32  1  0.83977400  0.76081100  0.15208500  1
  C  C33  1  0.17560200  0.09145200  0.82216700  1
  C  C34  1  0.82439900  0.59145200  0.17783300  1
  C  C35  1  0.15433300  0.91146900  0.83231000  1
  C  C36  1  0.84566800  0.41146900  0.16769100  1
  C  C37  1  0.11785800  0.90079600  0.86858000  1
  C  C38  1  0.88214200  0.40079600  0.13142100  1
  C  C39  1  0.10257800  0.07021100  0.89443000  1
  C  C40  1  0.89742200  0.57021100  0.10557000  1
  C  C41  1  0.28625800  0.12591600  0.71601800  1
  C  C42  1  0.71374200  0.62591600  0.28398200  1
  C  C43  1  0.21460700  0.10325100  0.78452500  1
  C  C44  1  0.78539300  0.60325100  0.21547600  1
  C  C45  1  0.34785900  0.31917700  0.67140300  1
  C  C46  1  0.65214100  0.81917700  0.32859700  1
  C  C47  1  0.38440200  0.33357900  0.63541300  1
  C  C48  1  0.61559800  0.83357900  0.36458700  1
  C  C49  1  0.39826500  0.16844500  0.60632000  1
  C  C50  1  0.60173500  0.66844500  0.39368000  1
  C  C51  1  0.37578200  0.98840700  0.61340500  1
  C  C52  1  0.62421800  0.48840700  0.38659500  1
  C  C53  1  0.33929500  0.97372100  0.64958900  1
  C  C54  1  0.66070500  0.47372100  0.35041200  1
  C  C55  1  0.32526100  0.13939800  0.67841400  1
  C  C56  1  0.67474000  0.63939800  0.32158700  1
  C  C57  1  0.07917900  0.55613500  0.07904700  1
  C  C58  1  0.92082100  0.05613500  0.92095400  1
  C  C59  1  0.93534100  0.55897300  0.06646400  1
  C  C60  1  0.06465900  0.05897300  0.93353700  1
  C  C61  1  0.40868000  0.52734300  0.62764300  1
  C  C62  1  0.46508600  0.51255700  0.64974700  1
  C  C63  1  0.49480200  0.66924100  0.64715200  1
  C  C64  1  0.59132000  0.02734300  0.37235700  1
  C  C65  1  0.53491400  0.01255700  0.35025300  1
  C  C66  1  0.50519800  0.16924100  0.35284800  1
  C  C67  1  0.65275600  0.97721500  0.77369300  1
  C  C68  1  0.63670600  0.98803600  0.83383800  1
  C  C69  1  0.59899300  0.87334400  0.84523100  1
  C  C70  1  0.34724400  0.47721500  0.22630700  1
  C  C71  1  0.36329400  0.48803600  0.16616200  1
  C  C72  1  0.40100700  0.37334400  0.15476900  1
  C  C73  1  0.73975400  0.85313800  0.83797600  1
  C  C74  1  0.78458000  0.80490600  0.88663100  1
  C  C75  1  0.78971700  0.62393200  0.91012600  1
  C  C76  1  0.26024600  0.35313800  0.16202500  1
  C  C77  1  0.21542100  0.30490600  0.11336900  1
  C  C78  1  0.21028300  0.12393200  0.08987400  1
  N  N1  1  0.22909500  0.93938400  0.75821200  1
  N  N2  1  0.77090500  0.43938400  0.24178800  1
  N  N3  1  0.26459900  0.95065500  0.72417100  1
  N  N4  1  0.73540100  0.45065500  0.27582900  1
  N  N5  1  0.27178600  0.28962100  0.74237500  1
  N  N6  1  0.72821400  0.78962100  0.25762500  1
  N  N7  1  0.23624800  0.27840900  0.77632000  1
  N  N8  1  0.76375200  0.77840900  0.22368000  1
  O  O1  1  0.44009100  0.51755000  0.44756800  1
  O  O2  1  0.55990900  0.01755000  0.55243200  1
  O  O3  1  0.54470800  0.86680400  0.43614000  1
  O  O4  1  0.45529200  0.36680400  0.56386000  1
  O  O5  1  0.44105100  0.86684700  0.42783100  1
  O  O6  1  0.55894900  0.36684700  0.57216900  1
  O  O7  1  0.44937300  0.01754000  0.54352000  1
  O  O8  1  0.55062700  0.51754000  0.45648000  1
  O  O9  1  0.50440900  0.70347100  0.53648600  1
  O  O10  1  0.49559100  0.20347100  0.46351400  1
  O  O11  1  0.94982300  0.72603100  0.04599300  1
  O  O12  1  0.05017700  0.22603100  0.95400800  1
  O  O13  1  0.05843900  0.38158100  0.06770900  1
  O  O14  1  0.94156100  0.88158100  0.93229100  1
  O  O15  1  0.95386000  0.38417400  0.05842000  1
  O  O16  1  0.04614000  0.88417500  0.94158000  1
  O  O17  1  0.93966100  0.22314200  0.94446400  1
  O  O18  1  0.06033900  0.72314300  0.05553600  1
  O  O19  1  0.99629200  0.54784200  0.96265900  1
  O  O20  1  0.00370800  0.04784200  0.03734100  1
