# generated using pymatgen
data_V2H15C29(NO6)2
_symmetry_space_group_name_H-M   'P 1'
_cell_length_a   6.82378100
_cell_length_b   20.57555200
_cell_length_c   24.00714500
_cell_angle_alpha   90.24148300
_cell_angle_beta   89.98423500
_cell_angle_gamma   90.01223500
_symmetry_Int_Tables_number   1
_chemical_formula_structural   V2H15C29(NO6)2
_chemical_formula_sum   'V4 H30 C58 N4 O24'
_cell_volume   3370.64649809
_cell_formula_units_Z   2
loop_
 _symmetry_equiv_pos_site_id
 _symmetry_equiv_pos_as_xyz
  1  'x, y, z'
loop_
 _atom_site_type_symbol
 _atom_site_label
 _atom_site_symmetry_multiplicity
 _atom_site_fract_x
 _atom_site_fract_y
 _atom_site_fract_z
 _atom_site_occupancy
  V  V1  1  0.81253300  0.24337300  0.24922100  1
  V  V2  1  0.17119100  0.75690900  0.74770800  1
  V  V3  1  0.31255200  0.25893300  0.24907700  1
  V  V4  1  0.67116700  0.74134200  0.74757100  1
  H  H1  1  0.21967000  0.41492600  0.52172000  1
  H  H2  1  0.76311900  0.58885600  0.47255400  1
  H  H3  1  0.85896300  0.44574800  0.57854200  1
  H  H4  1  0.12385500  0.55802000  0.41570800  1
  H  H5  1  0.29361400  0.54585700  0.95868400  1
  H  H6  1  0.69016400  0.45057400  0.03528600  1
  H  H7  1  0.31205800  0.46908900  0.03678300  1
  H  H8  1  0.67171800  0.52734400  0.95718600  1
  H  H9  1  0.18961400  0.99198200  0.55515600  1
  H  H10  1  0.79994500  0.01771000  0.44872500  1
  H  H11  1  0.19013800  0.04629800  0.03801800  1
  H  H12  1  0.79359300  0.95013000  0.96160400  1
  H  H13  1  0.17172000  0.96865900  0.95998800  1
  H  H14  1  0.81201200  0.02777100  0.03963600  1
  H  H15  1  0.46212700  0.54292500  0.49569500  1
  H  H16  1  0.69029800  0.56379700  0.55922500  1
  H  H17  1  0.63694600  0.51309400  0.61885500  1
  H  H18  1  0.60645600  0.60041100  0.62367800  1
  H  H19  1  0.57314700  0.41691700  0.49832600  1
  H  H20  1  0.35332500  0.38539100  0.43354700  1
  H  H21  1  0.47654300  0.37377700  0.36743000  1
  H  H22  1  0.31440500  0.44251100  0.37744100  1
  H  H23  1  0.03720000  0.06964000  0.49666000  1
  H  H24  1  0.89559000  0.16407500  0.47402300  1
  H  H25  1  0.02514900  0.21371600  0.42394300  1
  H  H26  1  0.05852800  0.22787100  0.49784000  1
  H  H27  1  0.94647500  0.93541500  0.50364800  1
  H  H28  1  0.15348200  0.89268500  0.56590300  1
  H  H29  1  0.04379600  0.85876400  0.62802900  1
  H  H30  1  0.13315100  0.94164800  0.62849900  1
  C  C1  1  0.53153600  0.17454800  0.32819100  1
  C  C2  1  0.45225500  0.82787000  0.67014000  1
  C  C3  1  0.53172100  0.17204500  0.17141900  1
  C  C4  1  0.45198600  0.82621000  0.82685300  1
  C  C5  1  0.03178900  0.32777300  0.17011100  1
  C  C6  1  0.95194400  0.67046000  0.82518000  1
  C  C7  1  0.03172800  0.33025700  0.32688300  1
  C  C8  1  0.95199800  0.67204400  0.66842300  1
  C  C9  1  0.92296500  0.47075000  0.54196800  1
  C  C10  1  0.05978000  0.53299800  0.45226200  1
  C  C11  1  0.11293000  0.45357700  0.51111800  1
  C  C12  1  0.86980200  0.55018000  0.48313700  1
  C  C13  1  0.02223500  0.37643400  0.37172800  1
  C  C14  1  0.96152000  0.62664400  0.62300300  1
  C  C15  1  0.82352500  0.47857400  0.48627300  1
  C  C16  1  0.15910500  0.52517100  0.50796700  1
  C  C17  1  0.00746100  0.46138000  0.45583500  1
  C  C18  1  0.97531000  0.54234500  0.53839500  1
  C  C19  1  0.01522700  0.41493500  0.40961500  1
  C  C20  1  0.96825200  0.58856500  0.58480000  1
  C  C21  1  0.17136200  0.48185000  0.01927600  1
  C  C22  1  0.81244000  0.51449100  0.97462600  1
  C  C23  1  0.00222900  0.45517700  0.04079700  1
  C  C24  1  0.98156400  0.54121000  0.95313800  1
  C  C25  1  0.82277900  0.47147400  0.01843600  1
  C  C26  1  0.16102400  0.52486600  0.97546700  1
  C  C27  1  0.01292700  0.41044400  0.08642800  1
  C  C28  1  0.97077800  0.58638300  0.90782800  1
  C  C29  1  0.96198400  0.62457300  0.86997300  1
  C  C30  1  0.02169900  0.37279900  0.12468100  1
  C  C31  1  0.32458100  0.99825800  0.53221400  1
  C  C32  1  0.66650000  0.01264700  0.47259300  1
  C  C33  1  0.48708500  0.96182800  0.54589700  1
  C  C34  1  0.50465700  0.04958200  0.45929100  1
  C  C35  1  0.65947500  0.96967000  0.51648000  1
  C  C36  1  0.33386500  0.04302700  0.48968700  1
  C  C37  1  0.47342000  0.91439500  0.58941400  1
  C  C38  1  0.51362600  0.09305400  0.41274000  1
  C  C39  1  0.52162600  0.12999400  0.37396800  1
  C  C40  1  0.46307400  0.87480300  0.62616300  1
  C  C41  1  0.31237300  0.98161700  0.97751800  1
  C  C42  1  0.67133100  0.01472000  0.02217400  1
  C  C43  1  0.48154800  0.95472600  0.95608700  1
  C  C44  1  0.50216600  0.04165800  0.04357000  1
  C  C45  1  0.66101200  0.97123100  0.97842600  1
  C  C46  1  0.32269200  0.02510500  0.02126500  1
  C  C47  1  0.47087200  0.90956100  0.91051900  1
  C  C48  1  0.51291800  0.08727100  0.08880800  1
  C  C49  1  0.52169000  0.12581200  0.12663300  1
  C  C50  1  0.46209300  0.87157400  0.87228500  1
  C  C51  1  0.38726300  0.55089100  0.57656500  1
  C  C52  1  0.59350000  0.55745200  0.59586900  1
  C  C53  1  0.59119600  0.45012400  0.41817400  1
  C  C54  1  0.42314500  0.41041700  0.39785100  1
  C  C55  1  0.20039600  0.14331400  0.46571800  1
  C  C56  1  0.03431800  0.19023800  0.46535800  1
  C  C57  1  0.86550800  0.92675800  0.58440900  1
  C  C58  1  0.06148900  0.90347800  0.60288900  1
  N  N1  1  0.34609900  0.55280600  0.52177400  1
  N  N2  1  0.63581400  0.45116600  0.47278100  1
  N  N3  1  0.16650500  0.08009800  0.47653200  1
  N  N4  1  0.82682600  0.93259000  0.52962400  1
  O  O1  1  0.36393100  0.19533500  0.18929800  1
  O  O2  1  0.61977700  0.80336700  0.80855100  1
  O  O3  1  0.70620900  0.18489300  0.30688300  1
  O  O4  1  0.27753000  0.81691800  0.69121000  1
  O  O5  1  0.86387000  0.30697000  0.30900900  1
  O  O6  1  0.11986500  0.69489400  0.68671100  1
  O  O7  1  0.70633900  0.18304500  0.19254100  1
  O  O8  1  0.27737300  0.81574100  0.80553100  1
  O  O9  1  0.86399800  0.30503500  0.18840900  1
  O  O10  1  0.11972200  0.69366300  0.80730900  1
  O  O11  1  0.36379800  0.19728100  0.30989800  1
  O  O12  1  0.61992100  0.80459200  0.68797200  1
  O  O13  1  0.53812100  0.29042400  0.24881700  1
  O  O14  1  0.44559900  0.70985200  0.74721600  1
  O  O15  1  0.20642400  0.31741000  0.19141000  1
  O  O16  1  0.77728300  0.68137300  0.80410300  1
  O  O17  1  0.20631100  0.31926900  0.30574200  1
  O  O18  1  0.77742900  0.68249400  0.68977400  1
  O  O19  1  0.03790700  0.21188900  0.24947100  1
  O  O20  1  0.94581100  0.78839200  0.74807200  1
  O  O21  1  0.25561800  0.54390100  0.61034800  1
  O  O22  1  0.68836000  0.48169100  0.38535800  1
  O  O23  1  0.36686000  0.16259700  0.45779800  1
  O  O24  1  0.74292800  0.94217700  0.61891900  1
