# generated using pymatgen
data_FeH9C21O8
_symmetry_space_group_name_H-M   'P 1'
_cell_length_a   15.70760600
_cell_length_b   12.60216300
_cell_length_c   13.04668500
_cell_angle_alpha   80.57608000
_cell_angle_beta   88.18257600
_cell_angle_gamma   107.65327900
_symmetry_Int_Tables_number   1
_chemical_formula_structural   FeH9C21O8
_chemical_formula_sum   'Fe2 H18 C42 O16'
_cell_volume   2418.64686057
_cell_formula_units_Z   2
loop_
 _symmetry_equiv_pos_site_id
 _symmetry_equiv_pos_as_xyz
  1  'x, y, z'
loop_
 _atom_site_type_symbol
 _atom_site_label
 _atom_site_symmetry_multiplicity
 _atom_site_fract_x
 _atom_site_fract_y
 _atom_site_fract_z
 _atom_site_occupancy
  Fe  Fe1  1  0.50819600  0.00285800  0.23099600  1
  Fe  Fe2  1  0.48870400  0.99629300  0.77240100  1
  H  H1  1  0.18439500  0.02835800  0.84258800  1
  H  H2  1  0.22435400  0.96323200  0.21399400  1
  H  H3  1  0.07823200  0.08234200  0.80198000  1
  H  H4  1  0.91866200  0.91672100  0.20155800  1
  H  H5  1  0.77254200  0.03580700  0.78953900  1
  H  H6  1  0.81250300  0.97072000  0.16094400  1
  H  H7  1  0.44846700  0.84102400  0.54057500  1
  H  H8  1  0.50910400  0.57990100  0.74006800  1
  H  H9  1  0.54850900  0.15810600  0.46279300  1
  H  H10  1  0.48788100  0.41923500  0.26329300  1
  H  H11  1  0.47908900  0.57837200  0.32277100  1
  H  H12  1  0.51789200  0.42076700  0.68059000  1
  H  H13  1  0.91052300  0.16336400  0.70407200  1
  H  H14  1  0.00006700  0.11147500  0.67050000  1
  H  H15  1  0.88739800  0.01790100  0.68437900  1
  H  H16  1  0.08636900  0.83568300  0.29946100  1
  H  H17  1  0.10950000  0.98114600  0.31915700  1
  H  H18  1  0.99682900  0.88757900  0.33303600  1
  C  C1  1  0.28617500  0.00309300  0.06149400  1
  C  C2  1  0.27429900  0.02048700  0.95578900  1
  C  C3  1  0.19114200  0.02136000  0.92466800  1
  C  C4  1  0.21309400  0.97820300  0.13264300  1
  C  C5  1  0.12926000  0.97774100  0.10122200  1
  C  C6  1  0.11840600  0.00549000  0.99621600  1
  C  C7  1  0.03494700  0.01327300  0.96491000  1
  C  C8  1  0.02346300  0.05052700  0.86140800  1
  C  C9  1  0.94092600  0.05100000  0.82950900  1
  C  C10  1  0.05596800  0.94805400  0.17402700  1
  C  C11  1  0.97343100  0.94853300  0.14213000  1
  C  C12  1  0.96194600  0.98578700  0.03862700  1
  C  C13  1  0.87848700  0.99357000  0.00732000  1
  C  C14  1  0.86763400  0.02131200  0.90231400  1
  C  C15  1  0.78380100  0.02084400  0.87089100  1
  C  C16  1  0.80575000  0.97771100  0.07886700  1
  C  C17  1  0.72259200  0.97858800  0.04774300  1
  C  C18  1  0.71071900  0.99596600  0.94203400  1
  C  C19  1  0.65187600  0.96946000  0.12897100  1
  C  C20  1  0.46887700  0.78280000  0.36303000  1
  C  C21  1  0.37454100  0.01577500  0.10156500  1
  C  C22  1  0.50602100  0.21230500  0.27723800  1
  C  C23  1  0.49095200  0.78682700  0.72612600  1
  C  C24  1  0.62236400  0.98330700  0.90194000  1
  C  C25  1  0.52807300  0.21632000  0.64033600  1
  C  C26  1  0.34502100  0.02964900  0.87455900  1
  C  C27  1  0.46543500  0.70925700  0.46521600  1
  C  C28  1  0.45934100  0.75948900  0.55053500  1
  C  C29  1  0.47620600  0.71457800  0.64778200  1
  C  C30  1  0.49384700  0.61341300  0.66364500  1
  C  C31  1  0.49325500  0.55618400  0.58190400  1
  C  C32  1  0.48096100  0.60386200  0.48177000  1
  C  C33  1  0.50954500  0.45317800  0.60145700  1
  C  C34  1  0.51601500  0.39527000  0.52159200  1
  C  C35  1  0.50372500  0.44295000  0.42145700  1
  C  C36  1  0.48743300  0.54595600  0.40190400  1
  C  C37  1  0.53153600  0.28987100  0.53814800  1
  C  C38  1  0.53763900  0.23964400  0.45282800  1
  C  C39  1  0.52078000  0.28455700  0.35557900  1
  C  C40  1  0.50313700  0.38572200  0.33971600  1
  C  C41  1  0.93410500  0.08803600  0.71572900  1
  C  C42  1  0.06279000  0.91101400  0.28780600  1
  O  O1  1  0.58628900  0.01100900  0.10607100  1
  O  O2  1  0.43899800  0.74356600  0.27948700  1
  O  O3  1  0.65933400  0.93068800  0.22679300  1
  O  O4  1  0.49903700  0.89265600  0.36107500  1
  O  O5  1  0.38129700  0.95627000  0.19205500  1
  O  O6  1  0.44500100  0.09790200  0.05483900  1
  O  O7  1  0.56343600  0.15714900  0.26561700  1
  O  O8  1  0.42459300  0.17495500  0.24896000  1
  O  O9  1  0.43348600  0.84189900  0.73779800  1
  O  O10  1  0.57239500  0.82428200  0.75433200  1
  O  O11  1  0.61563700  0.04285900  0.81146300  1
  O  O12  1  0.55189700  0.90115500  0.94861500  1
  O  O13  1  0.33761700  0.06857200  0.77675900  1
  O  O14  1  0.49791600  0.10646500  0.64228700  1
  O  O15  1  0.41056000  0.98799900  0.89742400  1
  O  O16  1  0.55791600  0.25554500  0.72389400  1
