# generated using pymatgen
data_Cu2H30C47(NO4)2
_symmetry_space_group_name_H-M   'P 1'
_cell_length_a   13.52600200
_cell_length_b   13.64292200
_cell_length_c   15.10052300
_cell_angle_alpha   89.99668500
_cell_angle_beta   89.98744400
_cell_angle_gamma   73.84164400
_symmetry_Int_Tables_number   1
_chemical_formula_structural   Cu2H30C47(NO4)2
_chemical_formula_sum   'Cu2 H30 C47 N2 O8'
_cell_volume   2676.48292810
_cell_formula_units_Z   1
loop_
 _symmetry_equiv_pos_site_id
 _symmetry_equiv_pos_as_xyz
  1  'x, y, z'
loop_
 _atom_site_type_symbol
 _atom_site_label
 _atom_site_symmetry_multiplicity
 _atom_site_fract_x
 _atom_site_fract_y
 _atom_site_fract_z
 _atom_site_occupancy
  Cu  Cu1  1  0.50364700  0.39987600  0.50170700  1
  Cu  Cu2  1  0.50052600  0.59670100  0.50151800  1
  H  H1  1  0.18296700  0.71747800  0.41704500  1
  H  H2  1  0.85656400  0.68760700  0.36202900  1
  H  H3  1  0.00316000  0.74592900  0.37589300  1
  H  H4  1  0.18336300  0.43861600  0.53987100  1
  H  H5  1  0.81170400  0.28305800  0.58846900  1
  H  H6  1  0.09797900  0.34373300  0.58157900  1
  H  H7  1  0.99370900  0.23692500  0.62216100  1
  H  H8  1  0.76277500  0.56653600  0.39329200  1
  H  H9  1  0.54723100  0.33509900  0.93901100  1
  H  H10  1  0.53949600  0.33645000  0.77979600  1
  H  H11  1  0.45121900  0.66265500  0.78070000  1
  H  H12  1  0.45310800  0.66203000  0.94115500  1
  H  H13  1  0.56007000  0.63006400  0.06230900  1
  H  H14  1  0.56004900  0.63073200  0.22215400  1
  H  H15  1  0.45633500  0.36197700  0.22372100  1
  H  H16  1  0.44966400  0.36451200  0.06403000  1
  H  H17  1  0.35478300  0.97333200  0.56736800  1
  H  H18  1  0.35624300  0.79334900  0.56820900  1
  H  H19  1  0.63923300  0.71520100  0.43255200  1
  H  H20  1  0.64505900  0.89204500  0.43645900  1
  H  H21  1  0.63594100  0.02551400  0.58130100  1
  H  H22  1  0.63603700  0.20475000  0.58383000  1
  H  H23  1  0.37809900  0.28238300  0.41629800  1
  H  H24  1  0.46037700  0.99083200  0.31671500  1
  H  H25  1  0.32945800  0.95303500  0.22207500  1
  H  H26  1  0.15944600  0.97842200  0.17906400  1
  H  H27  1  0.08118200  0.10810100  0.19333500  1
  H  H28  1  0.06864700  0.00972100  0.26932800  1
  H  H29  1  0.09527700  0.17088900  0.36419300  1
  H  H30  1  0.22702000  0.20778700  0.45963200  1
  C  C1  1  0.49490800  0.50013800  0.67164600  1
  C  C2  1  0.70032800  0.44647100  0.50602600  1
  C  C3  1  0.50896700  0.49634900  0.33147200  1
  C  C4  1  0.30457000  0.54938700  0.49409300  1
  C  C5  1  0.04132900  0.67880200  0.41376500  1
  C  C6  1  0.19292100  0.57512800  0.48122800  1
  C  C7  1  0.85779600  0.32971700  0.56275700  1
  C  C8  1  0.96033500  0.30448100  0.58334200  1
  C  C9  1  0.01960000  0.36719500  0.55928400  1
  C  C10  1  0.97823700  0.45492000  0.50928100  1
  C  C11  1  0.87519500  0.47652800  0.48385600  1
  C  C12  1  0.03628300  0.52198500  0.48439900  1
  C  C13  1  0.98924700  0.60832400  0.43557900  1
  C  C14  1  0.89089500  0.62336900  0.40451100  1
  C  C15  1  0.83609300  0.55596700  0.42534600  1
  C  C16  1  0.14012400  0.50565600  0.50549800  1
  C  C17  1  0.14252400  0.66320800  0.43746700  1
  C  C18  1  0.81347100  0.41656400  0.51477300  1
  C  C19  1  0.52359900  0.40792200  0.90567700  1
  C  C20  1  0.51985900  0.40857200  0.81447000  1
  C  C21  1  0.49473800  0.49981000  0.76871200  1
  C  C22  1  0.47213400  0.59041300  0.81522100  1
  C  C23  1  0.47431300  0.58987100  0.90660600  1
  C  C24  1  0.50060900  0.49855000  0.95278400  1
  C  C25  1  0.53454300  0.57202000  0.09659600  1
  C  C26  1  0.53592100  0.57181900  0.18789000  1
  C  C27  1  0.50890800  0.49610100  0.23449000  1
  C  C28  1  0.47948900  0.42113200  0.18877700  1
  C  C29  1  0.47626900  0.42235800  0.09754900  1
  C  C30  1  0.50413100  0.49756100  0.05043600  1
  C  C31  1  0.41892800  0.91675900  0.53832500  1
  C  C32  1  0.41997200  0.81507900  0.53878400  1
  C  C33  1  0.57793300  0.77120200  0.46469900  1
  C  C34  1  0.58097600  0.87127300  0.46613700  1
  C  C35  1  0.50039800  0.94529500  0.50177300  1
  C  C36  1  0.57780000  0.08129400  0.54490300  1
  C  C37  1  0.57826800  0.18220400  0.54586700  1
  C  C38  1  0.43347700  0.22547200  0.45415700  1
  C  C39  1  0.42989800  0.12545700  0.45185700  1
  C  C40  1  0.50207700  0.05223900  0.49932300  1
  C  C41  1  0.35192400  0.09989100  0.39611100  1
  C  C42  1  0.38017300  0.02938500  0.32843400  1
  C  C43  1  0.30621800  0.00892200  0.27428500  1
  C  C44  1  0.20363400  0.05953700  0.28686400  1
  C  C45  1  0.12342200  0.03757500  0.22857400  1
  C  C46  1  0.17542100  0.13107200  0.35357000  1
  C  C47  1  0.24950500  0.15174300  0.40745900  1
  N  N1  1  0.49829100  0.74397300  0.50065600  1
  N  N2  1  0.50517100  0.25282400  0.50218800  1
  O  O1  1  0.49649700  0.41542500  0.63035000  1
  O  O2  1  0.49591300  0.58405500  0.62989700  1
  O  O3  1  0.65295200  0.37459600  0.50751300  1
  O  O4  1  0.65028100  0.54361400  0.50556600  1
  O  O5  1  0.50301500  0.41389800  0.37307500  1
  O  O6  1  0.51277700  0.57961800  0.37287800  1
  O  O7  1  0.35401100  0.45294700  0.50193400  1
  O  O8  1  0.35161800  0.62148900  0.49074700  1
