# generated using pymatgen
data_Cu2H28C23O8
_symmetry_space_group_name_H-M   'P 1'
_cell_length_a   18.34421300
_cell_length_b   18.49095100
_cell_length_c   18.45720700
_cell_angle_alpha   109.63404800
_cell_angle_beta   109.49165600
_cell_angle_gamma   109.19166100
_symmetry_Int_Tables_number   1
_chemical_formula_structural   Cu2H28C23O8
_chemical_formula_sum   'Cu6 H84 C69 O24'
_cell_volume   4825.16783442
_cell_formula_units_Z   3
loop_
 _symmetry_equiv_pos_site_id
 _symmetry_equiv_pos_as_xyz
  1  'x, y, z'
loop_
 _atom_site_type_symbol
 _atom_site_label
 _atom_site_symmetry_multiplicity
 _atom_site_fract_x
 _atom_site_fract_y
 _atom_site_fract_z
 _atom_site_occupancy
  Cu  Cu1  1  0.50784400  0.43916000  0.44411200  1
  Cu  Cu2  1  0.50221200  0.56250000  0.56535300  1
  Cu  Cu3  1  0.94190000  0.43462800  0.00596500  1
  Cu  Cu4  1  0.06066100  0.55601800  0.00191200  1
  Cu  Cu5  1  0.07005000  0.00078500  0.56679400  1
  Cu  Cu6  1  0.94225800  0.99807800  0.44109000  1
  H  H1  1  0.20501600  0.59317300  0.31575700  1
  H  H2  1  0.38213800  0.64827500  0.35080100  1
  H  H3  1  0.31563400  0.55227200  0.16636400  1
  H  H4  1  0.30863500  0.40404300  0.18242100  1
  H  H5  1  0.13198700  0.34914400  0.14801800  1
  H  H6  1  0.19889900  0.44521100  0.33264000  1
  H  H7  1  0.71433300  0.60271800  0.41319600  1
  H  H8  1  0.78641900  0.63330500  0.52498100  1
  H  H9  1  0.89620500  0.74787100  0.53587300  1
  H  H10  1  0.82545500  0.70617600  0.42015500  1
  H  H11  1  0.61103900  0.65707500  0.38018400  1
  H  H12  1  0.71575300  0.75490400  0.37349300  1
  H  H13  1  0.71719800  0.80286800  0.61634800  1
  H  H14  1  0.89876400  0.87621400  0.65083700  1
  H  H15  1  0.81512900  0.90395300  0.61377300  1
  H  H16  1  0.61698200  0.74472400  0.46713500  1
  H  H17  1  0.71627400  0.84318300  0.45565700  1
  H  H18  1  0.72184500  0.41996200  0.61258800  1
  H  H19  1  0.63181700  0.35642400  0.62417900  1
  H  H20  1  0.72940000  0.35260900  0.73238100  1
  H  H21  1  0.81626200  0.41150400  0.71661600  1
  H  H22  1  0.79635100  0.58463700  0.69378300  1
  H  H23  1  0.89594300  0.56907000  0.78766500  1
  H  H24  1  0.64934100  0.55197500  0.79365100  1
  H  H25  1  0.59774700  0.43389300  0.73502800  1
  H  H26  1  0.77047600  0.57595400  0.89848600  1
  H  H27  1  0.77471900  0.63993500  0.77893600  1
  H  H28  1  0.88565400  0.63830100  0.87530400  1
  H  H29  1  0.27013200  0.21102600  0.36687700  1
  H  H30  1  0.20272700  0.26308800  0.37168600  1
  H  H31  1  0.10711900  0.14156100  0.36137800  1
  H  H32  1  0.18628600  0.10287300  0.38160100  1
  H  H33  1  0.37764500  0.23256100  0.50870500  1
  H  H34  1  0.28780100  0.14287300  0.53626100  1
  H  H35  1  0.31723500  0.39385200  0.61825700  1
  H  H36  1  0.24241900  0.38336000  0.51701600  1
  H  H37  1  0.12710000  0.26480800  0.49070100  1
  H  H38  1  0.19549400  0.29123100  0.60250500  1
  H  H39  1  0.41135700  0.32207000  0.61399900  1
  H  H40  1  0.30374900  0.23544500  0.62823100  1
  H  H41  1  0.91043900  0.59801900  0.21427500  1
  H  H42  1  0.85998000  0.62144600  0.12877200  1
  H  H43  1  0.86337300  0.73590200  0.22628000  1
  H  H44  1  0.90108400  0.70455500  0.30829200  1
  H  H45  1  0.07539600  0.66403600  0.29745900  1
  H  H46  1  0.06375900  0.76148200  0.39887700  1
  H  H47  1  0.07738100  0.78700300  0.17245100  1
  H  H48  1  0.95781100  0.73837100  0.11239000  1
  H  H49  1  0.97249200  0.85410300  0.22076600  1
  H  H50  1  0.09000600  0.89502400  0.28689100  1
  H  H51  1  0.14504700  0.75075700  0.28714500  1
  H  H52  1  0.14412100  0.84890700  0.39725000  1
  H  H53  1  0.89686000  0.19537900  0.79704000  1
  H  H54  1  0.90036200  0.09481100  0.69856000  1
  H  H55  1  0.86017900  0.12072100  0.61479200  1
  H  H56  1  0.97835000  0.36172000  0.72324400  1
  H  H57  1  0.97161900  0.24987300  0.61553100  1
  H  H58  1  0.13209000  0.34520500  0.89918900  1
  H  H59  1  0.04831600  0.25731400  0.89584200  1
  H  H60  1  0.05968800  0.15879000  0.79605800  1
  H  H61  1  0.13962800  0.24693900  0.79495200  1
  H  H62  1  0.09247500  0.39735200  0.79556900  1
  H  H63  1  0.08855800  0.29425300  0.68597800  1
  H  H64  1  0.75772200  0.69381300  0.66628600  1
  H  H65  1  0.94455300  0.84822200  0.75959100  1
  H  H66  1  0.90532800  0.74596700  0.66170700  1
  H  H67  1  0.90597400  0.74576200  0.75853300  1
  H  H68  1  0.83381700  0.89216300  0.77854200  1
  H  H69  1  0.83031000  0.81630800  0.82037600  1
  H  H70  1  0.72789000  0.80291500  0.74524700  1
  H  H71  1  0.75904500  0.47143900  0.94994600  1
  H  H72  1  0.57626600  0.45273900  0.86029200  1
  H  H73  1  0.67447900  0.55461500  0.95398600  1
  H  H74  1  0.63346700  0.45797600  0.96400400  1
  H  H75  1  0.60337000  0.32890300  0.76098400  1
  H  H76  1  0.61101000  0.32356400  0.85808000  1
  H  H77  1  0.69641200  0.32588300  0.83213900  1
  H  H78  1  0.84215100  0.30208200  0.75531200  1
  H  H79  1  0.74548100  0.14271100  0.57136200  1
  H  H80  1  0.84104300  0.24445700  0.60567500  1
  H  H81  1  0.74435000  0.24450400  0.60753600  1
  H  H82  1  0.73352400  0.10520800  0.68691800  1
  H  H83  1  0.68969900  0.17999300  0.68990500  1
  H  H84  1  0.76944800  0.19747300  0.79204500  1
  C  C1  1  0.62994500  0.62235100  0.51037200  1
  C  C2  1  0.38709600  0.50061300  0.38132300  1
  C  C3  1  0.38083800  0.37930400  0.49987300  1
  C  C4  1  0.62146200  0.49937600  0.62823500  1
  C  C5  1  0.32440900  0.58043300  0.30385500  1
  C  C6  1  0.22960900  0.55032500  0.28669400  1
  C  C7  1  0.19615000  0.49787500  0.18889600  1
  C  C8  1  0.28974500  0.52796700  0.20480200  1
  C  C9  1  0.28448500  0.44702800  0.21214300  1
  C  C10  1  0.18967900  0.41700000  0.19497900  1
  C  C11  1  0.22425000  0.46950300  0.29390100  1
  C  C12  1  0.31786500  0.49953100  0.30993500  1
  C  C13  1  0.75715100  0.65807900  0.48281900  1
  C  C14  1  0.82994900  0.73052600  0.48605900  1
  C  C15  1  0.65668300  0.71716400  0.44675300  1
  C  C16  1  0.76138600  0.77713700  0.60501100  1
  C  C17  1  0.70200300  0.69311700  0.51280600  1
  C  C18  1  0.81835700  0.81130900  0.50877700  1
  C  C19  1  0.72564200  0.78467100  0.44153300  1
  C  C20  1  0.82904900  0.84830200  0.60093800  1
  C  C21  1  0.69740500  0.41722100  0.65960100  1
  C  C22  1  0.76331900  0.41383900  0.73199100  1
  C  C23  1  0.77834500  0.58032800  0.74444200  1
  C  C24  1  0.66107000  0.49595400  0.76794700  1
  C  C25  1  0.68912000  0.49838800  0.69979400  1
  C  C26  1  0.80554000  0.49604100  0.82096700  1
  C  C27  1  0.84892100  0.57550100  0.81125100  1
  C  C28  1  0.73566600  0.50580300  0.84592300  1
  C  C29  1  0.23988600  0.23636400  0.40486200  1
  C  C30  1  0.17625800  0.16039000  0.40606300  1
  C  C31  1  0.35389200  0.26891700  0.54741600  1
  C  C32  1  0.26794200  0.34760400  0.54662700  1
  C  C33  1  0.31107700  0.30874000  0.49953300  1
  C  C34  1  0.19392600  0.18890700  0.50036500  1
  C  C35  1  0.28607800  0.20570100  0.55746800  1
  C  C36  1  0.19073900  0.27375600  0.53681000  1
  C  C37  1  0.00375700  0.61471400  0.12503700  1
  C  C38  1  0.12420000  0.49647200  0.11991200  1
  C  C39  1  0.99797700  0.37605800  0.88175300  1
  C  C40  1  0.87750300  0.49602300  0.89003900  1
  C  C41  1  0.00614800  0.87836700  0.38348300  1
  C  C42  1  0.88723000  0.88006100  0.50649400  1
  C  C43  1  0.00525600  0.11949800  0.62445100  1
  C  C44  1  0.12500200  0.11884200  0.50135700  1
  C  C45  1  0.91716500  0.64985300  0.19539600  1
  C  C46  1  0.91600700  0.72395100  0.26203200  1
  C  C47  1  0.08079800  0.71973400  0.28503900  1
  C  C48  1  0.01583200  0.76176900  0.17638700  1
  C  C49  1  0.00425800  0.68585300  0.19487500  1
  C  C50  1  0.00588800  0.80736600  0.31370200  1
  C  C51  1  0.07805600  0.78783800  0.35640300  1
  C  C52  1  0.02253800  0.83648300  0.25036300  1
  C  C53  1  0.90583300  0.22038100  0.75211900  1
  C  C54  1  0.91095000  0.14990700  0.68428500  1
  C  C55  1  0.02375600  0.34005700  0.75358700  1
  C  C56  1  0.06609400  0.28411400  0.85498700  1
  C  C57  1  0.99691600  0.30570400  0.81004100  1
  C  C58  1  0.00280300  0.18824700  0.69375700  1
  C  C59  1  0.02253900  0.26839600  0.68159900  1
  C  C60  1  0.07185100  0.21661600  0.78605000  1
  C  C61  1  0.80019300  0.76220600  0.68404200  1
  C  C62  1  0.89471600  0.77672800  0.71691400  1
  C  C63  1  0.79788800  0.82246100  0.76191900  1
  C  C64  1  0.70144100  0.45299100  0.88839500  1
  C  C65  1  0.64261300  0.48147800  0.91808100  1
  C  C66  1  0.65018100  0.35220700  0.83056700  1
  C  C67  1  0.82467000  0.23334000  0.71442600  1
  C  C68  1  0.78762400  0.21482900  0.61893000  1
  C  C69  1  0.74964700  0.17504400  0.72126600  1
  O  O1  1  0.60470200  0.53935100  0.45949500  1
  O  O2  1  0.59331100  0.64599100  0.55745700  1
  O  O3  1  0.42159700  0.45089700  0.35900500  1
  O  O4  1  0.41512600  0.55615200  0.46376400  1
  O  O5  1  0.41540500  0.35563800  0.45062500  1
  O  O6  1  0.40681800  0.46221700  0.55147800  1
  O  O7  1  0.59810100  0.44872300  0.54588500  1
  O  O8  1  0.59471900  0.55679400  0.65063600  1
  O  O9  1  0.93497700  0.53364200  0.07981100  1
  O  O10  1  0.07214200  0.63617500  0.11128900  1
  O  O11  1  0.04414000  0.46253200  0.11115800  1
  O  O12  1  0.14365600  0.52925700  0.07109800  1
  O  O13  1  0.96736600  0.35460800  0.93135000  1
  O  O14  1  0.03044300  0.45682600  0.89309600  1
  O  O15  1  0.85827300  0.42605000  0.90035100  1
  O  O16  1  0.95913200  0.56397100  0.93370600  1
  O  O17  1  0.06366000  0.91152300  0.46703500  1
  O  O18  1  0.95338400  0.90929200  0.35827700  1
  O  O19  1  0.97140200  0.91281100  0.56261000  1
  O  O20  1  0.86106800  0.90507800  0.44871400  1
  O  O21  1  0.06375800  0.09441100  0.64955400  1
  O  O22  1  0.95304600  0.09172500  0.54079300  1
  O  O23  1  0.15136100  0.09357900  0.55903100  1
  O  O24  1  0.04075600  0.08633900  0.44535600  1
