# generated using pymatgen
data_ZnH12(C7O2)2
_symmetry_space_group_name_H-M   'P 1'
_cell_length_a   27.91259400
_cell_length_b   20.07184200
_cell_length_c   14.23961800
_cell_angle_alpha   111.07713200
_cell_angle_beta   60.82214000
_cell_angle_gamma   89.82470100
_symmetry_Int_Tables_number   1
_chemical_formula_structural   ZnH12(C7O2)2
_chemical_formula_sum   'Zn8 H96 C112 O32'
_cell_volume   6341.81269130
_cell_formula_units_Z   8
loop_
 _symmetry_equiv_pos_site_id
 _symmetry_equiv_pos_as_xyz
  1  'x, y, z'
loop_
 _atom_site_type_symbol
 _atom_site_label
 _atom_site_symmetry_multiplicity
 _atom_site_fract_x
 _atom_site_fract_y
 _atom_site_fract_z
 _atom_site_occupancy
  Zn  Zn1  1  0.55619100  0.99308300  0.30325600  1
  Zn  Zn2  1  0.52224600  0.86728600  0.36365400  1
  Zn  Zn3  1  0.06723000  0.98360600  0.03289000  1
  Zn  Zn4  1  0.14130500  0.84348700  0.83124000  1
  Zn  Zn5  1  0.57235300  0.50981600  0.77584000  1
  Zn  Zn6  1  0.56972000  0.56297100  0.00274400  1
  Zn  Zn7  1  0.02894700  0.58700700  0.94624000  1
  Zn  Zn8  1  0.14188800  0.48618100  0.79345000  1
  H  H1  1  0.35200800  0.78955000  0.14098000  1
  H  H2  1  0.28089200  0.78506400  0.10661200  1
  H  H3  1  0.23346900  0.98696100  0.29073100  1
  H  H4  1  0.23380000  0.89797100  0.29419300  1
  H  H5  1  0.30834500  0.90897700  0.31717500  1
  H  H6  1  0.31293700  0.99277700  0.29633600  1
  H  H7  1  0.32617300  0.91505700  0.96207600  1
  H  H8  1  0.29278500  0.99633000  0.09878000  1
  H  H9  1  0.40482900  0.90275200  0.96867100  1
  H  H10  1  0.32465300  0.79268400  0.96853800  1
  H  H11  1  0.39767600  0.78634700  0.99530600  1
  H  H12  1  0.37441200  0.98959800  0.09567800  1
  H  H13  1  0.91780200  0.71663700  0.88635600  1
  H  H14  1  0.83883600  0.72131100  0.87926200  1
  H  H15  1  0.75822400  0.77191600  0.20447300  1
  H  H16  1  0.79811500  0.69719300  0.06003000  1
  H  H17  1  0.87456800  0.70349600  0.07670500  1
  H  H18  1  0.83633800  0.78404800  0.21403500  1
  H  H19  1  0.78361800  0.91830100  0.09211800  1
  H  H20  1  0.75520700  0.90012900  0.22240100  1
  H  H21  1  0.86833700  0.91686700  0.07559900  1
  H  H22  1  0.83726700  0.81445500  0.89340800  1
  H  H23  1  0.92005100  0.80621000  0.88519800  1
  H  H24  1  0.83777200  0.90809200  0.21407800  1
  H  H25  1  0.52038900  0.91541100  0.74250400  1
  H  H26  1  0.51782300  0.83945000  0.82858700  1
  H  H27  1  0.65873800  0.72492300  0.57658800  1
  H  H28  1  0.58387300  0.73219600  0.64120400  1
  H  H29  1  0.58002900  0.80515000  0.55497100  1
  H  H30  1  0.65573700  0.79062100  0.47928900  1
  H  H31  1  0.64741700  0.89063900  0.82105100  1
  H  H32  1  0.69563900  0.81239400  0.68630900  1
  H  H33  1  0.65720600  0.95346100  0.71164800  1
  H  H34  1  0.54414400  0.90254600  0.90982400  1
  H  H35  1  0.55289500  0.97382200  0.81326900  1
  H  H36  1  0.70003200  0.87265200  0.57659700  1
  H  H37  1  0.49571300  0.08072600  0.71417000  1
  H  H38  1  0.54094100  0.16195700  0.77697400  1
  H  H39  1  0.48879200  0.30557000  0.72080600  1
  H  H40  1  0.54968900  0.23848000  0.66695700  1
  H  H41  1  0.51777600  0.14657200  0.58354900  1
  H  H42  1  0.46360000  0.21526700  0.61530500  1
  H  H43  1  0.39901000  0.28367500  0.99971400  1
  H  H44  1  0.40527300  0.34079600  0.92281400  1
  H  H45  1  0.35770600  0.21552800  0.90745400  1
  H  H46  1  0.48160300  0.18826800  0.92522700  1
  H  H47  1  0.43215800  0.11829900  0.85836900  1
  H  H48  1  0.37474400  0.26360800  0.81341200  1
  H  H49  1  0.02186100  0.92064400  0.50535900  1
  H  H50  1  0.06160500  0.84475100  0.31206900  1
  H  H51  1  0.17523300  0.74044700  0.30323900  1
  H  H52  1  0.16027000  0.80724200  0.25819400  1
  H  H53  1  0.12297600  0.89773100  0.44139500  1
  H  H54  1  0.14990600  0.83467300  0.47717900  1
  H  H55  1  0.03427100  0.69500300  0.41412300  1
  H  H56  1  0.10569700  0.66540600  0.37212000  1
  H  H57  1  0.01730800  0.76624500  0.59618700  1
  H  H58  1  0.01131400  0.78966900  0.35863900  1
  H  H59  1  0.98065900  0.85696200  0.55133900  1
  H  H60  1  0.09119200  0.74896200  0.54578500  1
  H  H61  1  0.21555800  0.17062300  0.70984000  1
  H  H62  1  0.15792100  0.27604500  0.77172600  1
  H  H63  1  0.03229700  0.22877000  0.97918200  1
  H  H64  1  0.06806900  0.23307600  0.83692400  1
  H  H65  1  0.12770100  0.12476500  0.75331100  1
  H  H66  1  0.08563500  0.11526600  0.89036700  1
  H  H67  1  0.12817800  0.31562900  0.07347600  1
  H  H68  1  0.06242200  0.28611300  0.12290000  1
  H  H69  1  0.17133000  0.20134800  0.01865800  1
  H  H70  1  0.17951600  0.31930800  0.87582100  1
  H  H71  1  0.22965500  0.21116500  0.82691300  1
  H  H72  1  0.10693200  0.16969300  0.05042000  1
  H  H73  1  0.29303300  0.53099200  0.20563300  1
  H  H74  1  0.22064100  0.54252900  0.38208900  1
  H  H75  1  0.29912800  0.62974600  0.52659900  1
  H  H76  1  0.28519200  0.54407700  0.45599100  1
  H  H77  1  0.35776000  0.53138600  0.27889000  1
  H  H78  1  0.37214700  0.61658000  0.34968700  1
  H  H79  1  0.20592800  0.74516000  0.49887900  1
  H  H80  1  0.25283600  0.74625700  0.55245300  1
  H  H81  1  0.27911400  0.73349800  0.32319100  1
  H  H82  1  0.18681600  0.62715200  0.40110200  1
  H  H83  1  0.25953100  0.61611300  0.22538200  1
  H  H84  1  0.32613400  0.73376600  0.37634800  1
  H  H85  1  0.83398700  0.55999200  0.77245800  1
  H  H86  1  0.92190700  0.54890900  0.73959400  1
  H  H87  1  0.90494600  0.37543200  0.78258200  1
  H  H88  1  0.88942800  0.47397700  0.85659700  1
  H  H89  1  0.80451200  0.47629500  0.87426500  1
  H  H90  1  0.82293600  0.37873000  0.78737100  1
  H  H91  1  0.97224600  0.36969800  0.47867300  1
  H  H92  1  0.94757400  0.31607600  0.56463200  1
  H  H93  1  0.88809100  0.39037200  0.49645400  1
  H  H94  1  0.95183400  0.50539800  0.58184900  1
  H  H95  1  0.86426100  0.52491600  0.61476600  1
  H  H96  1  0.86597700  0.32929400  0.56948100  1
  C  C1  1  0.48713400  0.90408200  0.21267700  1
  C  C2  1  0.44587700  0.01873100  0.52819800  1
  C  C3  1  0.63749600  0.84483600  0.14867600  1
  C  C4  1  0.58688000  0.95850000  0.46125500  1
  C  C5  1  0.02350900  0.84444900  0.01969800  1
  C  C6  1  0.15411500  0.89974500  0.04552100  1
  C  C7  1  0.05945300  0.92925800  0.81226000  1
  C  C8  1  0.18057400  0.98523000  0.83862400  1
  C  C9  1  0.68101300  0.48424900  0.77195300  1
  C  C10  1  0.55031700  0.41076200  0.90453300  1
  C  C11  1  0.59049500  0.66245700  0.87438700  1
  C  C12  1  0.46109700  0.58826900  0.00770600  1
  C  C13  1  0.04783100  0.45295900  0.98664300  1
  C  C14  1  0.11506400  0.61548600  0.01956200  1
  C  C15  1  0.05447500  0.45793400  0.72266800  1
  C  C16  1  0.12388400  0.61855900  0.75005600  1
  C  C17  1  0.30900700  0.81762000  0.06438500  1
  C  C18  1  0.25920500  0.93089300  0.24822000  1
  C  C19  1  0.31104400  0.93469500  0.25811600  1
  C  C20  1  0.45492000  0.89342900  0.15572400  1
  C  C21  1  0.27674300  0.89573000  0.11910600  1
  C  C22  1  0.35852300  0.81703800  0.08191800  1
  C  C23  1  0.36358300  0.89493100  0.13672500  1
  C  C24  1  0.36825900  0.93358700  0.05943300  1
  C  C25  1  0.31494800  0.93820500  0.05543600  1
  C  C26  1  0.41382200  0.89442100  0.14693200  1
  C  C27  1  0.22649200  0.89616700  0.10891600  1
  C  C28  1  0.18501900  0.89546900  0.10127500  1
  C  C29  1  0.83963900  0.77684600  0.93283300  1
  C  C30  1  0.79547700  0.75455800  0.11405300  1
  C  C31  1  0.84825400  0.75930200  0.12023100  1
  C  C32  1  0.97738500  0.80851500  0.05901600  1
  C  C33  1  0.78984400  0.80375500  0.05861400  1
  C  C34  1  0.89410500  0.77421800  0.93258100  1
  C  C35  1  0.88117700  0.80602800  0.05866900  1
  C  C36  1  0.84567900  0.88317900  0.12315500  1
  C  C37  1  0.78991200  0.88123500  0.12898600  1
  C  C38  1  0.93403700  0.80735000  0.05871500  1
  C  C39  1  0.73697900  0.80244500  0.05858800  1
  C  C40  1  0.69353700  0.80144900  0.05866000  1
  C  C41  1  0.55254900  0.86830600  0.82029800  1
  C  C42  1  0.61736300  0.76370100  0.63008000  1
  C  C43  1  0.61639000  0.81012500  0.56715300  1
  C  C44  1  0.61296300  0.97335900  0.52999600  1
  C  C45  1  0.60771700  0.81278400  0.75000900  1
  C  C46  1  0.55585500  0.91674600  0.75758700  1
  C  C47  1  0.61125600  0.88944200  0.64029600  1
  C  C48  1  0.65938500  0.89526000  0.66224200  1
  C  C49  1  0.65541100  0.85251100  0.73354400  1
  C  C50  1  0.61329100  0.93389300  0.57674800  1
  C  C51  1  0.60561500  0.76836300  0.81361700  1
  C  C52  1  0.60093100  0.73079100  0.86612300  1
  C  C53  1  0.49483200  0.18362700  0.83555100  1
  C  C54  1  0.50306200  0.25247200  0.71686100  1
  C  C55  1  0.48200200  0.19333400  0.65472300  1
  C  C56  1  0.39695800  0.06789900  0.63667300  1
  C  C57  1  0.47999600  0.25822400  0.84103000  1
  C  C58  1  0.46495900  0.13182100  0.78737900  1
  C  C59  1  0.43787500  0.16807500  0.74283700  1
  C  C60  1  0.39205000  0.23379700  0.84626900  1
  C  C61  1  0.41654300  0.28423000  0.91143100  1
  C  C62  1  0.41359200  0.11567600  0.68564500  1
  C  C63  1  0.50455200  0.31029900  0.89761100  1
  C  C64  1  0.53782500  0.34322400  0.91384200  1
  C  C65  1  0.04578600  0.81299200  0.36671300  1
  C  C66  1  0.14224700  0.78397700  0.32492400  1
  C  C67  1  0.12192700  0.84379600  0.44628900  1
  C  C68  1  0.03518400  0.93733800  0.74709600  1
  C  C69  1  0.09324200  0.75186900  0.32429300  1
  C  C70  1  0.02361600  0.86304200  0.49491200  1
  C  C71  1  0.06222200  0.84271800  0.53161500  1
  C  C72  1  0.05983800  0.76638900  0.52800500  1
  C  C73  1  0.07281700  0.71360000  0.40697000  1
  C  C74  1  0.04437500  0.89530200  0.65167700  1
  C  C75  1  0.11132600  0.69929500  0.20407500  1
  C  C76  1  0.13054900  0.65784800  0.10206400  1
  C  C77  1  0.16018300  0.27439500  0.84651500  1
  C  C78  1  0.07393100  0.22507700  0.90408900  1
  C  C79  1  0.11098200  0.15031600  0.84961900  1
  C  C80  1  0.22061100  0.02546100  0.78774600  1
  C  C81  1  0.10143900  0.28353100  0.94768900  1
  C  C82  1  0.19599800  0.20157900  0.80655400  1
  C  C83  1  0.15940800  0.15825800  0.87060800  1
  C  C84  1  0.13634300  0.19871800  0.00199100  1
  C  C85  1  0.10525600  0.27560400  0.04589900  1
  C  C86  1  0.19295400  0.08554700  0.82601600  1
  C  C87  1  0.06770500  0.35605000  0.99253100  1
  C  C88  1  0.02789500  0.40696700  0.04897800  1
  C  C89  1  0.22588000  0.59761300  0.38373100  1
  C  C90  1  0.29049000  0.59891100  0.45644800  1
  C  C91  1  0.33945200  0.59038700  0.33758400  1
  C  C92  1  0.40136700  0.61554100  0.07223700  1
  C  C93  1  0.23728500  0.63991700  0.48022400  1
  C  C94  1  0.27472500  0.58985900  0.26531000  1
  C  C95  1  0.31906900  0.62632000  0.28245300  1
  C  C96  1  0.29387500  0.70687500  0.36333800  1
  C  C97  1  0.24471100  0.71500300  0.48166100  1
  C  C98  1  0.36644100  0.61846700  0.16782800  1
  C  C99  1  0.18979800  0.64788900  0.59480800  1
  C  C100  1  0.14468200  0.66236500  0.68392600  1
  C  C101  1  0.92113200  0.50377300  0.66739100  1
  C  C102  1  0.89269900  0.42731600  0.78063000  1
  C  C103  1  0.83628000  0.43099800  0.78965000  1
  C  C104  1  0.74069100  0.45641800  0.70856500  1
  C  C105  1  0.93662200  0.43084500  0.66616200  1
  C  C106  1  0.86269400  0.51334000  0.68661600  1
  C  C107  1  0.84132900  0.44399300  0.68695400  1
  C  C108  1  0.88245000  0.37972700  0.57206700  1
  C  C109  1  0.93859300  0.36938400  0.56300600  1
  C  C110  1  0.78611100  0.45159200  0.69899500  1
  C  C111  1  0.99184400  0.42320600  0.65410300  1
  C  C112  1  0.03739300  0.41540500  0.64338200  1
  O  O1  1  0.51361500  0.95811900  0.21775500  1
  O  O2  1  0.45553200  0.94869000  0.50382600  1
  O  O3  1  0.48175500  0.04479000  0.45605500  1
  O  O4  1  0.48753700  0.86193000  0.26470900  1
  O  O5  1  0.60000800  0.81711800  0.21574900  1
  O  O6  1  0.58820800  0.99994400  0.40696100  1
  O  O7  1  0.56194800  0.90325500  0.45296100  1
  O  O8  1  0.62571600  0.91392300  0.16996300  1
  O  O9  1  0.01546200  0.91524900  0.07654700  1
  O  O10  1  0.16965100  0.84912700  0.94073800  1
  O  O11  1  0.11283000  0.95628000  0.09600300  1
  O  O12  1  0.07195300  0.80758400  0.92219900  1
  O  O13  1  0.09908000  0.87159600  0.76450100  1
  O  O14  1  0.13343800  0.02071500  0.93940500  1
  O  O15  1  0.19061300  0.91377400  0.78345400  1
  O  O16  1  0.04191700  0.97919500  0.91891600  1
  O  O17  1  0.65505000  0.47667700  0.71395500  1
  O  O18  1  0.55454000  0.46181100  0.98744300  1
  O  O19  1  0.55660500  0.42138800  0.81387200  1
  O  O20  1  0.65284000  0.51738000  0.88765700  1
  O  O21  1  0.58475300  0.65187800  0.96480600  1
  O  O22  1  0.48906800  0.55532500  0.89187900  1
  O  O23  1  0.48724700  0.59590800  0.06521600  1
  O  O24  1  0.58670300  0.61100700  0.79134500  1
  O  O25  1  0.01370600  0.51199900  0.01677000  1
  O  O26  1  0.15107800  0.55771800  0.92436100  1
  O  O27  1  0.06462800  0.63453200  0.04069500  1
  O  O28  1  0.10023700  0.43533600  0.89940700  1
  O  O29  1  0.10526900  0.43863100  0.70008100  1
  O  O30  1  0.07134300  0.63707800  0.83776200  1
  O  O31  1  0.15760900  0.55982100  0.72154000  1
  O  O32  1  0.01896600  0.51591500  0.81757000  1
