# generated using pymatgen
data_ZnH13C27N3O4
_symmetry_space_group_name_H-M   'P 1'
_cell_length_a   13.22416600
_cell_length_b   13.25863600
_cell_length_c   16.40099200
_cell_angle_alpha   94.65857600
_cell_angle_beta   90.04632100
_cell_angle_gamma   90.59994500
_symmetry_Int_Tables_number   1
_chemical_formula_structural   ZnH13C27N3O4
_chemical_formula_sum   'Zn2 H26 C54 N6 O8'
_cell_volume   2865.99693285
_cell_formula_units_Z   2
loop_
 _symmetry_equiv_pos_site_id
 _symmetry_equiv_pos_as_xyz
  1  'x, y, z'
loop_
 _atom_site_type_symbol
 _atom_site_label
 _atom_site_symmetry_multiplicity
 _atom_site_fract_x
 _atom_site_fract_y
 _atom_site_fract_z
 _atom_site_occupancy
  Zn  Zn1  1  0.02826300  0.89121500  0.99322100  1
  Zn  Zn2  1  0.97173800  0.10878500  0.00677900  1
  H  H1  1  0.97758500  0.27041700  0.13641600  1
  H  H2  1  0.02241500  0.72958300  0.86358400  1
  H  H3  1  0.94852200  0.23683000  0.88004600  1
  H  H4  1  0.05147800  0.76316900  0.11995400  1
  H  H5  1  0.96078400  0.38193000  0.80107800  1
  H  H6  1  0.03921700  0.61806900  0.19892200  1
  H  H7  1  0.99277100  0.56345700  0.79450900  1
  H  H8  1  0.00722900  0.43654300  0.20549100  1
  H  H9  1  0.19058200  0.13211900  0.51713400  1
  H  H10  1  0.80941900  0.86788000  0.48286600  1
  H  H11  1  0.51161900  0.02773400  0.22538500  1
  H  H12  1  0.48838100  0.97226500  0.77461500  1
  H  H13  1  0.46729100  0.07205800  0.45755200  1
  H  H14  1  0.53271000  0.92794200  0.54244800  1
  H  H15  1  0.89699700  0.88655500  0.60298700  1
  H  H16  1  0.10300400  0.11344400  0.39701400  1
  H  H17  1  0.66520600  0.99409300  0.83086300  1
  H  H18  1  0.33479400  0.00590700  0.16913700  1
  H  H19  1  0.32765600  0.98080400  0.83280000  1
  H  H20  1  0.67234500  0.01919600  0.16720000  1
  H  H21  1  0.04760700  0.11518500  0.77065800  1
  H  H22  1  0.95239300  0.88481500  0.22934200  1
  H  H23  1  0.10998100  0.14311400  0.63532000  1
  H  H24  1  0.89001900  0.85688500  0.36468000  1
  H  H25  1  0.96044300  0.90935900  0.74319700  1
  H  H26  1  0.03955700  0.09064000  0.25680300  1
  C  C1  1  0.86614800  0.96924300  0.87783700  1
  C  C2  1  0.13385200  0.03075700  0.12216300  1
  C  C3  1  0.13604800  0.02627900  0.88692600  1
  C  C4  1  0.86395300  0.97372000  0.11307400  1
  C  C5  1  0.97362400  0.30369200  0.07851900  1
  C  C6  1  0.02637700  0.69630800  0.92148100  1
  C  C7  1  0.95723700  0.28498800  0.93599100  1
  C  C8  1  0.04276300  0.71501100  0.06400900  1
  C  C9  1  0.97269600  0.38783100  0.93159200  1
  C  C10  1  0.02730400  0.61216900  0.06840800  1
  C  C11  1  0.99024500  0.44893200  0.00192300  1
  C  C12  1  0.00975500  0.55106700  0.99807700  1
  C  C13  1  0.98928900  0.40704200  0.07598600  1
  C  C14  1  0.01071100  0.59295800  0.92401400  1
  C  C15  1  0.97407700  0.42931300  0.85692800  1
  C  C16  1  0.02592300  0.57068600  0.14307200  1
  C  C17  1  0.99264200  0.53169100  0.85316100  1
  C  C18  1  0.00735800  0.46830900  0.14683900  1
  C  C19  1  0.31630800  0.03776200  0.71349000  1
  C  C20  1  0.68369200  0.96223800  0.28651000  1
  C  C21  1  0.25548500  0.07923700  0.65856000  1
  C  C22  1  0.74451600  0.92076200  0.34144000  1
  C  C23  1  0.30737300  0.07813900  0.58575600  1
  C  C24  1  0.69262700  0.92186000  0.41424400  1
  C  C25  1  0.40687700  0.01643100  0.67426400  1
  C  C26  1  0.59312400  0.98356900  0.32573600  1
  C  C27  1  0.26682300  0.10398400  0.51540500  1
  C  C28  1  0.73317800  0.89601500  0.48459500  1
  C  C29  1  0.31026600  0.08249100  0.43309800  1
  C  C30  1  0.68973500  0.91750800  0.56690300  1
  C  C31  1  0.25500800  0.07486100  0.36121300  1
  C  C32  1  0.74499200  0.92513900  0.63878700  1
  C  C33  1  0.31941400  0.04711100  0.29877900  1
  C  C34  1  0.68058700  0.95288800  0.70122100  1
  C  C35  1  0.41470800  0.04004800  0.33413100  1
  C  C36  1  0.58529300  0.95995200  0.66586900  1
  C  C37  1  0.51028200  0.01823200  0.29029500  1
  C  C38  1  0.48971800  0.98176700  0.70970500  1
  C  C39  1  0.84582300  0.90911000  0.65222800  1
  C  C40  1  0.15417700  0.09088900  0.34777200  1
  C  C41  1  0.88118500  0.92155700  0.73167600  1
  C  C42  1  0.11881500  0.07844200  0.26832400  1
  C  C43  1  0.81809500  0.95323800  0.79635200  1
  C  C44  1  0.18190500  0.04676100  0.20364800  1
  C  C45  1  0.71556300  0.96983900  0.78139900  1
  C  C46  1  0.28443800  0.03016100  0.21860100  1
  C  C47  1  0.28163300  0.01797700  0.79003700  1
  C  C48  1  0.71836800  0.98202300  0.20996300  1
  C  C49  1  0.18350900  0.04613600  0.80983900  1
  C  C50  1  0.81649100  0.95386300  0.19016100  1
  C  C51  1  0.12428500  0.09404500  0.75491700  1
  C  C52  1  0.87571500  0.90595400  0.24508300  1
  C  C53  1  0.15901200  0.10942200  0.67794500  1
  C  C54  1  0.84098900  0.89057800  0.32205500  1
  N  N1  1  0.95946200  0.24375200  0.00871600  1
  N  N2  1  0.04053900  0.75624700  0.99128400  1
  N  N3  1  0.40071800  0.04001900  0.59543300  1
  N  N4  1  0.59928200  0.95998000  0.40456700  1
  N  N5  1  0.40799400  0.06316100  0.41589300  1
  N  N6  1  0.59200600  0.93683900  0.58410700  1
  O  O1  1  0.87472500  0.06107400  0.91434900  1
  O  O2  1  0.12527500  0.93892600  0.08565100  1
  O  O3  1  0.92323700  0.89672300  0.90243800  1
  O  O4  1  0.07676400  0.10327700  0.09756200  1
  O  O5  1  0.12758000  0.93350500  0.90910200  1
  O  O6  1  0.87242100  0.06649400  0.09089800  1
  O  O7  1  0.07923800  0.09828300  0.92087400  1
  O  O8  1  0.92076200  0.90171700  0.07912600  1
