# generated using pymatgen
data_ZnH11C16NO8
_symmetry_space_group_name_H-M   'P 1'
_cell_length_a   13.08426900
_cell_length_b   10.94821700
_cell_length_c   9.76437500
_cell_angle_alpha   90.00407400
_cell_angle_beta   95.37886400
_cell_angle_gamma   90.00826000
_symmetry_Int_Tables_number   1
_chemical_formula_structural   ZnH11C16NO8
_chemical_formula_sum   'Zn2 H22 C32 N2 O16'
_cell_volume   1392.58180139
_cell_formula_units_Z   2
loop_
 _symmetry_equiv_pos_site_id
 _symmetry_equiv_pos_as_xyz
  1  'x, y, z'
loop_
 _atom_site_type_symbol
 _atom_site_label
 _atom_site_symmetry_multiplicity
 _atom_site_fract_x
 _atom_site_fract_y
 _atom_site_fract_z
 _atom_site_occupancy
  Zn  Zn1  1  0.50716400  0.50185900  0.65667600  1
  Zn  Zn2  1  0.50822100  0.50164100  0.34550600  1
  H  H1  1  0.83389800  0.55236000  0.33460200  1
  H  H2  1  0.18151400  0.44984200  0.66679600  1
  H  H3  1  0.98932300  0.58026900  0.23540300  1
  H  H4  1  0.02640700  0.41925500  0.76459200  1
  H  H5  1  0.51039500  0.11293700  0.28273600  1
  H  H6  1  0.50428900  0.89060200  0.71921300  1
  H  H7  1  0.51420200  0.89219500  0.28222700  1
  H  H8  1  0.50083400  0.11131100  0.71982100  1
  H  H9  1  0.62443000  0.63121100  0.14529500  1
  H  H10  1  0.39755800  0.36435700  0.85764800  1
  H  H11  1  0.75207000  0.30582600  0.96414500  1
  H  H12  1  0.77468700  0.43352900  0.08097500  1
  H  H13  1  0.87076000  0.31516000  0.07505400  1
  H  H14  1  0.26857000  0.62852900  0.01032200  1
  H  H15  1  0.25025000  0.79179300  0.02336700  1
  H  H16  1  0.15257600  0.69866700  0.93038100  1
  H  H17  1  0.78545200  0.76187500  0.78809000  1
  H  H18  1  0.81465100  0.84495800  0.94733900  1
  H  H19  1  0.72779100  0.90991200  0.81129400  1
  H  H20  1  0.28854500  0.17300200  0.22426200  1
  H  H21  1  0.21841100  0.13688400  0.06051100  1
  H  H22  1  0.16427100  0.24175200  0.17762800  1
  C  C1  1  0.50432700  0.26254000  0.50174800  1
  C  C2  1  0.51105100  0.74096800  0.50040900  1
  C  C3  1  0.30644900  0.50724400  0.47586900  1
  C  C4  1  0.70897500  0.49637400  0.52636000  1
  C  C5  1  0.82202500  0.49209100  0.54122900  1
  C  C6  1  0.19350300  0.51296800  0.46133700  1
  C  C7  1  0.03295400  0.55524300  0.33068500  1
  C  C8  1  0.98276200  0.45269200  0.67285000  1
  C  C9  1  0.13935700  0.55408200  0.34074900  1
  C  C10  1  0.87644800  0.45730100  0.66431300  1
  C  C11  1  0.14045400  0.48059900  0.57190400  1
  C  C12  1  0.87504100  0.52375000  0.43032000  1
  C  C13  1  0.03466400  0.48575800  0.56208600  1
  C  C14  1  0.98094300  0.52174000  0.44125300  1
  C  C15  1  0.50896200  0.06517800  0.37936800  1
  C  C16  1  0.50600100  0.93834800  0.62264900  1
  C  C17  1  0.51132300  0.93924700  0.37906300  1
  C  C18  1  0.50375500  0.06427000  0.62298400  1
  C  C19  1  0.50997800  0.87501000  0.50073700  1
  C  C20  1  0.50520400  0.12850800  0.50133900  1
  C  C21  1  0.57120300  0.57607100  0.08055200  1
  C  C22  1  0.44438500  0.42709500  0.92167600  1
  C  C23  1  0.57020800  0.57922900  0.93860400  1
  C  C24  1  0.44258000  0.42728200  0.06333600  1
  C  C25  1  0.85932100  0.43788000  0.90474100  1
  C  C26  1  0.81111400  0.36869400  0.01313100  1
  C  C27  1  0.16062700  0.68375700  0.14891100  1
  C  C28  1  0.21121200  0.70177800  0.02001500  1
  C  C29  1  0.66585500  0.76391600  0.92219000  1
  C  C30  1  0.75406000  0.82399900  0.86347900  1
  C  C31  1  0.28697800  0.31373900  0.07309200  1
  C  C32  1  0.23632200  0.20970500  0.13801500  1
  N  N1  1  0.50766400  0.50298000  0.86175100  1
  N  N2  1  0.50761900  0.50058500  0.14042400  1
  O  O1  1  0.50412400  0.31969800  0.61986300  1
  O  O2  1  0.51136800  0.68379600  0.38233600  1
  O  O3  1  0.50570100  0.31989000  0.38401100  1
  O  O4  1  0.50966700  0.68361000  0.61814500  1
  O  O5  1  0.35412400  0.50483000  0.60036100  1
  O  O6  1  0.66128400  0.49857700  0.40180200  1
  O  O7  1  0.35543100  0.50567600  0.36465700  1
  O  O8  1  0.65994800  0.49790100  0.63754600  1
  O  O9  1  0.82556800  0.42038700  0.77110800  1
  O  O10  1  0.92359500  0.51569100  0.93809600  1
  O  O11  1  0.19042100  0.59019600  0.23379500  1
  O  O12  1  0.09853900  0.75891500  0.18156700  1
  O  O13  1  0.63446600  0.65249600  0.87578700  1
  O  O14  1  0.61814600  0.81969700  0.00358300  1
  O  O15  1  0.38079200  0.35115900  0.12666100  1
  O  O16  1  0.24008500  0.36967700  0.97918500  1
