# generated using pymatgen
data_CuH17C20(N5O2)2
_symmetry_space_group_name_H-M   'P 1'
_cell_length_a   19.30537600
_cell_length_b   15.96458500
_cell_length_c   14.53283000
_cell_angle_alpha   90.00705400
_cell_angle_beta   89.99616500
_cell_angle_gamma   90.00099800
_symmetry_Int_Tables_number   1
_chemical_formula_structural   CuH17C20(N5O2)2
_chemical_formula_sum   'Cu2 H34 C40 N20 O8'
_cell_volume   4479.05182096
_cell_formula_units_Z   2
loop_
 _symmetry_equiv_pos_site_id
 _symmetry_equiv_pos_as_xyz
  1  'x, y, z'
loop_
 _atom_site_type_symbol
 _atom_site_label
 _atom_site_symmetry_multiplicity
 _atom_site_fract_x
 _atom_site_fract_y
 _atom_site_fract_z
 _atom_site_occupancy
  Cu  Cu1  1  0.50210900  0.50020700  0.59190800  1
  Cu  Cu2  1  0.49789100  0.49979300  0.40809200  1
  H  H1  1  0.28190600  0.50191100  0.36049700  1
  H  H2  1  0.71809400  0.49808800  0.63950300  1
  H  H3  1  0.60588100  0.95362000  0.57988100  1
  H  H4  1  0.39411900  0.04638000  0.42011900  1
  H  H5  1  0.47956200  0.64473400  0.94764900  1
  H  H6  1  0.52043800  0.35526600  0.05235100  1
  H  H7  1  0.27328000  0.44447000  0.71214700  1
  H  H8  1  0.27402600  0.55151200  0.71374900  1
  H  H9  1  0.72672000  0.55553000  0.28785300  1
  H  H10  1  0.72597300  0.44848800  0.28625100  1
  H  H11  1  0.37308700  0.37090200  0.98574100  1
  H  H12  1  0.42239300  0.35067200  0.89255300  1
  H  H13  1  0.62691300  0.62909800  0.01425900  1
  H  H14  1  0.57760600  0.64932800  0.10744700  1
  H  H15  1  0.15473800  0.55648500  0.70742600  1
  H  H16  1  0.15352400  0.44949600  0.71050700  1
  H  H17  1  0.84526200  0.44351500  0.29257400  1
  H  H18  1  0.84647600  0.55050400  0.28949300  1
  H  H19  1  0.16437800  0.55198100  0.29933500  1
  H  H20  1  0.16579300  0.44605100  0.30157500  1
  H  H21  1  0.83562100  0.44801800  0.70066500  1
  H  H22  1  0.83420700  0.55394900  0.69842500  1
  H  H23  1  0.64281800  0.00857500  0.38745800  1
  H  H24  1  0.64279300  0.09535700  0.45364200  1
  H  H25  1  0.35718200  0.99142400  0.61254200  1
  H  H26  1  0.35720700  0.90464300  0.54635800  1
  H  H27  1  0.50018700  0.99317600  0.27932700  1
  H  H28  1  0.45776400  0.90581500  0.31221000  1
  H  H29  1  0.49981300  0.00682300  0.72067300  1
  H  H30  1  0.54223600  0.09418500  0.68779000  1
  H  H31  1  0.34303200  0.56619700  0.00070400  1
  H  H32  1  0.37810300  0.60506800  0.09803900  1
  H  H33  1  0.65696800  0.43380200  0.99929600  1
  H  H34  1  0.62189700  0.39493200  0.90196100  1
  C  C1  1  0.49945100  0.33922500  0.50011100  1
  C  C2  1  0.50054900  0.66077500  0.49988900  1
  C  C3  1  0.36651700  0.50043500  0.50569600  1
  C  C4  1  0.63348300  0.49956500  0.49430400  1
  C  C5  1  0.25250300  0.49961900  0.58980600  1
  C  C6  1  0.74749700  0.50038100  0.41019400  1
  C  C7  1  0.18044500  0.49969100  0.58765500  1
  C  C8  1  0.81955500  0.50030900  0.41234500  1
  C  C9  1  0.14561200  0.50042300  0.50427800  1
  C  C10  1  0.85438800  0.49957600  0.49572200  1
  C  C11  1  0.18308900  0.50153300  0.42318600  1
  C  C12  1  0.81691100  0.49846700  0.57681400  1
  C  C13  1  0.25439400  0.50155200  0.42522300  1
  C  C14  1  0.74560600  0.49844800  0.57477700  1
  C  C15  1  0.28995500  0.50058300  0.50780600  1
  C  C16  1  0.71004500  0.49941600  0.49219400  1
  C  C17  1  0.93060500  0.49983100  0.49797600  1
  C  C18  1  0.06939500  0.50016900  0.50202400  1
  C  C19  1  0.55804700  0.97358700  0.54380600  1
  C  C20  1  0.44195300  0.02641200  0.45619400  1
  C  C21  1  0.55388200  0.02812700  0.45818400  1
  C  C22  1  0.44611800  0.97187200  0.54181600  1
  C  C23  1  0.49894000  0.24935400  0.50018100  1
  C  C24  1  0.50106000  0.75064600  0.49981900  1
  C  C25  1  0.50023300  0.02748100  0.58318200  1
  C  C26  1  0.49976700  0.97251900  0.41681800  1
  C  C27  1  0.49780600  0.08227900  0.49888500  1
  C  C28  1  0.50219400  0.91772100  0.50111500  1
  C  C29  1  0.49843800  0.17389100  0.49976800  1
  C  C30  1  0.50156200  0.82610900  0.50023200  1
  C  C31  1  0.48875000  0.57933000  0.97021600  1
  C  C32  1  0.51125000  0.42067000  0.02978400  1
  C  C33  1  0.44027500  0.52543200  0.02766300  1
  C  C34  1  0.55972500  0.47456700  0.97233700  1
  C  C35  1  0.54677400  0.54896000  0.03264700  1
  C  C36  1  0.45322600  0.45104000  0.96735300  1
  C  C37  1  0.49790200  0.49744700  0.09035200  1
  C  C38  1  0.50209800  0.50255300  0.90964800  1
  C  C39  1  0.49575600  0.49873100  0.19094800  1
  C  C40  1  0.50424400  0.50126800  0.80905200  1
  N  N1  1  0.03518100  0.54755100  0.44040000  1
  N  N2  1  0.96481900  0.45244900  0.55960000  1
  N  N3  1  0.96672700  0.54741100  0.43844100  1
  N  N4  1  0.03327300  0.45258900  0.56155900  1
  N  N5  1  0.49485200  0.49957400  0.27053500  1
  N  N6  1  0.50514800  0.50042500  0.72946500  1
  N  N7  1  0.28769400  0.49830300  0.67619700  1
  N  N8  1  0.71230600  0.50169700  0.32380300  1
  N  N9  1  0.39869900  0.39844800  0.93018200  1
  N  N10  1  0.60130100  0.60155200  0.06981800  1
  N  N11  1  0.14163800  0.50229500  0.67123400  1
  N  N12  1  0.85836200  0.49770500  0.32876600  1
  N  N13  1  0.14872100  0.49933100  0.33652300  1
  N  N14  1  0.85127900  0.50066900  0.66347700  1
  N  N15  1  0.61314700  0.06002100  0.40778400  1
  N  N16  1  0.38685300  0.93997900  0.59221600  1
  N  N17  1  0.50239200  0.94139400  0.32309100  1
  N  N18  1  0.49760800  0.05860600  0.67690900  1
  N  N19  1  0.37203100  0.55072200  0.05890000  1
  N  N20  1  0.62796900  0.44927800  0.94110000  1
  O  O1  1  0.49897600  0.37847700  0.57916800  1
  O  O2  1  0.50102300  0.62152300  0.42083200  1
  O  O3  1  0.50024800  0.37806600  0.42087400  1
  O  O4  1  0.49975200  0.62193400  0.57912600  1
  O  O5  1  0.40123400  0.50355100  0.58306800  1
  O  O6  1  0.59876600  0.49644900  0.41693200  1
  O  O7  1  0.39756100  0.49736200  0.42541500  1
  O  O8  1  0.60243900  0.50263800  0.57458500  1
