# generated using pymatgen
data_VH8(C3O)5
_symmetry_space_group_name_H-M   'P 1'
_cell_length_a   25.33472100
_cell_length_b   6.83959900
_cell_length_c   21.57990100
_cell_angle_alpha   90.00000000
_cell_angle_beta   95.52237700
_cell_angle_gamma   90.00000000
_symmetry_Int_Tables_number   1
_chemical_formula_structural   VH8(C3O)5
_chemical_formula_sum   'V4 H32 C60 O20'
_cell_volume   3721.99535123
_cell_formula_units_Z   4
loop_
 _symmetry_equiv_pos_site_id
 _symmetry_equiv_pos_as_xyz
  1  'x, y, z'
loop_
 _atom_site_type_symbol
 _atom_site_label
 _atom_site_symmetry_multiplicity
 _atom_site_fract_x
 _atom_site_fract_y
 _atom_site_fract_z
 _atom_site_occupancy
  V  V1  1  0.24963400  0.84098500  0.24258000  1
  V  V2  1  0.75036600  0.15901500  0.75742000  1
  V  V3  1  0.25036600  0.34098500  0.25742000  1
  V  V4  1  0.74963400  0.65901500  0.74258000  1
  H  H1  1  0.45852900  0.70638500  0.45082000  1
  H  H2  1  0.54147100  0.29361500  0.54918000  1
  H  H3  1  0.04147100  0.20638500  0.04918000  1
  H  H4  1  0.95852900  0.79361500  0.95082000  1
  H  H5  1  0.53625100  0.67444900  0.52773800  1
  H  H6  1  0.46374900  0.32555100  0.47226200  1
  H  H7  1  0.96374900  0.17444900  0.97226200  1
  H  H8  1  0.03625100  0.82555100  0.02773800  1
  H  H9  1  0.05882900  0.32933400  0.44356800  1
  H  H10  1  0.94117100  0.67066600  0.55643200  1
  H  H11  1  0.44117100  0.82933400  0.05643200  1
  H  H12  1  0.55882900  0.17066600  0.94356800  1
  H  H13  1  0.13017000  0.35761700  0.37329500  1
  H  H14  1  0.86983000  0.64238300  0.62670500  1
  H  H15  1  0.36983000  0.85761700  0.12670500  1
  H  H16  1  0.63017000  0.14238300  0.87329500  1
  H  H17  1  0.13704100  0.73628000  0.36252300  1
  H  H18  1  0.86295900  0.26372000  0.63747700  1
  H  H19  1  0.36295900  0.23628000  0.13747700  1
  H  H20  1  0.63704100  0.76372000  0.86252300  1
  H  H21  1  0.03037800  0.67634600  0.46983200  1
  H  H22  1  0.04667800  0.57783800  0.39599200  1
  H  H23  1  0.09627100  0.58007200  0.46314500  1
  H  H24  1  0.96962200  0.32365400  0.53016800  1
  H  H25  1  0.90373000  0.41992900  0.53685500  1
  H  H26  1  0.95332200  0.42216200  0.60400800  1
  H  H27  1  0.46962200  0.17634600  0.03016800  1
  H  H28  1  0.45332200  0.07783800  0.10400800  1
  H  H29  1  0.40373000  0.08007200  0.03685500  1
  H  H30  1  0.53037800  0.82365400  0.96983200  1
  H  H31  1  0.59627000  0.91992800  0.96314500  1
  H  H32  1  0.54667800  0.92216200  0.89599200  1
  C  C1  1  0.32070100  0.56006800  0.17864400  1
  C  C2  1  0.67929900  0.43993200  0.82135500  1
  C  C3  1  0.17929900  0.06006800  0.32135500  1
  C  C4  1  0.82070100  0.93993200  0.67864500  1
  C  C5  1  0.17191200  0.56014100  0.17198000  1
  C  C6  1  0.82808800  0.43985900  0.82802000  1
  C  C7  1  0.32808800  0.06014100  0.32802000  1
  C  C8  1  0.67191200  0.93985900  0.67198000  1
  C  C9  1  0.52035100  0.81752100  0.51555800  1
  C  C10  1  0.47964900  0.18247900  0.48444200  1
  C  C11  1  0.97964900  0.31752100  0.98444200  1
  C  C12  1  0.02035100  0.68247900  0.01555800  1
  C  C13  1  0.54364400  0.98209400  0.54313400  1
  C  C14  1  0.45635600  0.01790600  0.45686600  1
  C  C15  1  0.95635600  0.48209400  0.95686600  1
  C  C16  1  0.04364400  0.51790600  0.04313400  1
  C  C17  1  0.52325900  0.16453900  0.52755800  1
  C  C18  1  0.47674100  0.83546100  0.47244100  1
  C  C19  1  0.97674100  0.66453900  0.97244100  1
  C  C20  1  0.02325900  0.33546100  0.02755800  1
  C  C21  1  0.58894700  0.96397200  0.58820500  1
  C  C22  1  0.41105300  0.03602800  0.41179500  1
  C  C23  1  0.91105300  0.46397200  0.91179500  1
  C  C24  1  0.08894700  0.53602800  0.08820500  1
  C  C25  1  0.37311300  0.04888500  0.37373400  1
  C  C26  1  0.62688700  0.95111500  0.62626600  1
  C  C27  1  0.12688700  0.54888500  0.12626600  1
  C  C28  1  0.87311300  0.45111500  0.87373400  1
  C  C29  1  0.07649600  0.20060000  0.42559800  1
  C  C30  1  0.92350400  0.79940000  0.57440200  1
  C  C31  1  0.42350400  0.70060000  0.07440100  1
  C  C32  1  0.57649600  0.29940000  0.92559800  1
  C  C33  1  0.11628300  0.21545600  0.38641600  1
  C  C34  1  0.88371800  0.78454400  0.61358400  1
  C  C35  1  0.38371800  0.71545600  0.11358400  1
  C  C36  1  0.61628300  0.28454400  0.88641600  1
  C  C37  1  0.13788400  0.04820200  0.36356800  1
  C  C38  1  0.86211700  0.95179800  0.63643200  1
  C  C39  1  0.36211700  0.54820200  0.13643200  1
  C  C40  1  0.63788400  0.45179800  0.86356800  1
  C  C41  1  0.12001800  0.86737400  0.38027800  1
  C  C42  1  0.87998200  0.13262600  0.61972200  1
  C  C43  1  0.37998200  0.36737400  0.11972200  1
  C  C44  1  0.62001800  0.63262600  0.88027800  1
  C  C45  1  0.08066900  0.85345300  0.41981100  1
  C  C46  1  0.91933100  0.14654700  0.58018900  1
  C  C47  1  0.41933100  0.35345300  0.08018900  1
  C  C48  1  0.58066900  0.64654700  0.91981100  1
  C  C49  1  0.05873800  0.01989800  0.44224000  1
  C  C50  1  0.94126200  0.98010200  0.55776000  1
  C  C51  1  0.44126200  0.51989800  0.05776000  1
  C  C52  1  0.55873800  0.48010200  0.94224000  1
  C  C53  1  0.01738600  0.00569500  0.48292900  1
  C  C54  1  0.98261400  0.99430500  0.51707100  1
  C  C55  1  0.48261400  0.50569500  0.01707100  1
  C  C56  1  0.51738600  0.49430500  0.98292900  1
  C  C57  1  0.06221500  0.65874200  0.43841900  1
  C  C58  1  0.93778500  0.34125800  0.56158100  1
  C  C59  1  0.43778500  0.15874200  0.06158100  1
  C  C60  1  0.56221500  0.84125800  0.93841900  1
  O  O1  1  0.19014000  0.39269000  0.19487000  1
  O  O2  1  0.80986000  0.60731000  0.80513000  1
  O  O3  1  0.30986000  0.89269000  0.30513000  1
  O  O4  1  0.69014000  0.10731000  0.69487000  1
  O  O5  1  0.30133700  0.73487500  0.18811400  1
  O  O6  1  0.69866300  0.26512500  0.81188600  1
  O  O7  1  0.19866300  0.23487500  0.31188600  1
  O  O8  1  0.80133700  0.76512500  0.68811400  1
  O  O9  1  0.19257600  0.73468000  0.18316400  1
  O  O10  1  0.80742400  0.26532000  0.81683600  1
  O  O11  1  0.30742400  0.23468000  0.31683600  1
  O  O12  1  0.69257600  0.76532000  0.68316400  1
  O  O13  1  0.19536100  0.89246200  0.30013400  1
  O  O14  1  0.80464000  0.10753800  0.69986600  1
  O  O15  1  0.30464000  0.39246200  0.19986600  1
  O  O16  1  0.69536100  0.60753800  0.80013400  1
  O  O17  1  0.25211900  0.56714300  0.28730400  1
  O  O18  1  0.74788100  0.43285700  0.71269600  1
  O  O19  1  0.24788100  0.06714300  0.21269600  1
  O  O20  1  0.75211900  0.93285700  0.78730400  1
