# generated using pymatgen
data_Fe2H17C41SNO16
_symmetry_space_group_name_H-M   'P 1'
_cell_length_a   14.14018900
_cell_length_b   12.52629800
_cell_length_c   13.19337400
_cell_angle_alpha   80.68181200
_cell_angle_beta   93.13593100
_cell_angle_gamma   113.75438800
_symmetry_Int_Tables_number   1
_chemical_formula_structural   Fe2H17C41SNO16
_chemical_formula_sum   'Fe2 H17 C41 S1 N1 O16'
_cell_volume   2110.52117405
_cell_formula_units_Z   1
loop_
 _symmetry_equiv_pos_site_id
 _symmetry_equiv_pos_as_xyz
  1  'x, y, z'
loop_
 _atom_site_type_symbol
 _atom_site_label
 _atom_site_symmetry_multiplicity
 _atom_site_fract_x
 _atom_site_fract_y
 _atom_site_fract_z
 _atom_site_occupancy
  Fe  Fe1  1  0.49836500  0.99459600  0.23070400  1
  Fe  Fe2  1  0.51758200  0.00773800  0.77485800  1
  H  H1  1  0.86287700  0.98883500  0.21491700  1
  H  H2  1  0.81158500  0.99555000  0.84412200  1
  H  H3  1  0.97676400  0.99975300  0.82173400  1
  H  H4  1  0.14147200  0.99964300  0.79746600  1
  H  H5  1  0.21144700  0.00489700  0.16466900  1
  H  H6  1  0.06515300  0.16028700  0.24552900  1
  H  H7  1  0.05357600  0.86084500  0.45736400  1
  H  H8  1  0.01979100  0.80026100  0.26910700  1
  H  H9  1  0.46239800  0.84581700  0.53623500  1
  H  H10  1  0.53198000  0.59121300  0.73789800  1
  H  H11  1  0.54868100  0.15347800  0.46959300  1
  H  H12  1  0.47869200  0.40787000  0.26780900  1
  H  H13  1  0.46289500  0.56395600  0.32764200  1
  H  H14  1  0.54635500  0.43370700  0.67836400  1
  H  H15  1  0.26748600  0.23168300  0.51757300  1
  H  H16  1  0.25559900  0.19158100  0.39073600  1
  H  H17  1  0.24524400  0.08221000  0.50328600  1
  C  C1  1  0.85258400  0.99054500  0.13331500  1
  C  C2  1  0.75993900  0.99006500  0.09257100  1
  C  C3  1  0.74489900  0.99020600  0.98688800  1
  C  C4  1  0.82347000  0.99588200  0.92570100  1
  C  C5  1  0.91512400  0.99668100  0.96697100  1
  C  C6  1  0.93043600  0.99371000  0.07117600  1
  C  C7  1  0.99021500  0.99818900  0.90330100  1
  C  C8  1  0.08242600  0.99822400  0.94302000  1
  C  C9  1  0.09906300  0.99616400  0.04699300  1
  C  C10  1  0.02297900  0.99278400  0.11192200  1
  C  C11  1  0.15762600  0.00033900  0.87839200  1
  C  C12  1  0.25218500  0.00330700  0.91608600  1
  C  C13  1  0.26976800  0.00596200  0.02108100  1
  C  C14  1  0.19323700  0.00050700  0.08467600  1
  C  C15  1  0.06640500  0.03400800  0.37505800  1
  C  C16  1  0.05212900  0.91707100  0.38642100  1
  C  C17  1  0.03475500  0.88584900  0.28929200  1
  C  C18  1  0.03925400  0.98534900  0.22317600  1
  C  C19  1  0.68318000  0.99332900  0.16306000  1
  C  C20  1  0.48168600  0.78246600  0.36098900  1
  C  C21  1  0.36627300  0.01444200  0.07197600  1
  C  C22  1  0.50490300  0.20529000  0.28112600  1
  C  C23  1  0.50642600  0.79457300  0.72434900  1
  C  C24  1  0.64871800  0.98234000  0.93452900  1
  C  C25  1  0.53007600  0.21763900  0.64454900  1
  C  C26  1  0.32861200  0.00073300  0.84436000  1
  C  C27  1  0.47747700  0.71160300  0.46342900  1
  C  C28  1  0.47136600  0.76318900  0.54687200  1
  C  C29  1  0.49043600  0.72039900  0.64475800  1
  C  C30  1  0.51304500  0.62211400  0.66135700  1
  C  C31  1  0.50886700  0.56179800  0.58106700  1
  C  C32  1  0.49008600  0.60478400  0.48180400  1
  C  C33  1  0.52577100  0.45916200  0.60127000  1
  C  C34  1  0.52044600  0.39418200  0.52385500  1
  C  C35  1  0.50159100  0.43711700  0.42469100  1
  C  C36  1  0.48423800  0.53937100  0.40458000  1
  C  C37  1  0.53373700  0.28782600  0.54205700  1
  C  C38  1  0.53990000  0.23625200  0.45869900  1
  C  C39  1  0.52075500  0.27913100  0.36083200  1
  C  C40  1  0.49775300  0.37709100  0.34433800  1
  C  C41  1  0.22781700  0.15975100  0.47145500  1
  S  S1  1  0.08955800  0.11954700  0.47677300  1
  N  N1  1  0.05847500  0.07526300  0.27576900  1
  O  O1  1  0.59794100  0.00223100  0.12717600  1
  O  O2  1  0.52368700  0.76810900  0.28087300  1
  O  O3  1  0.70086800  0.98947400  0.26200900  1
  O  O4  1  0.46218100  0.87693900  0.35747400  1
  O  O5  1  0.36040500  0.95064000  0.16251200  1
  O  O6  1  0.45368800  0.10269600  0.04113800  1
  O  O7  1  0.56882700  0.15369600  0.27536100  1
  O  O8  1  0.41312600  0.16372100  0.24028100  1
  O  O9  1  0.44522900  0.85028700  0.72740700  1
  O  O10  1  0.59660000  0.83131200  0.76887500  1
  O  O11  1  0.65478600  0.04722500  0.84440700  1
  O  O12  1  0.56051200  0.89579000  0.96589600  1
  O  O13  1  0.30734100  0.99879900  0.74642000  1
  O  O14  1  0.55658200  0.12777100  0.64967800  1
  O  O15  1  0.41770900  0.00020500  0.87819700  1
  O  O16  1  0.48127500  0.22660500  0.72232300  1
