# generated using pymatgen
data_ZnH22C24N3O4
_symmetry_space_group_name_H-M   'P 1'
_cell_length_a   13.64155900
_cell_length_b   14.02507700
_cell_length_c   15.16378700
_cell_angle_alpha   90.00471800
_cell_angle_beta   89.98751600
_cell_angle_gamma   73.98712300
_symmetry_Int_Tables_number   1
_chemical_formula_structural   ZnH22C24N3O4
_chemical_formula_sum   'Zn2 H44 C48 N6 O8'
_cell_volume   2788.62783114
_cell_formula_units_Z   2
loop_
 _symmetry_equiv_pos_site_id
 _symmetry_equiv_pos_as_xyz
  1  'x, y, z'
loop_
 _atom_site_type_symbol
 _atom_site_label
 _atom_site_symmetry_multiplicity
 _atom_site_fract_x
 _atom_site_fract_y
 _atom_site_fract_z
 _atom_site_occupancy
  Zn  Zn1  1  0.49602100  0.39607200  0.49799300  1
  Zn  Zn2  1  0.48862500  0.61516900  0.49436300  1
  H  H1  1  0.17551600  0.71192300  0.39926700  1
  H  H2  1  0.85191400  0.68075500  0.34690400  1
  H  H3  1  0.99819100  0.73755400  0.35668700  1
  H  H4  1  0.17256900  0.45008300  0.53510900  1
  H  H5  1  0.80107100  0.30731800  0.59683600  1
  H  H6  1  0.08559700  0.36469200  0.58401800  1
  H  H7  1  0.75269000  0.57327800  0.39160200  1
  H  H8  1  0.39735000  0.40391200  0.93625200  1
  H  H9  1  0.39085200  0.40952100  0.77599900  1
  H  H10  1  0.56292100  0.62141200  0.77538200  1
  H  H11  1  0.57326200  0.61322100  0.93558900  1
  H  H12  1  0.45223400  0.65927800  0.05746900  1
  H  H13  1  0.46035800  0.65779000  0.21652500  1
  H  H14  1  0.54919200  0.34155500  0.21618500  1
  H  H15  1  0.64544800  0.72351300  0.49422700  1
  H  H16  1  0.32561600  0.81213300  0.48410900  1
  H  H17  1  0.32501400  0.98657300  0.48235200  1
  H  H18  1  0.39944500  0.10364900  0.37756300  1
  H  H19  1  0.40852400  0.27519300  0.38557900  1
  H  H20  1  0.57192500  0.03921200  0.61342000  1
  H  H21  1  0.41986300  0.28517700  0.08010800  1
  H  H22  1  0.53692900  0.21090300  0.13028500  1
  H  H23  1  0.50953400  0.19183000  0.01665700  1
  H  H24  1  0.69621900  0.33794400  0.01132000  1
  H  H25  1  0.68125500  0.21532900  0.99380900  1
  H  H26  1  0.69222200  0.25893300  0.10467500  1
  H  H27  1  0.65467400  0.96051500  0.36385800  1
  H  H28  1  0.72507100  0.83183900  0.37450200  1
  H  H29  1  0.78312200  0.92812700  0.40684700  1
  H  H30  1  0.71045900  0.84095600  0.61689000  1
  H  H31  1  0.80515700  0.88982300  0.56506200  1
  H  H32  1  0.78617800  0.77540600  0.52548800  1
  H  H33  1  0.73730800  0.16588700  0.57210600  1
  H  H34  1  0.71185800  0.08654300  0.65772400  1
  H  H35  1  0.74179900  0.19902400  0.68738300  1
  H  H36  1  0.46383000  0.25028300  0.71102800  1
  H  H37  1  0.57829000  0.25767800  0.76783800  1
  H  H38  1  0.56013600  0.13857000  0.74103400  1
  H  H39  1  0.97469500  0.24240000  0.78220300  1
  H  H40  1  0.00122500  0.35146400  0.73722400  1
  H  H41  1  0.10108300  0.23573900  0.74216900  1
  H  H42  1  0.04105100  0.14933600  0.53809400  1
  H  H43  1  0.08775600  0.09968000  0.64458400  1
  H  H44  1  0.13800800  0.19265400  0.59348000  1
  C  C1  1  0.47983600  0.51250000  0.66833400  1
  C  C2  1  0.69210300  0.45680100  0.50555500  1
  C  C3  1  0.50416300  0.49924600  0.32385400  1
  C  C4  1  0.29327700  0.55418800  0.48493700  1
  C  C5  1  0.03471200  0.67473300  0.39765600  1
  C  C6  1  0.18311400  0.57811400  0.47015300  1
  C  C7  1  0.84739300  0.35027100  0.56880800  1
  C  C8  1  0.94862300  0.32630600  0.59042000  1
  C  C9  1  0.00824300  0.38483500  0.56123300  1
  C  C10  1  0.96797900  0.46624200  0.50658100  1
  C  C11  1  0.86553100  0.48688000  0.48178300  1
  C  C12  1  0.02692200  0.52824300  0.47686700  1
  C  C13  1  0.98188700  0.60847400  0.42352800  1
  C  C14  1  0.88428800  0.62208300  0.39322800  1
  C  C15  1  0.82712800  0.56128700  0.42068800  1
  C  C16  1  0.12989100  0.51267400  0.49770400  1
  C  C17  1  0.13451100  0.66087000  0.42226500  1
  C  C18  1  0.80399500  0.43069600  0.51629800  1
  C  C19  1  0.43632300  0.44997300  0.90152200  1
  C  C20  1  0.43201200  0.45355500  0.81073900  1
  C  C21  1  0.47812100  0.51426300  0.76479200  1
  C  C22  1  0.52611200  0.57368900  0.81044600  1
  C  C23  1  0.53209400  0.56880300  0.90122200  1
  C  C24  1  0.48897600  0.50542700  0.94736000  1
  C  C25  1  0.47458200  0.58873200  0.09125000  1
  C  C26  1  0.47894000  0.58777700  0.18186300  1
  C  C27  1  0.50388400  0.49891900  0.22712100  1
  C  C28  1  0.52620300  0.41081900  0.18063200  1
  C  C29  1  0.52249900  0.41127100  0.08916100  1
  C  C30  1  0.49540500  0.50113800  0.04421300  1
  C  C31  1  0.57783800  0.88012500  0.49380400  1
  C  C32  1  0.57533100  0.78208700  0.49377900  1
  C  C33  1  0.39721300  0.83083200  0.48655800  1
  C  C34  1  0.39674200  0.92943100  0.48494400  1
  C  C35  1  0.48734500  0.95468700  0.48995100  1
  C  C36  1  0.44006100  0.12637200  0.43123200  1
  C  C37  1  0.44629000  0.22289100  0.43545500  1
  C  C38  1  0.54393800  0.18787500  0.56445700  1
  C  C39  1  0.53799900  0.09102000  0.56197200  1
  C  C40  1  0.48797400  0.05906000  0.49423500  1
  C  C41  1  0.50201500  0.24853600  0.06908100  1
  C  C42  1  0.66151300  0.28106400  0.03776900  1
  C  C43  1  0.71098800  0.90628100  0.40465500  1
  C  C44  1  0.74720000  0.84923800  0.55316500  1
  C  C45  1  0.70231100  0.16461200  0.63794100  1
  C  C46  1  0.54696300  0.21610600  0.71808200  1
  C  C47  1  0.01846100  0.26973900  0.73112300  1
  C  C48  1  0.06854000  0.16745500  0.60310900  1
  N  N1  1  0.48590100  0.75864800  0.49162900  1
  N  N2  1  0.49858400  0.25258200  0.50063600  1
  N  N3  1  0.55247500  0.32119800  0.04135000  1
  N  N4  1  0.67164100  0.90502500  0.49253100  1
  N  N5  1  0.59606800  0.21908600  0.63446000  1
  N  N6  1  0.98915200  0.24323100  0.64525300  1
  O  O1  1  0.48525400  0.42808800  0.62854000  1
  O  O2  1  0.48008000  0.59403800  0.62600700  1
  O  O3  1  0.64716400  0.38490700  0.50569300  1
  O  O4  1  0.64070700  0.55079500  0.50300800  1
  O  O5  1  0.50474900  0.41731500  0.36630300  1
  O  O6  1  0.49868600  0.58348300  0.36383100  1
  O  O7  1  0.34395200  0.46011400  0.48918400  1
  O  O8  1  0.33750600  0.62642200  0.48657600  1
