# generated using pymatgen
data_FeH10C21NO8
_symmetry_space_group_name_H-M   'P 1'
_cell_length_a   15.68249700
_cell_length_b   11.98117700
_cell_length_c   13.52424600
_cell_angle_alpha   91.42566400
_cell_angle_beta   87.14003300
_cell_angle_gamma   107.12769500
_symmetry_Int_Tables_number   1
_chemical_formula_structural   FeH10C21NO8
_chemical_formula_sum   'Fe2 H20 C42 N2 O16'
_cell_volume   2425.27492283
_cell_formula_units_Z   2
loop_
 _symmetry_equiv_pos_site_id
 _symmetry_equiv_pos_as_xyz
  1  'x, y, z'
loop_
 _atom_site_type_symbol
 _atom_site_label
 _atom_site_symmetry_multiplicity
 _atom_site_fract_x
 _atom_site_fract_y
 _atom_site_fract_z
 _atom_site_occupancy
  Fe  Fe1  1  0.52683700  0.01713700  0.17998400  1
  Fe  Fe2  1  0.52138100  0.01097000  0.74270500  1
  H  H1  1  0.93924600  0.02502600  0.81023300  1
  H  H2  1  0.18606800  0.96609500  0.81043900  1
  H  H3  1  0.04137700  0.96090900  0.84831600  1
  H  H4  1  0.79844200  0.02874900  0.76219900  1
  H  H5  1  0.24542100  0.98513900  0.16410700  1
  H  H6  1  0.09375500  0.97333800  0.20251500  1
  H  H7  1  0.79831300  0.97895200  0.19280900  1
  H  H8  1  0.42267400  0.43958100  0.67475100  1
  H  H9  1  0.52072600  0.62406300  0.70518000  1
  H  H10  1  0.49412700  0.38789200  0.21587900  1
  H  H11  1  0.39099200  0.49130800  0.27856000  1
  H  H12  1  0.48164500  0.11640900  0.46505800  1
  H  H13  1  0.49099900  0.88015800  0.46530300  1
  H  H14  1  0.52788800  0.42054500  0.70575200  1
  H  H15  1  0.58649800  0.49241100  0.27203500  1
  H  H16  1  0.48758100  0.58812500  0.21463200  1
  H  H17  1  0.65567100  0.58380100  0.69931200  1
  H  H18  1  0.65325400  0.55148000  0.57666500  1
  H  H19  1  0.93224000  0.04839000  0.29940000  1
  H  H20  1  0.89762300  0.90060000  0.29747300  1
  C  C1  1  0.88729700  0.00818900  0.86761900  1
  C  C2  1  0.28572200  0.98048600  0.91644700  1
  C  C3  1  0.20009700  0.96966100  0.88801700  1
  C  C4  1  0.13262300  0.96971500  0.95740900  1
  C  C5  1  0.05004400  0.96894000  0.92672700  1
  C  C6  1  0.98222100  0.97665700  0.99480500  1
  C  C7  1  0.80638800  0.01449100  0.83935100  1
  C  C8  1  0.73518400  0.99674700  0.90620200  1
  C  C9  1  0.90002100  0.98613900  0.96533100  1
  C  C10  1  0.83044500  0.97933800  0.03546100  1
  C  C11  1  0.74629400  0.98097600  0.00551500  1
  C  C12  1  0.30217100  0.98706600  0.01743100  1
  C  C13  1  0.23238200  0.97922100  0.08612900  1
  C  C14  1  0.14827100  0.97305600  0.05622000  1
  C  C15  1  0.08023600  0.97247300  0.12494700  1
  C  C16  1  0.99726500  0.97401600  0.09467700  1
  C  C17  1  0.92988600  0.97505800  0.16418500  1
  C  C18  1  0.84736600  0.97611300  0.13491700  1
  C  C19  1  0.67009600  0.97083900  0.07714500  1
  C  C20  1  0.47933500  0.79870200  0.28590400  1
  C  C21  1  0.39195200  0.01226900  0.05560900  1
  C  C22  1  0.48014300  0.18499300  0.28962000  1
  C  C23  1  0.53121100  0.82250900  0.63170100  1
  C  C24  1  0.64865600  0.99033600  0.86738000  1
  C  C25  1  0.49451600  0.20219500  0.64258000  1
  C  C26  1  0.35515200  0.98349200  0.83793100  1
  C  C27  1  0.48700000  0.20842900  0.46553300  1
  C  C28  1  0.49080500  0.26845200  0.55380200  1
  C  C29  1  0.49337400  0.38551400  0.55345700  1
  C  C30  1  0.49293900  0.45205500  0.64838800  1
  C  C31  1  0.53923200  0.58157300  0.63717800  1
  C  C32  1  0.48988700  0.26187100  0.37665000  1
  C  C33  1  0.49729800  0.38010400  0.37496900  1
  C  C34  1  0.49574100  0.44048100  0.46341400  1
  C  C35  1  0.49518800  0.56255400  0.46145500  1
  C  C36  1  0.51037600  0.62872000  0.54781800  1
  C  C37  1  0.50622200  0.74221900  0.54800000  1
  C  C38  1  0.51404500  0.44630100  0.28077600  1
  C  C39  1  0.46354800  0.53622600  0.28212700  1
  C  C40  1  0.48019100  0.61143500  0.37364700  1
  C  C41  1  0.48013300  0.72847400  0.37402900  1
  C  C42  1  0.49089600  0.78993500  0.46230600  1
  N  N1  1  0.63583500  0.60475800  0.63137100  1
  N  N2  1  0.94448100  0.97414800  0.26724300  1
  O  O1  1  0.62056200  0.04223700  0.07234300  1
  O  O2  1  0.43566600  0.75397400  0.20711100  1
  O  O3  1  0.64853800  0.88677600  0.14237700  1
  O  O4  1  0.52171200  0.91124300  0.29171500  1
  O  O5  1  0.40934300  0.94131800  0.11901000  1
  O  O6  1  0.44946200  0.11563200  0.04084500  1
  O  O7  1  0.55182400  0.17880700  0.23795200  1
  O  O8  1  0.40851800  0.09456800  0.28808200  1
  O  O9  1  0.46835000  0.85058500  0.68563700  1
  O  O10  1  0.61268600  0.89394900  0.63030200  1
  O  O11  1  0.64550200  0.05608000  0.79236700  1
  O  O12  1  0.57684300  0.90752800  0.89635400  1
  O  O13  1  0.33296100  0.96268400  0.74551200  1
  O  O14  1  0.53645700  0.12214300  0.63279100  1
  O  O15  1  0.43934900  0.00934000  0.85909000  1
  O  O16  1  0.44774200  0.21022300  0.72419200  1
