# generated using pymatgen
data_Cu3H18C36N4(O6F)2
_symmetry_space_group_name_H-M   'P 1'
_cell_length_a   30.62286800
_cell_length_b   30.74405500
_cell_length_c   24.55601300
_cell_angle_alpha   90.00000000
_cell_angle_beta   128.56904100
_cell_angle_gamma   90.00000000
_symmetry_Int_Tables_number   1
_chemical_formula_structural   Cu3H18C36N4(O6F)2
_chemical_formula_sum   'Cu12 H72 C144 N16 O48 F8'
_cell_volume   18075.58873291
_cell_formula_units_Z   4
loop_
 _symmetry_equiv_pos_site_id
 _symmetry_equiv_pos_as_xyz
  1  'x, y, z'
loop_
 _atom_site_type_symbol
 _atom_site_label
 _atom_site_symmetry_multiplicity
 _atom_site_fract_x
 _atom_site_fract_y
 _atom_site_fract_z
 _atom_site_occupancy
  Cu  Cu1  1  0.77878100  0.71803300  0.49773200  1
  Cu  Cu2  1  0.22121900  0.71803300  0.50226800  1
  Cu  Cu3  1  0.27878100  0.21803300  0.49773200  1
  Cu  Cu4  1  0.72121900  0.21803300  0.50226800  1
  Cu  Cu5  1  0.71898700  0.77880300  0.50202600  1
  Cu  Cu6  1  0.28101300  0.77880300  0.49797400  1
  Cu  Cu7  1  0.21898700  0.27880300  0.50202600  1
  Cu  Cu8  1  0.78101300  0.27880300  0.49797400  1
  Cu  Cu9  1  0.46732200  0.49733200  0.43068500  1
  Cu  Cu10  1  0.53267800  0.49733200  0.56931500  1
  Cu  Cu11  1  0.96732200  0.99733200  0.43068500  1
  Cu  Cu12  1  0.03267800  0.99733200  0.56931500  1
  H  H1  1  0.60906900  0.81338700  0.28188900  1
  H  H2  1  0.39093100  0.81338700  0.71811000  1
  H  H3  1  0.10906900  0.31338700  0.28188900  1
  H  H4  1  0.89093100  0.31338700  0.71811000  1
  H  H5  1  0.54740300  0.81455200  0.15507300  1
  H  H6  1  0.45259700  0.81455200  0.84492700  1
  H  H7  1  0.04740300  0.31455200  0.15507300  1
  H  H8  1  0.95259700  0.31455200  0.84492700  1
  H  H9  1  0.60113500  0.68625900  0.15442200  1
  H  H10  1  0.39886500  0.68625900  0.84557800  1
  H  H11  1  0.10113500  0.18625900  0.15442200  1
  H  H12  1  0.89886500  0.18625900  0.84557800  1
  H  H13  1  0.66361600  0.68572100  0.28054800  1
  H  H14  1  0.33638400  0.68572100  0.71945200  1
  H  H15  1  0.16361600  0.18572100  0.28054800  1
  H  H16  1  0.83638400  0.18572100  0.71945200  1
  H  H17  1  0.84055100  0.88440200  0.56674300  1
  H  H18  1  0.15944900  0.88440200  0.43325700  1
  H  H19  1  0.34055100  0.38440200  0.56674300  1
  H  H20  1  0.65944900  0.38440200  0.43325700  1
  H  H21  1  0.89823800  0.94005600  0.56705400  1
  H  H22  1  0.10176200  0.94005600  0.43294500  1
  H  H23  1  0.39823800  0.44005600  0.56705400  1
  H  H24  1  0.60176200  0.44005600  0.43294500  1
  H  H25  1  0.86954900  0.86044400  0.35701600  1
  H  H26  1  0.13045100  0.86044400  0.64298400  1
  H  H27  1  0.36954900  0.36044400  0.35701600  1
  H  H28  1  0.63045100  0.36044400  0.64298400  1
  H  H29  1  0.93633900  0.83503600  0.43450800  1
  H  H30  1  0.06366100  0.83503600  0.56549200  1
  H  H31  1  0.43633900  0.33503600  0.43450800  1
  H  H32  1  0.56366100  0.33503600  0.56549200  1
  H  H33  1  0.81571800  0.80387400  0.36066900  1
  H  H34  1  0.18428200  0.80387400  0.63933100  1
  H  H35  1  0.31571800  0.30387400  0.36066900  1
  H  H36  1  0.68428200  0.30387400  0.63933100  1
  H  H37  1  0.88261600  0.77824600  0.43756900  1
  H  H38  1  0.11738400  0.77824600  0.56243100  1
  H  H39  1  0.38261600  0.27824600  0.43756900  1
  H  H40  1  0.61738400  0.27824600  0.56243100  1
  H  H41  1  0.79577600  0.77063300  0.71950400  1
  H  H42  1  0.20422400  0.77063300  0.28049600  1
  H  H43  1  0.29577600  0.27063300  0.71950400  1
  H  H44  1  0.70422400  0.27063300  0.28049600  1
  H  H45  1  0.85809700  0.76793700  0.84547700  1
  H  H46  1  0.14190300  0.76793700  0.15452300  1
  H  H47  1  0.35809700  0.26793700  0.84547700  1
  H  H48  1  0.64190300  0.26793700  0.15452300  1
  H  H49  1  0.98852700  0.71925600  0.84457700  1
  H  H50  1  0.01147300  0.71925600  0.15542300  1
  H  H51  1  0.48852700  0.21925600  0.84457700  1
  H  H52  1  0.51147300  0.21925600  0.15542300  1
  H  H53  1  0.92541700  0.72095300  0.71797200  1
  H  H54  1  0.07458300  0.72095300  0.28202700  1
  H  H55  1  0.42541700  0.22095300  0.71797200  1
  H  H56  1  0.57458300  0.22095300  0.28202700  1
  H  H57  1  0.65506600  0.68785200  0.57882200  1
  H  H58  1  0.34493400  0.68785200  0.42117800  1
  H  H59  1  0.15506600  0.18785200  0.57882200  1
  H  H60  1  0.84493400  0.18785200  0.42117800  1
  H  H61  1  0.60098000  0.62992000  0.58154400  1
  H  H62  1  0.39902000  0.62992000  0.41845600  1
  H  H63  1  0.10098000  0.12992000  0.58154400  1
  H  H64  1  0.89902000  0.12992000  0.41845600  1
  H  H65  1  0.62795900  0.52851000  0.43206800  1
  H  H66  1  0.37204100  0.52851000  0.56793200  1
  H  H67  1  0.12795900  0.02851000  0.43206800  1
  H  H68  1  0.87204100  0.02851000  0.56793200  1
  H  H69  1  0.68609900  0.58541800  0.43297200  1
  H  H70  1  0.31390100  0.58541800  0.56702800  1
  H  H71  1  0.18609900  0.08541800  0.43297200  1
  H  H72  1  0.81390100  0.08541800  0.56702800  1
  C  C1  1  0.80682500  0.80768900  0.49783900  1
  C  C2  1  0.19317500  0.80768900  0.50216100  1
  C  C3  1  0.30682500  0.30768900  0.49783900  1
  C  C4  1  0.69317500  0.30768900  0.50216100  1
  C  C5  1  0.67958500  0.74908800  0.36611900  1
  C  C6  1  0.32041500  0.74908800  0.63388100  1
  C  C7  1  0.17958500  0.24908800  0.36611900  1
  C  C8  1  0.82041500  0.24908800  0.63388100  1
  C  C9  1  0.69099900  0.68915300  0.50212200  1
  C  C10  1  0.30900100  0.68915300  0.49787800  1
  C  C11  1  0.19099900  0.18915300  0.50212200  1
  C  C12  1  0.80900100  0.18915300  0.49787800  1
  C  C13  1  0.81794100  0.74749700  0.63362800  1
  C  C14  1  0.18205800  0.74749700  0.36637200  1
  C  C15  1  0.31794100  0.24749700  0.63362800  1
  C  C16  1  0.68205800  0.24749700  0.36637200  1
  C  C17  1  0.60729500  0.78529600  0.25411300  1
  C  C18  1  0.39270500  0.78529600  0.74588700  1
  C  C19  1  0.10729500  0.28529600  0.25411300  1
  C  C20  1  0.89270500  0.28529600  0.74588700  1
  C  C21  1  0.57272800  0.78608200  0.18226100  1
  C  C22  1  0.42727200  0.78608200  0.81773900  1
  C  C23  1  0.07272800  0.28608200  0.18226100  1
  C  C24  1  0.92727200  0.28608200  0.81773900  1
  C  C25  1  0.56992300  0.75049200  0.14578800  1
  C  C26  1  0.43007700  0.75049200  0.85421200  1
  C  C27  1  0.06992300  0.25049200  0.14578800  1
  C  C28  1  0.93007700  0.25049200  0.85421200  1
  C  C29  1  0.60231700  0.71434400  0.18176600  1
  C  C30  1  0.39768300  0.71434400  0.81823400  1
  C  C31  1  0.10231700  0.21434400  0.18176600  1
  C  C32  1  0.89768300  0.21434400  0.81823400  1
  C  C33  1  0.63814200  0.71414800  0.25346100  1
  C  C34  1  0.36185800  0.71414800  0.74653900  1
  C  C35  1  0.13814200  0.21414800  0.25346100  1
  C  C36  1  0.86185800  0.21414800  0.74653900  1
  C  C37  1  0.64062600  0.74950100  0.28995800  1
  C  C38  1  0.35937400  0.74950100  0.71004200  1
  C  C39  1  0.14062600  0.24950100  0.28995800  1
  C  C40  1  0.85937400  0.24950100  0.71004200  1
  C  C41  1  0.46688400  0.75080300  0.93044600  1
  C  C42  1  0.53311600  0.75080300  0.06955400  1
  C  C43  1  0.96688400  0.25080300  0.93044600  1
  C  C44  1  0.03311600  0.25080300  0.06955400  1
  C  C45  1  0.85807400  0.83782800  0.45867200  1
  C  C46  1  0.14192600  0.83782800  0.54132800  1
  C  C47  1  0.35807400  0.33782800  0.45867200  1
  C  C48  1  0.64192600  0.33782800  0.54132800  1
  C  C49  1  0.83960200  0.84169000  0.49694400  1
  C  C50  1  0.16039800  0.84169000  0.50305600  1
  C  C51  1  0.33960200  0.34169000  0.49694400  1
  C  C52  1  0.66039800  0.34169000  0.50305600  1
  C  C53  1  0.85357300  0.87966400  0.53514500  1
  C  C54  1  0.14642700  0.87966400  0.46485500  1
  C  C55  1  0.35357300  0.37966500  0.53514500  1
  C  C56  1  0.64642700  0.37966400  0.46485500  1
  C  C57  1  0.88649200  0.91118900  0.53554700  1
  C  C58  1  0.11350800  0.91118900  0.46445300  1
  C  C59  1  0.38649200  0.41118900  0.53554700  1
  C  C60  1  0.61350800  0.41118900  0.46445300  1
  C  C61  1  0.90326900  0.90618000  0.49488100  1
  C  C62  1  0.09673000  0.90618000  0.50511900  1
  C  C63  1  0.40326900  0.40618000  0.49488100  1
  C  C64  1  0.59673000  0.40618000  0.50511900  1
  C  C65  1  0.88689600  0.86887900  0.45622800  1
  C  C66  1  0.11310400  0.86887900  0.54377200  1
  C  C67  1  0.38689600  0.36887900  0.45622800  1
  C  C68  1  0.61310400  0.36887900  0.54377200  1
  C  C69  1  0.89250700  0.84464300  0.40872700  1
  C  C70  1  0.10749300  0.84464300  0.59127300  1
  C  C71  1  0.39250700  0.34464300  0.40872700  1
  C  C72  1  0.60749300  0.34464300  0.59127300  1
  C  C73  1  0.85809000  0.80825000  0.41100200  1
  C  C74  1  0.14191000  0.80825000  0.58899800  1
  C  C75  1  0.35809000  0.30825000  0.41100200  1
  C  C76  1  0.64191000  0.30825000  0.58899800  1
  C  C77  1  0.83807600  0.75934400  0.74644800  1
  C  C78  1  0.16192400  0.75934400  0.25355200  1
  C  C79  1  0.33807600  0.25934400  0.74644800  1
  C  C80  1  0.66192400  0.25934400  0.25355200  1
  C  C81  1  0.87338700  0.75744500  0.81810900  1
  C  C82  1  0.12661200  0.75744500  0.18189100  1
  C  C83  1  0.37338700  0.25744500  0.81810900  1
  C  C84  1  0.62661200  0.25744500  0.18189100  1
  C  C85  1  0.92778600  0.74340400  0.85408200  1
  C  C86  1  0.07221400  0.74340400  0.14591800  1
  C  C87  1  0.42778600  0.24340400  0.85408200  1
  C  C88  1  0.57221400  0.24340400  0.14591800  1
  C  C89  1  0.94624000  0.73061300  0.81753300  1
  C  C90  1  0.05376000  0.73061300  0.18246700  1
  C  C91  1  0.44624000  0.23061300  0.81753300  1
  C  C92  1  0.55376000  0.23061300  0.18246700  1
  C  C93  1  0.91035400  0.73131700  0.74566300  1
  C  C94  1  0.08964600  0.73131700  0.25433700  1
  C  C95  1  0.41035400  0.23131700  0.74566300  1
  C  C96  1  0.58964600  0.23131700  0.25433700  1
  C  C97  1  0.85624700  0.74606700  0.70984200  1
  C  C98  1  0.14375300  0.74606700  0.29015800  1
  C  C99  1  0.35624700  0.24606700  0.70984200  1
  C  C100  1  0.64375300  0.24606700  0.29015800  1
  C  C101  1  0.03442300  0.74254300  0.06962400  1
  C  C102  1  0.96557700  0.74254300  0.93037500  1
  C  C103  1  0.53442300  0.24254300  0.06962400  1
  C  C104  1  0.46557700  0.24254300  0.93037500  1
  C  C105  1  0.64264100  0.61828400  0.46548700  1
  C  C106  1  0.35735900  0.61828400  0.53451300  1
  C  C107  1  0.14264100  0.11828400  0.46548700  1
  C  C108  1  0.85735900  0.11828400  0.53451300  1
  C  C109  1  0.65887200  0.65536600  0.50459300  1
  C  C110  1  0.34112800  0.65536600  0.49540700  1
  C  C111  1  0.15887200  0.15536600  0.50459300  1
  C  C112  1  0.84112800  0.15536600  0.49540700  1
  C  C113  1  0.64301100  0.65940100  0.54641900  1
  C  C114  1  0.35698900  0.65940100  0.45358100  1
  C  C115  1  0.14301100  0.15940100  0.54641900  1
  C  C116  1  0.85698900  0.15940100  0.45358100  1
  C  C117  1  0.61268900  0.62641000  0.54836500  1
  C  C118  1  0.38731100  0.62641000  0.45163500  1
  C  C119  1  0.11268900  0.12641000  0.54836500  1
  C  C120  1  0.88731100  0.12641000  0.45163500  1
  C  C121  1  0.59550300  0.59015700  0.50581200  1
  C  C122  1  0.40449700  0.59015700  0.49418800  1
  C  C123  1  0.09550300  0.09015700  0.50581200  1
  C  C124  1  0.90449700  0.09015700  0.49418800  1
  C  C125  1  0.61128500  0.58804400  0.46453300  1
  C  C126  1  0.38871500  0.58804400  0.53546700  1
  C  C127  1  0.11128500  0.08804400  0.46453300  1
  C  C128  1  0.88871500  0.08804400  0.53546700  1
  C  C129  1  0.60735000  0.56064700  0.41192400  1
  C  C130  1  0.39265000  0.56064700  0.58807600  1
  C  C131  1  0.10735000  0.06064700  0.41192400  1
  C  C132  1  0.89265000  0.06064700  0.58807600  1
  C  C133  1  0.64389100  0.59637500  0.41269700  1
  C  C134  1  0.35610900  0.59637500  0.58730300  1
  C  C135  1  0.14389100  0.09637500  0.41269700  1
  C  C136  1  0.85610900  0.09637500  0.58730300  1
  C  C137  1  0.43889800  0.55639300  0.49623100  1
  C  C138  1  0.56110200  0.55639300  0.50376800  1
  C  C139  1  0.93889800  0.05639300  0.49623100  1
  C  C140  1  0.06110200  0.05639300  0.50376800  1
  C  C141  1  0.93881000  0.93849400  0.49639400  1
  C  C142  1  0.06119000  0.93849400  0.50360600  1
  C  C143  1  0.43881000  0.43849400  0.49639400  1
  C  C144  1  0.56119000  0.43849400  0.50360600  1
  N  N1  1  0.51651300  0.71299900  0.03437900  1
  N  N2  1  0.48348700  0.71299900  0.96562100  1
  N  N3  1  0.01651300  0.21299900  0.03437900  1
  N  N4  1  0.98348700  0.21299900  0.96562100  1
  N  N5  1  0.48373000  0.78867200  0.96558800  1
  N  N6  1  0.51627000  0.78867200  0.03441200  1
  N  N7  1  0.98373000  0.28867200  0.96558800  1
  N  N8  1  0.01627000  0.28867200  0.03441200  1
  N  N9  1  0.02121100  0.74235200  0.96606500  1
  N  N10  1  0.97878900  0.74235200  0.03393500  1
  N  N11  1  0.52121100  0.24235200  0.96606500  1
  N  N12  1  0.47878900  0.24235200  0.03393500  1
  N  N13  1  0.05523400  0.74258300  0.03490600  1
  N  N14  1  0.94476600  0.74258300  0.96509400  1
  N  N15  1  0.55523400  0.24258300  0.03490600  1
  N  N16  1  0.44476600  0.24258300  0.96509400  1
  O  O1  1  0.81668100  0.76702600  0.49257700  1
  O  O2  1  0.18331900  0.76702600  0.50742300  1
  O  O3  1  0.31668100  0.26702600  0.49257700  1
  O  O4  1  0.68331900  0.26702600  0.50742300  1
  O  O5  1  0.76907300  0.81941300  0.50426200  1
  O  O6  1  0.23092700  0.81941300  0.49573800  1
  O  O7  1  0.26907300  0.31941300  0.50426200  1
  O  O8  1  0.73092700  0.31941300  0.49573800  1
  O  O9  1  0.72311800  0.72340000  0.39677000  1
  O  O10  1  0.27688200  0.72340000  0.60323000  1
  O  O11  1  0.22311800  0.22340000  0.39677000  1
  O  O12  1  0.77688200  0.22340000  0.60323000  1
  O  O13  1  0.66984300  0.77443000  0.40053200  1
  O  O14  1  0.33015700  0.77443000  0.59946800  1
  O  O15  1  0.16984300  0.27443000  0.40053200  1
  O  O16  1  0.83015700  0.27443000  0.59946800  1
  O  O17  1  0.72975300  0.67729400  0.49755500  1
  O  O18  1  0.27024700  0.67729400  0.50244500  1
  O  O19  1  0.22975300  0.17729400  0.49755500  1
  O  O20  1  0.77024700  0.17729400  0.50244500  1
  O  O21  1  0.67995500  0.72986300  0.50514600  1
  O  O22  1  0.32004500  0.72986300  0.49485300  1
  O  O23  1  0.17995500  0.22986300  0.50514600  1
  O  O24  1  0.82004500  0.22986300  0.49485300  1
  O  O25  1  0.82873900  0.72341200  0.59912700  1
  O  O26  1  0.17126100  0.72341200  0.40087200  1
  O  O27  1  0.32873900  0.22341200  0.59912700  1
  O  O28  1  0.67126100  0.22341200  0.40087200  1
  O  O29  1  0.77367200  0.77238600  0.60295800  1
  O  O30  1  0.22632800  0.77238600  0.39704200  1
  O  O31  1  0.27367200  0.27238600  0.60295800  1
  O  O32  1  0.72632800  0.27238600  0.39704200  1
  O  O33  1  0.42687700  0.54334500  0.43737500  1
  O  O34  1  0.57312300  0.54334500  0.56262500  1
  O  O35  1  0.92687700  0.04334500  0.43737500  1
  O  O36  1  0.07312300  0.04334500  0.56262500  1
  O  O37  1  0.48057400  0.54077000  0.55712600  1
  O  O38  1  0.51942600  0.54077000  0.44287300  1
  O  O39  1  0.98057400  0.04077000  0.55712600  1
  O  O40  1  0.01942600  0.04077000  0.44287300  1
  O  O41  1  0.92686000  0.95134700  0.43745600  1
  O  O42  1  0.07314000  0.95134700  0.56254400  1
  O  O43  1  0.42686000  0.45134700  0.43745600  1
  O  O44  1  0.57314000  0.45134700  0.56254400  1
  O  O45  1  0.98066700  0.95396500  0.55721800  1
  O  O46  1  0.01933300  0.95396500  0.44278200  1
  O  O47  1  0.48066700  0.45396500  0.55721800  1
  O  O48  1  0.51933300  0.45396500  0.44278200  1
  F  F1  1  0.55365300  0.55978100  0.34956900  1
  F  F2  1  0.44634700  0.55978100  0.65043100  1
  F  F3  1  0.05365300  0.05978100  0.34956900  1
  F  F4  1  0.94634700  0.05978100  0.65043100  1
  F  F5  1  0.61447800  0.61956800  0.35107200  1
  F  F6  1  0.38552100  0.61956800  0.64892700  1
  F  F7  1  0.11447800  0.11956800  0.35107200  1
  F  F8  1  0.88552100  0.11956800  0.64892700  1
