# generated using pymatgen
data_Zn2H17C30N3O11
_symmetry_space_group_name_H-M   'P 1'
_cell_length_a   6.58295700
_cell_length_b   12.36049900
_cell_length_c   14.30681100
_cell_angle_alpha   89.89873700
_cell_angle_beta   89.93125800
_cell_angle_gamma   80.33791000
_symmetry_Int_Tables_number   1
_chemical_formula_structural   Zn2H17C30N3O11
_chemical_formula_sum   'Zn2 H17 C30 N3 O11'
_cell_volume   1147.60995473
_cell_formula_units_Z   1
loop_
 _symmetry_equiv_pos_site_id
 _symmetry_equiv_pos_as_xyz
  1  'x, y, z'
loop_
 _atom_site_type_symbol
 _atom_site_label
 _atom_site_symmetry_multiplicity
 _atom_site_fract_x
 _atom_site_fract_y
 _atom_site_fract_z
 _atom_site_occupancy
  Zn  Zn1  1  0.51461100  0.50522700  0.10446100  1
  Zn  Zn2  1  0.49160200  0.49892600  0.89618400  1
  H  H1  1  0.47374600  0.15535500  0.05451500  1
  H  H2  1  0.53177900  0.85714500  0.95659800  1
  H  H3  1  0.35469300  0.98188600  0.04905800  1
  H  H4  1  0.26427800  0.84684300  0.02355100  1
  H  H5  1  0.48235000  0.05194500  0.94278300  1
  H  H6  1  0.69971500  0.64421000  0.45321600  1
  H  H7  1  0.30594600  0.35997800  0.54748900  1
  H  H8  1  0.15673600  0.54675800  0.43483500  1
  H  H9  1  0.26322700  0.76400600  0.51129900  1
  H  H10  1  0.41316900  0.73985100  0.61741800  1
  H  H11  1  0.18268100  0.64272300  0.67183300  1
  H  H12  1  0.01765300  0.43983100  0.51892100  1
  H  H13  1  0.91238600  0.37317800  0.61633800  1
  H  H14  1  0.85379500  0.60162000  0.60899900  1
  H  H15  1  0.74317200  0.24049500  0.48962400  1
  H  H16  1  0.83905400  0.31121300  0.39210500  1
  H  H17  1  0.42672700  0.28783400  0.39269400  1
  C  C1  1  0.18481400  0.24970200  0.01691800  1
  C  C2  1  0.31514500  0.15338900  0.03655100  1
  C  C3  1  0.24656900  0.05452300  0.03225100  1
  C  C4  1  0.98075300  0.24772900  0.99637800  1
  C  C5  1  0.91257700  0.14800900  0.98961700  1
  C  C6  1  0.04565600  0.05078000  0.00625000  1
  C  C7  1  0.97358300  0.95186700  0.99890300  1
  C  C8  1  0.10174000  0.85229800  0.01142700  1
  C  C9  1  0.02685400  0.75516700  0.00422500  1
  C  C10  1  0.64164800  0.05119400  0.96119100  1
  C  C11  1  0.76989400  0.95268900  0.97676000  1
  C  C12  1  0.69351200  0.85539200  0.97087100  1
  C  C13  1  0.82119200  0.75606800  0.98514400  1
  C  C14  1  0.27408300  0.34953100  0.01104600  1
  C  C15  1  0.82776300  0.34823700  0.99616800  1
  C  C16  1  0.73003000  0.65602300  0.98987600  1
  C  C17  1  0.17717400  0.65454500  0.00439500  1
  C  C18  1  0.41258000  0.59677900  0.53129100  1
  C  C19  1  0.61078800  0.57967700  0.47480800  1
  C  C20  1  0.31323900  0.52530100  0.46523500  1
  C  C21  1  0.51272100  0.50626700  0.41005300  1
  C  C22  1  0.39362300  0.42490300  0.52554300  1
  C  C23  1  0.49136000  0.49812200  0.59054900  1
  C  C24  1  0.59173500  0.40741400  0.46905100  1
  C  C25  1  0.68783700  0.47951600  0.53459300  1
  C  C26  1  0.52281600  0.50775200  0.30790400  1
  C  C27  1  0.48283400  0.49649200  0.69272500  1
  C  C28  1  0.30694600  0.70585100  0.56983400  1
  C  C29  1  0.90172200  0.45056100  0.57591700  1
  C  C30  1  0.69913600  0.29845800  0.43098700  1
  N  N1  1  0.71429400  0.14640500  0.96778200  1
  N  N2  1  0.52754200  0.50830600  0.22706200  1
  N  N3  1  0.47898400  0.49585400  0.77357600  1
  O  O1  1  0.32422800  0.38143900  0.92776000  1
  O  O2  1  0.33433500  0.38993500  0.08891700  1
  O  O3  1  0.75644100  0.38624700  0.07754100  1
  O  O4  1  0.74449600  0.38454800  0.91641300  1
  O  O5  1  0.68131800  0.62298700  0.07288400  1
  O  O6  1  0.67136400  0.61461500  0.91191300  1
  O  O7  1  0.24943100  0.61760800  0.92298200  1
  O  O8  1  0.26139900  0.61931900  0.08428900  1
  O  O9  1  0.13046600  0.69097400  0.61878400  1
  O  O10  1  0.93845400  0.53463300  0.63510000  1
  O  O11  1  0.56649300  0.25557100  0.37082100  1
