# generated using pymatgen
data_ZnH20C22NO6
_symmetry_space_group_name_H-M   'P 1'
_cell_length_a   14.29376400
_cell_length_b   8.55397700
_cell_length_c   15.07190100
_cell_angle_alpha   90.00000000
_cell_angle_beta   90.99016700
_cell_angle_gamma   90.00000000
_symmetry_Int_Tables_number   1
_chemical_formula_structural   ZnH20C22NO6
_chemical_formula_sum   'Zn2 H40 C44 N2 O12'
_cell_volume   1842.54397906
_cell_formula_units_Z   2
loop_
 _symmetry_equiv_pos_site_id
 _symmetry_equiv_pos_as_xyz
  1  'x, y, z'
loop_
 _atom_site_type_symbol
 _atom_site_label
 _atom_site_symmetry_multiplicity
 _atom_site_fract_x
 _atom_site_fract_y
 _atom_site_fract_z
 _atom_site_occupancy
  Zn  Zn1  1  0.89836500  0.48902400  0.51725800  1
  Zn  Zn2  1  0.10541600  0.49032300  0.49669500  1
  H  H1  1  0.04571600  0.98960600  0.56718200  1
  H  H2  1  0.95783400  0.98978000  0.44671000  1
  H  H3  1  0.00112200  0.24017000  0.80532900  1
  H  H4  1  0.00294100  0.73913900  0.20868400  1
  H  H5  1  0.00108700  0.24043900  0.20872300  1
  H  H6  1  0.00297500  0.73886200  0.80522400  1
  H  H7  1  0.91537100  0.78761400  0.92380800  1
  H  H8  1  0.08876600  0.19163000  0.09017300  1
  H  H9  1  0.91361300  0.78656700  0.08443700  1
  H  H10  1  0.09052900  0.19267200  0.92953200  1
  H  H11  1  0.45190800  0.54528800  0.35505600  1
  H  H12  1  0.54847600  0.42244600  0.66281000  1
  H  H13  1  0.57545200  0.16534600  0.28338100  1
  H  H14  1  0.53050200  0.35832700  0.28751300  1
  H  H15  1  0.44549400  0.06968500  0.38015400  1
  H  H16  1  0.39108100  0.25988200  0.37039500  1
  H  H17  1  0.39114300  0.23433300  0.20564900  1
  H  H18  1  0.32467000  0.08224600  0.25916300  1
  H  H19  1  0.43967300  0.03956700  0.21743600  1
  H  H20  1  0.50002900  0.89612200  0.62320200  1
  H  H21  1  0.56428800  0.72026100  0.65012200  1
  H  H22  1  0.40700500  0.86167200  0.75994000  1
  H  H23  1  0.47195400  0.68557200  0.78582500  1
  H  H24  1  0.61978600  0.83851800  0.79158400  1
  H  H25  1  0.53538800  0.91417700  0.86860600  1
  H  H26  1  0.55508700  0.01507200  0.76515200  1
  H  H27  1  0.35132300  0.05586900  0.60982500  1
  H  H28  1  0.30288100  0.21702000  0.55140100  1
  H  H29  1  0.43881100  0.24665800  0.71200900  1
  H  H30  1  0.36356500  0.39902900  0.66548600  1
  H  H31  1  0.22442100  0.24047100  0.70526400  1
  H  H32  1  0.29574600  0.29695100  0.80016800  1
  H  H33  1  0.30127000  0.09929200  0.75850600  1
  H  H34  1  0.60482300  0.92068200  0.37792600  1
  H  H35  1  0.52044100  0.77806700  0.34564300  1
  H  H36  1  0.72567400  0.71105500  0.40148900  1
  H  H37  1  0.64455900  0.57082800  0.35333100  1
  H  H38  1  0.63182300  0.73523100  0.21718900  1
  H  H39  1  0.74985900  0.66832100  0.23993900  1
  H  H40  1  0.71800800  0.86796700  0.26445200  1
  C  C1  1  0.02295800  0.12922600  0.68102700  1
  C  C2  1  0.98083200  0.85012000  0.33292400  1
  C  C3  1  0.98220900  0.12896700  0.33299300  1
  C  C4  1  0.02158400  0.85039100  0.68093300  1
  C  C5  1  0.00981600  0.12997600  0.77143200  1
  C  C6  1  0.99416400  0.84934400  0.24255000  1
  C  C7  1  0.99577900  0.12970700  0.24263400  1
  C  C8  1  0.00820300  0.84961000  0.77131700  1
  C  C9  1  0.00678500  0.98984000  0.81763600  1
  C  C10  1  0.99726600  0.98945800  0.19633500  1
  C  C11  1  0.03404400  0.98970000  0.63750700  1
  C  C12  1  0.96963600  0.98966400  0.37640700  1
  C  C13  1  0.95494900  0.87549500  0.95961900  1
  C  C14  1  0.04920800  0.10372900  0.05435800  1
  C  C15  1  0.95418800  0.87465000  0.05109400  1
  C  C16  1  0.04997100  0.10457200  0.96288000  1
  C  C17  1  0.00132300  0.98863200  0.09908200  1
  C  C18  1  0.00282100  0.99060400  0.91489400  1
  C  C19  1  0.01541100  0.70821000  0.62754300  1
  C  C20  1  0.98836700  0.27116400  0.38638400  1
  C  C21  1  0.98751300  0.70805100  0.38638400  1
  C  C22  1  0.01627000  0.27131100  0.62758400  1
  C  C23  1  0.47094700  0.34343700  0.52890800  1
  C  C24  1  0.53288200  0.62052400  0.48793900  1
  C  C25  1  0.53757300  0.38105600  0.45544000  1
  C  C26  1  0.46677100  0.58268400  0.56110300  1
  C  C27  1  0.52672700  0.44582100  0.59313000  1
  C  C28  1  0.47751900  0.51815400  0.42310800  1
  C  C29  1  0.59283900  0.48470600  0.51824700  1
  C  C30  1  0.41078700  0.47950100  0.49822700  1
  C  C31  1  0.69513300  0.48664700  0.52444100  1
  C  C32  1  0.30861300  0.48691100  0.49058500  1
  C  C33  1  0.53461400  0.24702500  0.32470100  1
  C  C34  1  0.43849700  0.17566400  0.33821800  1
  C  C35  1  0.39584700  0.12999500  0.24917500  1
  C  C36  1  0.49599800  0.78012100  0.65572400  1
  C  C37  1  0.47523300  0.80162000  0.75322000  1
  C  C38  1  0.55147000  0.89877300  0.79742000  1
  C  C39  1  0.36369400  0.17995800  0.59236500  1
  C  C40  1  0.37098100  0.27217900  0.67840900  1
  C  C41  1  0.29294100  0.22375200  0.73945200  1
  C  C42  1  0.58443500  0.79666700  0.38657900  1
  C  C43  1  0.66496000  0.69561700  0.35559000  1
  C  C44  1  0.69289000  0.74530600  0.26322200  1
  N  N1  1  0.77608300  0.48825500  0.52729900  1
  N  N2  1  0.22771000  0.49089500  0.48672400  1
  O  O1  1  0.09138900  0.65943500  0.58859700  1
  O  O2  1  0.91240800  0.31989300  0.42536900  1
  O  O3  1  0.91173000  0.65830200  0.42533900  1
  O  O4  1  0.09199000  0.32102800  0.58858000  1
  O  O5  1  0.93176500  0.65242500  0.60888700  1
  O  O6  1  0.07200200  0.32696600  0.40504600  1
  O  O7  1  0.07140900  0.65334800  0.40505200  1
  O  O8  1  0.93242100  0.32604000  0.60890600  1
  O  O9  1  0.58275100  0.26563800  0.40577100  1
  O  O10  1  0.42402800  0.69279200  0.61575900  1
  O  O11  1  0.44653600  0.18673100  0.54392200  1
  O  O12  1  0.56734100  0.77267400  0.47679700  1
