# generated using pymatgen
data_FeH11C26O9
_symmetry_space_group_name_H-M   'P 1'
_cell_length_a   15.78959100
_cell_length_b   17.15765100
_cell_length_c   11.31891000
_cell_angle_alpha   107.91320400
_cell_angle_beta   87.99619500
_cell_angle_gamma   110.58235100
_symmetry_Int_Tables_number   1
_chemical_formula_structural   FeH11C26O9
_chemical_formula_sum   'Fe2 H22 C52 O18'
_cell_volume   2722.30490360
_cell_formula_units_Z   2
loop_
 _symmetry_equiv_pos_site_id
 _symmetry_equiv_pos_as_xyz
  1  'x, y, z'
loop_
 _atom_site_type_symbol
 _atom_site_label
 _atom_site_symmetry_multiplicity
 _atom_site_fract_x
 _atom_site_fract_y
 _atom_site_fract_z
 _atom_site_occupancy
  Fe  Fe1  1  0.52662700  0.00174700  0.20945100  1
  Fe  Fe2  1  0.51374900  0.00006200  0.69938000  1
  H  H1  1  0.94912800  0.05120400  0.80074900  1
  H  H2  1  0.18744400  0.98072600  0.76562000  1
  H  H3  1  0.80457300  0.04423700  0.73612300  1
  H  H4  1  0.24866900  0.99914700  0.19690000  1
  H  H5  1  0.94797900  0.99879900  0.28556000  1
  H  H6  1  0.80607100  0.99768500  0.22636400  1
  H  H7  1  0.32019100  0.56358100  0.40987300  1
  H  H8  1  0.34267900  0.33132400  0.55967200  1
  H  H9  1  0.67109700  0.42285000  0.49399300  1
  H  H10  1  0.64602100  0.64993600  0.33430700  1
  H  H11  1  0.45254200  0.54794700  0.17145900  1
  H  H12  1  0.45125500  0.66650700  0.09774500  1
  H  H13  1  0.51084500  0.72026300  0.54402500  1
  H  H14  1  0.50231300  0.26966800  0.35853800  1
  H  H15  1  0.52054300  0.31657800  0.80878000  1
  H  H16  1  0.51536100  0.43251000  0.73159200  1
  H  H17  1  0.18968100  0.46922200  0.47832900  1
  H  H18  1  0.20098100  0.35305900  0.55279200  1
  H  H19  1  0.80086400  0.51613800  0.42312000  1
  H  H20  1  0.78828700  0.62952400  0.34323300  1
  H  H21  1  0.00014300  0.89623900  0.75078500  1
  H  H22  1  0.07878200  0.93237400  0.25915300  1
  C  C1  1  0.89369800  0.02796100  0.85423300  1
  C  C2  1  0.28539900  0.99071500  0.89948900  1
  C  C3  1  0.20038500  0.98431000  0.86045800  1
  C  C4  1  0.13351300  0.98655100  0.94260600  1
  C  C5  1  0.05023200  0.98403200  0.90316000  1
  C  C6  1  0.98570200  0.99521900  0.98846300  1
  C  C7  1  0.81166100  0.02875100  0.81999800  1
  C  C8  1  0.73812500  0.00527700  0.88696100  1
  C  C9  1  0.90438600  0.00354500  0.95735100  1
  C  C10  1  0.83462200  0.99473700  0.03673100  1
  C  C11  1  0.74930600  0.99123500  0.99886600  1
  C  C12  1  0.30169900  0.99535000  0.02190300  1
  C  C13  1  0.23366700  0.99399000  0.10182000  1
  C  C14  1  0.15038200  0.99161200  0.06346900  1
  C  C15  1  0.08370300  0.99345000  0.14521100  1
  C  C16  1  0.00192800  0.99516700  0.10793900  1
  C  C17  1  0.93636900  0.99720100  0.19123900  1
  C  C18  1  0.85313200  0.99464800  0.15549400  1
  C  C19  1  0.67216000  0.97682300  0.07744000  1
  C  C20  1  0.48539500  0.83468700  0.22926600  1
  C  C21  1  0.39127800  0.00996100  0.07463700  1
  C  C22  1  0.49936800  0.12906700  0.40621200  1
  C  C23  1  0.51914700  0.86315900  0.50004300  1
  C  C24  1  0.64922000  0.99286500  0.83440500  1
  C  C25  1  0.51463700  0.15553300  0.67780400  1
  C  C26  1  0.35527400  0.99264400  0.80935400  1
  C  C27  1  0.32921800  0.51404500  0.44275200  1
  C  C28  1  0.25400100  0.46045200  0.48146000  1
  C  C29  1  0.26034800  0.39547000  0.52321400  1
  C  C30  1  0.34204500  0.38400700  0.52717200  1
  C  C31  1  0.41901400  0.43820000  0.48953300  1
  C  C32  1  0.41228900  0.50328600  0.44612200  1
  C  C33  1  0.50193600  0.42715600  0.49388300  1
  C  C34  1  0.57782800  0.48072900  0.45365300  1
  C  C35  1  0.57086100  0.54534600  0.40936900  1
  C  C36  1  0.48814700  0.55677400  0.40591600  1
  C  C37  1  0.66134900  0.47104400  0.45870100  1
  C  C38  1  0.73627900  0.52423500  0.41891500  1
  C  C39  1  0.72925500  0.58774500  0.37429600  1
  C  C40  1  0.64734600  0.59868000  0.36967200  1
  C  C41  1  0.46442700  0.61222300  0.23761700  1
  C  C42  1  0.46395900  0.67988500  0.19645200  1
  C  C43  1  0.48213900  0.76358500  0.27926800  1
  C  C44  1  0.49793300  0.77731700  0.40590000  1
  C  C45  1  0.49674100  0.70874500  0.44611800  1
  C  C46  1  0.48175500  0.62678500  0.36241500  1
  C  C47  1  0.50768000  0.27996400  0.45753600  1
  C  C48  1  0.50890800  0.21285100  0.49961400  1
  C  C49  1  0.51340900  0.22482400  0.62703900  1
  C  C50  1  0.51664100  0.30480300  0.70937400  1
  C  C51  1  0.51416400  0.37097900  0.66625100  1
  C  C52  1  0.50903800  0.35850200  0.54019300  1
  O  O1  1  0.61785100  0.02135600  0.08694400  1
  O  O2  1  0.46550000  0.81603600  0.10981800  1
  O  O3  1  0.65636200  0.91856400  0.13582400  1
  O  O4  1  0.51493700  0.91715900  0.30049800  1
  O  O5  1  0.40378900  0.95097200  0.11615100  1
  O  O6  1  0.45644400  0.08658000  0.09392900  1
  O  O7  1  0.56603700  0.12146700  0.33663600  1
  O  O8  1  0.42253900  0.06228900  0.38829900  1
  O  O9  1  0.45953000  0.87832200  0.57891200  1
  O  O10  1  0.60035300  0.92320000  0.51153300  1
  O  O11  1  0.64214800  0.04407000  0.77281400  1
  O  O12  1  0.57812500  0.92444200  0.83600000  1
  O  O13  1  0.33844200  0.99563000  0.69842700  1
  O  O14  1  0.52240300  0.08243400  0.60567900  1
  O  O15  1  0.43453000  0.99151200  0.83779100  1
  O  O16  1  0.50819600  0.16701300  0.79738100  1
  O  O17  1  0.02962800  0.96095000  0.77793400  1
  O  O18  1  0.09915300  0.99496900  0.26416700  1
