# generated using pymatgen
data_Zn3H34(C22O13)2
_symmetry_space_group_name_H-M   'P 1'
_cell_length_a   38.06301600
_cell_length_b   21.69104800
_cell_length_c   21.61655200
_cell_angle_alpha   90.00000000
_cell_angle_beta   123.09660500
_cell_angle_gamma   90.00000000
_symmetry_Int_Tables_number   1
_chemical_formula_structural   Zn3H34(C22O13)2
_chemical_formula_sum   'Zn12 H136 C176 O104'
_cell_volume   14951.51318183
_cell_formula_units_Z   4
loop_
 _symmetry_equiv_pos_site_id
 _symmetry_equiv_pos_as_xyz
  1  'x, y, z'
loop_
 _atom_site_type_symbol
 _atom_site_label
 _atom_site_symmetry_multiplicity
 _atom_site_fract_x
 _atom_site_fract_y
 _atom_site_fract_z
 _atom_site_occupancy
  Zn  Zn1  1  0.00038900  0.91686000  0.99991900  1
  Zn  Zn2  1  0.04066200  0.00968400  0.53781500  1
  Zn  Zn3  1  0.45931000  0.50945600  0.46208700  1
  Zn  Zn4  1  0.54066100  0.50968300  0.53781500  1
  Zn  Zn5  1  0.50038900  0.41685900  0.99991900  1
  Zn  Zn6  1  0.99965300  0.05661700  0.99984500  1
  Zn  Zn7  1  0.49965300  0.55661700  0.99984400  1
  Zn  Zn8  1  0.49636300  0.00988900  0.56600200  1
  Zn  Zn9  1  0.50363400  0.01008800  0.43320700  1
  Zn  Zn10  1  0.99636200  0.50988900  0.56600200  1
  Zn  Zn11  1  0.00363400  0.51008800  0.43320700  1
  Zn  Zn12  1  0.95931000  0.00945600  0.46208800  1
  H  H1  1  0.28816600  0.96985900  0.37376700  1
  H  H2  1  0.78494600  0.08691800  0.82270100  1
  H  H3  1  0.35302600  0.39477900  0.66053700  1
  H  H4  1  0.63173100  0.86082600  0.48882000  1
  H  H5  1  0.66204300  0.81154400  0.56820100  1
  H  H6  1  0.64068500  0.88308900  0.57634500  1
  H  H7  1  0.36611400  0.85931900  0.50429800  1
  H  H8  1  0.33661800  0.80989200  0.42479700  1
  H  H9  1  0.35790200  0.88174900  0.41735300  1
  H  H10  1  0.13173200  0.36082500  0.48882100  1
  H  H11  1  0.16204300  0.31154300  0.56820200  1
  H  H12  1  0.14068600  0.38308800  0.57634600  1
  H  H13  1  0.71534900  0.58741200  0.17227000  1
  H  H14  1  0.86611400  0.35931900  0.50429800  1
  H  H15  1  0.83661800  0.30989200  0.42479700  1
  H  H16  1  0.85790200  0.38174900  0.41735300  1
  H  H17  1  0.17103800  0.18810400  0.69788500  1
  H  H18  1  0.15832500  0.18216000  0.60444900  1
  H  H19  1  0.14164500  0.12249900  0.64207800  1
  H  H20  1  0.83015900  0.18291400  0.29684300  1
  H  H21  1  0.84097700  0.18109700  0.38925800  1
  H  H22  1  0.85975700  0.11962700  0.35733400  1
  H  H23  1  0.67103800  0.68810300  0.69788700  1
  H  H24  1  0.28494600  0.58691800  0.82270000  1
  H  H25  1  0.65832500  0.68216000  0.60445100  1
  H  H26  1  0.64164500  0.62249900  0.64207900  1
  H  H27  1  0.33015900  0.68291400  0.29684300  1
  H  H28  1  0.34097600  0.68109700  0.38925800  1
  H  H29  1  0.35975600  0.61962800  0.35733400  1
  H  H30  1  0.31845700  0.78746400  0.24336500  1
  H  H31  1  0.35606400  0.84240700  0.25027300  1
  H  H32  1  0.31107600  0.82060800  0.16039000  1
  H  H33  1  0.68194100  0.78796500  0.76521700  1
  H  H34  1  0.64365900  0.84432000  0.75269100  1
  H  H35  1  0.20767400  0.08276400  0.24755000  1
  H  H36  1  0.68748200  0.82504600  0.84490000  1
  H  H37  1  0.81845700  0.28746400  0.24336600  1
  H  H38  1  0.85606400  0.34240700  0.25027400  1
  H  H39  1  0.81107600  0.32060700  0.16039100  1
  H  H40  1  0.18194200  0.28796500  0.76521900  1
  H  H41  1  0.14365900  0.34432000  0.75269100  1
  H  H42  1  0.18748100  0.32504700  0.84490100  1
  H  H43  1  0.79217900  0.07794600  0.74728600  1
  H  H44  1  0.70767400  0.58276500  0.24755000  1
  H  H45  1  0.29217900  0.57794500  0.74728500  1
  H  H46  1  0.27769900  0.07639000  0.33362000  1
  H  H47  1  0.72209600  0.07162900  0.66239900  1
  H  H48  1  0.77769900  0.57639100  0.33361900  1
  H  H49  1  0.71179300  0.96421100  0.62688000  1
  H  H50  1  0.22209600  0.57162800  0.66239900  1
  H  H51  1  0.28463400  0.10080600  0.26113300  1
  H  H52  1  0.71559400  0.09926800  0.73430900  1
  H  H53  1  0.78463400  0.60080600  0.26113200  1
  H  H54  1  0.21559400  0.59926800  0.73430800  1
  H  H55  1  0.22359900  0.91793900  0.15554300  1
  H  H56  1  0.77655200  0.91881100  0.84798600  1
  H  H57  1  0.72359900  0.41794000  0.15554300  1
  H  H58  1  0.27655200  0.41881200  0.84798700  1
  H  H59  1  0.21174300  0.98920700  0.10472200  1
  H  H60  1  0.78816600  0.46986000  0.37376700  1
  H  H61  1  0.78820800  0.99207900  0.89485700  1
  H  H62  1  0.71174300  0.48920700  0.10472200  1
  H  H63  1  0.28820800  0.49208000  0.89485700  1
  H  H64  1  0.21517600  0.91053000  0.26082800  1
  H  H65  1  0.78433400  0.90556700  0.74281500  1
  H  H66  1  0.71517600  0.41053000  0.26082800  1
  H  H67  1  0.28433400  0.40556600  0.74281600  1
  H  H68  1  0.28548000  0.90941700  0.31504700  1
  H  H69  1  0.71386800  0.90592800  0.68728800  1
  H  H70  1  0.78548000  0.40941800  0.31504800  1
  H  H71  1  0.21179300  0.46421000  0.62688000  1
  H  H72  1  0.21386800  0.40592700  0.68728800  1
  H  H73  1  0.27804100  0.02525500  0.17469300  1
  H  H74  1  0.72177800  0.02708300  0.82341700  1
  H  H75  1  0.77804100  0.52525500  0.17469300  1
  H  H76  1  0.22177700  0.52708300  0.82341700  1
  H  H77  1  0.53303200  0.20562700  0.44629900  1
  H  H78  1  0.46752000  0.20598600  0.55591900  1
  H  H79  1  0.03303200  0.70562700  0.44629900  1
  H  H80  1  0.96752000  0.70598700  0.55591900  1
  H  H81  1  0.03347400  0.81780100  0.44701900  1
  H  H82  1  0.21813700  0.98070800  0.30861500  1
  H  H83  1  0.96697200  0.81810900  0.55457700  1
  H  H84  1  0.53347400  0.31780100  0.44701900  1
  H  H85  1  0.46697200  0.31810800  0.55457600  1
  H  H86  1  0.86162900  0.14448200  0.03457200  1
  H  H87  1  0.84632600  0.06433600  0.01847100  1
  H  H88  1  0.87892500  0.09561600  0.98849900  1
  H  H89  1  0.13503700  0.14989100  0.96407100  1
  H  H90  1  0.15210100  0.07048800  0.98129200  1
  H  H91  1  0.11854000  0.09962100  0.01026200  1
  H  H92  1  0.36162900  0.64448200  0.03457100  1
  H  H93  1  0.78188600  0.97322100  0.69173000  1
  H  H94  1  0.34632600  0.56433500  0.01847100  1
  H  H95  1  0.37892500  0.59561600  0.98849800  1
  H  H96  1  0.63503600  0.64989000  0.96407000  1
  H  H97  1  0.65210000  0.57048800  0.98129200  1
  H  H98  1  0.61854000  0.59962000  0.01026100  1
  H  H99  1  0.83801500  0.00200100  0.20275400  1
  H  H100  1  0.82953300  0.05309200  0.12996800  1
  H  H101  1  0.85723900  0.08003000  0.22397100  1
  H  H102  1  0.16189100  0.00903300  0.79786800  1
  H  H103  1  0.16925500  0.06082500  0.86934100  1
  H  H104  1  0.71813700  0.48070800  0.30861500  1
  H  H105  1  0.14113900  0.08616600  0.77470300  1
  H  H106  1  0.33801500  0.50200100  0.20275300  1
  H  H107  1  0.32953300  0.55309200  0.12996800  1
  H  H108  1  0.35723900  0.58003000  0.22397100  1
  H  H109  1  0.66189100  0.50903300  0.79786700  1
  H  H110  1  0.66925400  0.56082400  0.86934000  1
  H  H111  1  0.64113900  0.58616600  0.77470200  1
  H  H112  1  0.11331900  0.82231900  0.45569600  1
  H  H113  1  0.10949400  0.88417200  0.50768900  1
  H  H114  1  0.14128800  0.89350500  0.46911700  1
  H  H115  1  0.28188600  0.47322000  0.69173000  1
  H  H116  1  0.88679500  0.82155200  0.54579900  1
  H  H117  1  0.89059100  0.88273700  0.49304500  1
  H  H118  1  0.85883200  0.89289000  0.53156400  1
  H  H119  1  0.61331900  0.32231900  0.45569500  1
  H  H120  1  0.60949400  0.38417100  0.50768800  1
  H  H121  1  0.64128800  0.39350500  0.46911600  1
  H  H122  1  0.38679500  0.32155200  0.54579800  1
  H  H123  1  0.39059100  0.38273700  0.49304400  1
  H  H124  1  0.35883200  0.39288900  0.53156300  1
  H  H125  1  0.17194100  0.97492800  0.36171900  1
  H  H126  1  0.21534900  0.08741100  0.17227000  1
  H  H127  1  0.14356800  0.94667000  0.26783300  1
  H  H128  1  0.14831100  0.89927400  0.34117400  1
  H  H129  1  0.82818500  0.96959000  0.63834600  1
  H  H130  1  0.85704600  0.94281400  0.73285100  1
  H  H131  1  0.85302600  0.89477900  0.66053800  1
  H  H132  1  0.67194100  0.47492800  0.36171800  1
  H  H133  1  0.64356800  0.44667000  0.26783200  1
  H  H134  1  0.64831100  0.39927400  0.34117400  1
  H  H135  1  0.32818500  0.46959000  0.63834600  1
  H  H136  1  0.35704600  0.44281400  0.73285000  1
  C  C1  1  0.99923400  0.98729200  0.12017100  1
  C  C2  1  0.77218600  0.95332100  0.72738100  1
  C  C3  1  0.46285700  0.79027200  0.47341800  1
  C  C4  1  0.03674100  0.29029200  0.52341700  1
  C  C5  1  0.96285700  0.29027200  0.47341800  1
  C  C6  1  0.03683100  0.22641600  0.52328400  1
  C  C7  1  0.96290000  0.22640300  0.47420900  1
  C  C8  1  0.53683000  0.72641600  0.52328400  1
  C  C9  1  0.46290000  0.72640300  0.47420900  1
  C  C10  1  0.99987900  0.19426500  0.49890500  1
  C  C11  1  0.49987900  0.69426500  0.49890500  1
  C  C12  1  0.49978300  0.82201700  0.49823900  1
  C  C13  1  0.72762200  0.45824900  0.27388200  1
  C  C14  1  0.99978300  0.32201700  0.49823900  1
  C  C15  1  0.51843300  0.22995200  0.47020700  1
  C  C16  1  0.48213000  0.23015200  0.53192800  1
  C  C17  1  0.01843300  0.72995200  0.47020800  1
  C  C18  1  0.98213000  0.73015200  0.53192800  1
  C  C19  1  0.01901800  0.79348600  0.47116300  1
  C  C20  1  0.98150000  0.79367100  0.53064800  1
  C  C21  1  0.51901800  0.29348600  0.47116300  1
  C  C22  1  0.48150000  0.29367100  0.53064700  1
  C  C23  1  0.00023700  0.82552700  0.50080900  1
  C  C24  1  0.27218600  0.45332100  0.72738200  1
  C  C25  1  0.50023700  0.32552700  0.50080800  1
  C  C26  1  0.92557600  0.02695700  0.11013900  1
  C  C27  1  0.87187600  0.09725100  0.03195200  1
  C  C28  1  0.07367200  0.02960900  0.88941000  1
  C  C29  1  0.12578800  0.10207000  0.96709200  1
  C  C30  1  0.42557600  0.52695700  0.11013900  1
  C  C31  1  0.37187600  0.59725100  0.03195100  1
  C  C32  1  0.57367200  0.52960800  0.88940900  1
  C  C33  1  0.62578700  0.60207000  0.96709100  1
  C  C34  1  0.92651500  0.04495400  0.24292500  1
  C  C35  1  0.22387600  0.06166000  0.22298100  1
  C  C36  1  0.85196800  0.03976600  0.18838900  1
  C  C37  1  0.07252700  0.04836000  0.75640000  1
  C  C38  1  0.14716000  0.04631900  0.81125400  1
  C  C39  1  0.42651500  0.54495300  0.24292500  1
  C  C40  1  0.35196800  0.53976600  0.18838800  1
  C  C41  1  0.57252600  0.54836000  0.75639900  1
  C  C42  1  0.64716000  0.54631800  0.81125400  1
  C  C43  1  0.06945900  0.95673700  0.38829100  1
  C  C44  1  0.11215900  0.87309400  0.46030200  1
  C  C45  1  0.93072400  0.95618200  0.61158700  1
  C  C46  1  0.77613500  0.05903200  0.77322500  1
  C  C47  1  0.88794700  0.87224700  0.54058000  1
  C  C48  1  0.56945900  0.45673700  0.38829000  1
  C  C49  1  0.61215900  0.37309400  0.46030100  1
  C  C50  1  0.43072400  0.45618100  0.61158600  1
  C  C51  1  0.38794700  0.37224600  0.54058000  1
  C  C52  1  0.07093500  0.94718600  0.25968400  1
  C  C53  1  0.14473700  0.94703700  0.32017100  1
  C  C54  1  0.92960800  0.94533400  0.74069100  1
  C  C55  1  0.85584300  0.94277000  0.68047500  1
  C  C56  1  0.57093400  0.44718600  0.25968400  1
  C  C57  1  0.72387600  0.56166100  0.22298000  1
  C  C58  1  0.64473700  0.44703600  0.32017000  1
  C  C59  1  0.42960700  0.44533400  0.74069000  1
  C  C60  1  0.35584200  0.44277000  0.68047400  1
  C  C61  1  0.57566100  0.82473000  0.54927300  1
  C  C62  1  0.63486700  0.84335300  0.53981800  1
  C  C63  1  0.42380900  0.82460200  0.44693000  1
  C  C64  1  0.36359600  0.84199600  0.45376300  1
  C  C65  1  0.07566200  0.32473000  0.54927300  1
  C  C66  1  0.13486700  0.34335300  0.53981900  1
  C  C67  1  0.92380900  0.32460200  0.44693000  1
  C  C68  1  0.27613500  0.55903200  0.77322500  1
  C  C69  1  0.86359600  0.34199500  0.45376300  1
  C  C70  1  0.07609600  0.19317100  0.54853900  1
  C  C71  1  0.14699100  0.17267400  0.64113300  1
  C  C72  1  0.92370600  0.19304800  0.44895700  1
  C  C73  1  0.85358200  0.16984000  0.35490200  1
  C  C74  1  0.57609600  0.69317000  0.54854000  1
  C  C75  1  0.64699100  0.67267400  0.64113400  1
  C  C76  1  0.42370600  0.69304700  0.44895600  1
  C  C77  1  0.35358200  0.66984000  0.35490200  1
  C  C78  1  0.29950100  0.93342100  0.19777500  1
  C  C79  1  0.27096600  0.06470900  0.27820000  1
  C  C80  1  0.32238800  0.82969500  0.21892300  1
  C  C81  1  0.70044400  0.93513300  0.80406500  1
  C  C82  1  0.67734000  0.83163400  0.78651200  1
  C  C83  1  0.79950100  0.43342100  0.19777500  1
  C  C84  1  0.82238800  0.32969500  0.21892400  1
  C  C85  1  0.20044400  0.43513300  0.80406500  1
  C  C86  1  0.17734000  0.33163400  0.78651300  1
  C  C87  1  0.72904000  0.06190400  0.71838400  1
  C  C88  1  0.77096600  0.56470900  0.27819900  1
  C  C89  1  0.00085400  0.98602600  0.87966500  1
  C  C90  1  0.22904000  0.56190400  0.71838400  1
  C  C91  1  0.37324600  0.00850000  0.36505800  1
  C  C92  1  0.62673100  0.00741400  0.63413200  1
  C  C93  1  0.87324600  0.50850000  0.36505800  1
  C  C94  1  0.12673100  0.50741400  0.63413200  1
  C  C95  1  0.21056800  0.99475700  0.20342500  1
  C  C96  1  0.78936800  0.99250200  0.79598800  1
  C  C97  1  0.71056800  0.49475800  0.20342400  1
  C  C98  1  0.28936800  0.49250200  0.79598800  1
  C  C99  1  0.27494600  0.95676000  0.31547400  1
  C  C100  1  0.49923400  0.48729200  0.12017100  1
  C  C101  1  0.72481600  0.95266600  0.68553400  1
  C  C102  1  0.77494500  0.45676100  0.31547400  1
  C  C103  1  0.22481600  0.45266500  0.68553400  1
  C  C104  1  0.28969100  0.00236700  0.28080200  1
  C  C105  1  0.71024700  0.00037400  0.71843400  1
  C  C106  1  0.78969100  0.50236800  0.28080200  1
  C  C107  1  0.21024600  0.50037400  0.71843400  1
  C  C108  1  0.27443500  0.98454400  0.20179900  1
  C  C109  1  0.72550900  0.98518300  0.79812100  1
  C  C110  1  0.77443500  0.48454400  0.20179900  1
  C  C111  1  0.50085300  0.48602500  0.87966500  1
  C  C112  1  0.22550800  0.48518300  0.79812100  1
  C  C113  1  0.22820600  0.96857200  0.16072300  1
  C  C114  1  0.77179700  0.96931000  0.84004000  1
  C  C115  1  0.72820600  0.46857200  0.16072300  1
  C  C116  1  0.27179700  0.46931000  0.84004000  1
  C  C117  1  0.33551800  0.00613700  0.32618300  1
  C  C118  1  0.66444000  0.00455200  0.67302200  1
  C  C119  1  0.83551800  0.50613700  0.32618300  1
  C  C120  1  0.16444000  0.50455200  0.67302200  1
  C  C121  1  0.16476600  0.99073900  0.15899100  1
  C  C122  1  0.08201600  0.98665900  0.08024000  1
  C  C123  1  0.83519900  0.98875600  0.84050400  1
  C  C124  1  0.66476600  0.49073900  0.15899100  1
  C  C125  1  0.33519900  0.48875600  0.84050400  1
  C  C126  1  0.12701400  0.98815300  0.12301100  1
  C  C127  1  0.87298400  0.98701500  0.87658700  1
  C  C128  1  0.62701400  0.48815300  0.12301000  1
  C  C129  1  0.37298400  0.48701500  0.87658600  1
  C  C130  1  0.96298200  0.01104300  0.18261300  1
  C  C131  1  0.03663200  0.01243800  0.81704700  1
  C  C132  1  0.46298200  0.51104300  0.18261300  1
  C  C133  1  0.91801300  0.98704700  0.91951800  1
  C  C134  1  0.53663100  0.51243800  0.81704700  1
  C  C135  1  0.96360000  0.02007800  0.24672000  1
  C  C136  1  0.03587300  0.02194200  0.75286800  1
  C  C137  1  0.46360000  0.52007800  0.24671900  1
  C  C138  1  0.53587300  0.52194100  0.75286700  1
  C  C139  1  0.99922100  0.00502300  0.31453800  1
  C  C140  1  0.00050700  0.00591100  0.68516100  1
  C  C141  1  0.49922100  0.50502300  0.31453700  1
  C  C142  1  0.50050700  0.50591100  0.68516000  1
  C  C143  1  0.03377500  0.98009400  0.31803300  1
  C  C144  1  0.58201600  0.48665900  0.08024000  1
  C  C145  1  0.96622000  0.97997600  0.68178000  1
  C  C146  1  0.53377500  0.48009400  0.31803300  1
  C  C147  1  0.46622000  0.47997600  0.68177900  1
  C  C148  1  0.03311700  0.97092500  0.25414100  1
  C  C149  1  0.96705600  0.97027100  0.74578000  1
  C  C150  1  0.53311700  0.47092500  0.25414000  1
  C  C151  1  0.46705600  0.47027100  0.74577900  1
  C  C152  1  0.99787100  0.98713000  0.18647600  1
  C  C153  1  0.00214600  0.98702200  0.81332800  1
  C  C154  1  0.49787100  0.48713000  0.18647500  1
  C  C155  1  0.41801300  0.48704700  0.91951800  1
  C  C156  1  0.50214500  0.48702200  0.81332800  1
  C  C157  1  0.50028000  0.19803800  0.50113500  1
  C  C158  1  0.00028000  0.69803800  0.50113500  1
  C  C159  1  0.49983300  0.88940900  0.49807200  1
  C  C160  1  0.99983300  0.38940900  0.49807200  1
  C  C161  1  0.41813500  0.01025500  0.41305900  1
  C  C162  1  0.58186000  0.00967600  0.58608000  1
  C  C163  1  0.91813500  0.51025500  0.41305900  1
  C  C164  1  0.08186000  0.50967600  0.58608000  1
  C  C165  1  0.50018700  0.13061200  0.50117600  1
  C  C166  1  0.22762200  0.95824900  0.27388200  1
  C  C167  1  0.00018700  0.63061200  0.50117600  1
  C  C168  1  0.00014600  0.89286700  0.50052700  1
  C  C169  1  0.50014600  0.39286600  0.50052600  1
  C  C170  1  0.99872700  0.00823700  0.38168800  1
  C  C171  1  0.00117400  0.00899000  0.61815900  1
  C  C172  1  0.49872700  0.50823700  0.38168700  1
  C  C173  1  0.50117400  0.50899000  0.61815900  1
  C  C174  1  0.99988900  0.12647200  0.49932100  1
  C  C175  1  0.49988900  0.62647200  0.49932100  1
  C  C176  1  0.53674100  0.79029200  0.52341700  1
  O  O1  1  0.00043700  0.93434600  0.09206800  1
  O  O2  1  0.93791900  0.93403600  0.93725500  1
  O  O3  1  0.70082000  0.87716200  0.78199900  1
  O  O4  1  0.81965100  0.44345200  0.17027900  1
  O  O5  1  0.79951700  0.37653800  0.22285200  1
  O  O6  1  0.17983100  0.44712600  0.83020600  1
  O  O7  1  0.20082000  0.37716200  0.78200000  1
  O  O8  1  0.56298900  0.43300900  0.05996900  1
  O  O9  1  0.43791900  0.43403500  0.93725500  1
  O  O10  1  0.06207400  0.03949100  0.06236400  1
  O  O11  1  0.93710000  0.04050500  0.93995700  1
  O  O12  1  0.56207400  0.53949100  0.06236400  1
  O  O13  1  0.43710000  0.54050500  0.93995600  1
  O  O14  1  0.49599800  0.91819800  0.54751100  1
  O  O15  1  0.50380500  0.91790100  0.44864500  1
  O  O16  1  0.99599800  0.41819900  0.54751000  1
  O  O17  1  0.00214700  0.93262200  0.90925400  1
  O  O18  1  0.00380400  0.41790100  0.44864500  1
  O  O19  1  0.43466800  0.01139800  0.48445800  1
  O  O20  1  0.56532900  0.00817400  0.51469600  1
  O  O21  1  0.93466800  0.51139800  0.48445800  1
  O  O22  1  0.06532800  0.50817400  0.51469600  1
  O  O23  1  0.44048900  0.00874400  0.38357800  1
  O  O24  1  0.55950600  0.01102400  0.61557300  1
  O  O25  1  0.94048900  0.50874400  0.38357800  1
  O  O26  1  0.05950600  0.51102400  0.61557300  1
  O  O27  1  0.49610400  0.10200200  0.55037400  1
  O  O28  1  0.50043700  0.43434600  0.09206800  1
  O  O29  1  0.50409200  0.10170800  0.45189600  1
  O  O30  1  0.99610400  0.60200200  0.55037400  1
  O  O31  1  0.00409200  0.60170800  0.45189600  1
  O  O32  1  0.97128500  0.92275800  0.50394900  1
  O  O33  1  0.02890700  0.92271200  0.49678600  1
  O  O34  1  0.47128500  0.42275700  0.50394800  1
  O  O35  1  0.52890600  0.42271100  0.49678600  1
  O  O36  1  0.96947600  0.97885500  0.38450900  1
  O  O37  1  0.03056300  0.97966200  0.61568600  1
  O  O38  1  0.46947600  0.47885500  0.38450800  1
  O  O39  1  0.50214600  0.43262200  0.90925400  1
  O  O40  1  0.53056300  0.47966200  0.61568600  1
  O  O41  1  0.02787600  0.03956800  0.43874200  1
  O  O42  1  0.97201000  0.04005300  0.56085600  1
  O  O43  1  0.52787600  0.53956800  0.43874200  1
  O  O44  1  0.47201000  0.54005200  0.56085500  1
  O  O45  1  0.97025200  0.09619900  0.44159700  1
  O  O46  1  0.02951500  0.09659900  0.55745500  1
  O  O47  1  0.47025200  0.59619900  0.44159600  1
  O  O48  1  0.52951500  0.59659900  0.55745400  1
  O  O49  1  0.91094300  0.98952900  0.05991500  1
  O  O50  1  0.99803700  0.04076300  0.09068700  1
  O  O51  1  0.90711400  0.08248400  0.09905300  1
  O  O52  1  0.08897200  0.99253600  0.94003900  1
  O  O53  1  0.09104400  0.08595200  0.89996700  1
  O  O54  1  0.41094300  0.48952900  0.05991500  1
  O  O55  1  0.40711300  0.58248400  0.09905300  1
  O  O56  1  0.58897200  0.49253600  0.94003800  1
  O  O57  1  0.59104300  0.58595200  0.89996600  1
  O  O58  1  0.93035700  0.08879600  0.28149600  1
  O  O59  1  0.88846700  0.01912900  0.19658100  1
  O  O60  1  0.06789400  0.09197300  0.71698600  1
  O  O61  1  0.99952900  0.03905800  0.90758400  1
  O  O62  1  0.11105600  0.02423100  0.80343900  1
  O  O63  1  0.43035700  0.58879600  0.28149600  1
  O  O64  1  0.38846700  0.51912900  0.19658100  1
  O  O65  1  0.56789300  0.59197200  0.71698600  1
  O  O66  1  0.61105500  0.52423100  0.80343800  1
  O  O67  1  0.09276100  0.99246900  0.43746700  1
  O  O68  1  0.07802900  0.89587400  0.39642600  1
  O  O69  1  0.90757200  0.99156600  0.56182100  1
  O  O70  1  0.92209300  0.89535100  0.60417500  1
  O  O71  1  0.59276100  0.49246800  0.43746700  1
  O  O72  1  0.49803700  0.54076300  0.09068700  1
  O  O73  1  0.57802800  0.39587400  0.39642500  1
  O  O74  1  0.40757200  0.49156500  0.56182100  1
  O  O75  1  0.42209200  0.39535100  0.60417500  1
  O  O76  1  0.06871500  0.90262300  0.22333200  1
  O  O77  1  0.10862300  0.97241600  0.30848500  1
  O  O78  1  0.93256100  0.90119200  0.77818400  1
  O  O79  1  0.89152000  0.96921800  0.69146700  1
  O  O80  1  0.56871500  0.40262200  0.22333100  1
  O  O81  1  0.60862300  0.47241600  0.30848400  1
  O  O82  1  0.43256000  0.40119200  0.77818300  1
  O  O83  1  0.49952900  0.53905800  0.90758300  1
  O  O84  1  0.39152000  0.46921800  0.69146600  1
  O  O85  1  0.58709300  0.86378500  0.59717600  1
  O  O86  1  0.59899700  0.81182800  0.52109400  1
  O  O87  1  0.41301000  0.86453300  0.40017500  1
  O  O88  1  0.39978000  0.81090900  0.47352200  1
  O  O89  1  0.08709300  0.36378600  0.59717600  1
  O  O90  1  0.09899800  0.31182800  0.52109400  1
  O  O91  1  0.91301000  0.36453300  0.40017500  1
  O  O92  1  0.89978000  0.31090900  0.47352300  1
  O  O93  1  0.07772700  0.15564800  0.50814200  1
  O  O94  1  0.06298900  0.93300900  0.05997000  1
  O  O95  1  0.11036700  0.20410600  0.61635500  1
  O  O96  1  0.92172700  0.15694600  0.49022700  1
  O  O97  1  0.89000200  0.20192600  0.37994700  1
  O  O98  1  0.57772700  0.65564800  0.50814300  1
  O  O99  1  0.61036700  0.70410600  0.61635600  1
  O  O100  1  0.42172700  0.65694500  0.49022700  1
  O  O101  1  0.39000100  0.70192600  0.37994700  1
  O  O102  1  0.31965100  0.94345200  0.17027900  1
  O  O103  1  0.29951700  0.87653800  0.22285100  1
  O  O104  1  0.67983200  0.94712600  0.83020600  1
