# generated using pymatgen
data_Zn2H13C28SN3O8
_symmetry_space_group_name_H-M   'P 1'
_cell_length_a   8.52577200
_cell_length_b   10.68085100
_cell_length_c   14.28499900
_cell_angle_alpha   97.72934700
_cell_angle_beta   90.10813200
_cell_angle_gamma   90.00841600
_symmetry_Int_Tables_number   1
_chemical_formula_structural   Zn2H13C28SN3O8
_chemical_formula_sum   'Zn2 H13 C28 S1 N3 O8'
_cell_volume   1289.00658001
_cell_formula_units_Z   1
loop_
 _symmetry_equiv_pos_site_id
 _symmetry_equiv_pos_as_xyz
  1  'x, y, z'
loop_
 _atom_site_type_symbol
 _atom_site_label
 _atom_site_symmetry_multiplicity
 _atom_site_fract_x
 _atom_site_fract_y
 _atom_site_fract_z
 _atom_site_occupancy
  Zn  Zn1  1  0.48964100  0.48942100  0.09890500  1
  Zn  Zn2  1  0.49292400  0.50556400  0.89177600  1
  H  H1  1  0.98712500  0.59179200  0.05620100  1
  H  H2  1  0.98915800  0.40518400  0.93572400  1
  H  H3  1  0.23957600  0.89669400  0.97673400  1
  H  H4  1  0.24668100  0.09089400  0.99628500  1
  H  H5  1  0.72227900  0.38531500  0.42897700  1
  H  H6  1  0.72455200  0.60962400  0.55916800  1
  H  H7  1  0.49268100  0.28673500  0.54128700  1
  H  H8  1  0.25867400  0.38546200  0.43152800  1
  H  H9  1  0.26094800  0.60976800  0.56171600  1
  H  H10  1  0.49054200  0.70834700  0.44940500  1
  H  H11  1  0.47612100  0.88799700  0.21220200  1
  H  H12  1  0.52931200  0.04258300  0.18346900  1
  H  H13  1  0.67875400  0.92287700  0.19041600  1
  C  C1  1  0.98871700  0.68974100  0.04479200  1
  C  C2  1  0.12870800  0.74502600  0.02680800  1
  C  C3  1  0.12986200  0.86400400  0.00079600  1
  C  C4  1  0.84929500  0.75090300  0.03342400  1
  C  C5  1  0.85062300  0.87673400  0.01694500  1
  C  C6  1  0.99288900  0.93464800  0.00256800  1
  C  C7  1  0.99449300  0.06040300  0.98598200  1
  C  C8  1  0.13360800  0.12715800  0.98017600  1
  C  C9  1  0.13097700  0.24876700  0.95891500  1
  C  C10  1  0.71313300  0.94623400  0.01549300  1
  C  C11  1  0.85359100  0.12385500  0.98139500  1
  C  C12  1  0.85210600  0.24761000  0.96243400  1
  C  C13  1  0.99051300  0.30698400  0.94646900  1
  C  C14  1  0.27009600  0.66750500  0.01745100  1
  C  C15  1  0.27225200  0.32594200  0.96967100  1
  C  C16  1  0.71034300  0.32513200  0.97267600  1
  C  C17  1  0.70942900  0.67069000  0.02144100  1
  C  C18  1  0.61895300  0.55861900  0.52884700  1
  C  C19  1  0.61776500  0.43641300  0.46047000  1
  C  C20  1  0.49108500  0.61281300  0.47168600  1
  C  C21  1  0.48991900  0.49070000  0.40513800  1
  C  C22  1  0.36546200  0.55867100  0.53022200  1
  C  C23  1  0.49330500  0.50438300  0.58555700  1
  C  C24  1  0.36427400  0.43646600  0.46184900  1
  C  C25  1  0.49214100  0.38227100  0.51900800  1
  C  C26  1  0.48835900  0.48447800  0.30221300  1
  C  C27  1  0.49477600  0.51058900  0.68848100  1
  C  C28  1  0.55592400  0.94012200  0.16990600  1
  S  S1  1  0.52860000  0.88340500  0.04545200  1
  N  N1  1  0.71775100  0.06671200  0.99755800  1
  N  N2  1  0.48761800  0.48152600  0.22095600  1
  N  N3  1  0.49539100  0.51352200  0.76973700  1
  O  O1  1  0.32294600  0.63235400  0.93183200  1
  O  O2  1  0.32461400  0.62316000  0.09253200  1
  O  O3  1  0.32176200  0.36170700  0.05608200  1
  O  O4  1  0.32837000  0.37079500  0.89536900  1
  O  O5  1  0.65936200  0.36233300  0.05856400  1
  O  O6  1  0.65705800  0.37114900  0.89811100  1
  O  O7  1  0.66077000  0.63343400  0.93490200  1
  O  O8  1  0.65355500  0.62472300  0.09525900  1
