# generated using pymatgen
data_CuH19C25N2O5
_symmetry_space_group_name_H-M   'P 1'
_cell_length_a   15.10730800
_cell_length_b   13.67926000
_cell_length_c   14.94705800
_cell_angle_alpha   90.00000000
_cell_angle_beta   90.00590300
_cell_angle_gamma   90.00000000
_symmetry_Int_Tables_number   1
_chemical_formula_structural   CuH19C25N2O5
_chemical_formula_sum   'Cu2 H38 C50 N4 O10'
_cell_volume   3088.91107010
_cell_formula_units_Z   2
loop_
 _symmetry_equiv_pos_site_id
 _symmetry_equiv_pos_as_xyz
  1  'x, y, z'
loop_
 _atom_site_type_symbol
 _atom_site_label
 _atom_site_symmetry_multiplicity
 _atom_site_fract_x
 _atom_site_fract_y
 _atom_site_fract_z
 _atom_site_occupancy
  Cu  Cu1  1  0.50036200  0.59881500  0.49953300  1
  Cu  Cu2  1  0.50082500  0.40319200  0.49944500  1
  H  H1  1  0.63838400  0.47724400  0.77614700  1
  H  H2  1  0.36210200  0.52485100  0.22278700  1
  H  H3  1  0.36154200  0.52471900  0.77800400  1
  H  H4  1  0.63900300  0.47680900  0.22075300  1
  H  H5  1  0.28322200  0.53384600  0.91508800  1
  H  H6  1  0.71716400  0.46773400  0.08383700  1
  H  H7  1  0.06229500  0.65206300  0.53840400  1
  H  H8  1  0.93896600  0.35452300  0.55093600  1
  H  H9  1  0.93913000  0.64772800  0.45008100  1
  H  H10  1  0.06203300  0.35001600  0.46235900  1
  H  H11  1  0.22205200  0.65265900  0.53431800  1
  H  H12  1  0.77913200  0.35355700  0.54712000  1
  H  H13  1  0.77934400  0.64831600  0.45218400  1
  H  H14  1  0.22184600  0.34972100  0.46426700  1
  H  H15  1  0.62148000  0.06956000  0.57249800  1
  H  H16  1  0.42818200  0.93237600  0.37753600  1
  H  H17  1  0.37225400  0.07137600  0.43580200  1
  H  H18  1  0.56268600  0.93069000  0.62983200  1
  H  H19  1  0.61958300  0.24637100  0.57253600  1
  H  H20  1  0.42773300  0.75565800  0.37970600  1
  H  H21  1  0.37894800  0.24793900  0.43086100  1
  H  H22  1  0.56715400  0.75404000  0.62335700  1
  H  H23  1  0.23825500  0.38329900  0.09659800  1
  H  H24  1  0.18076200  0.44885300  0.00885600  1
  H  H25  1  0.14410000  0.46393200  0.21075700  1
  H  H26  1  0.07826600  0.40157800  0.12871000  1
  H  H27  1  0.15671900  0.62620100  0.20927700  1
  H  H28  1  0.10103800  0.69829100  0.12622000  1
  H  H29  1  0.26138000  0.68608300  0.09363100  1
  H  H30  1  0.19424400  0.63013300  0.00725100  1
  H  H31  1  0.73833700  0.31577600  0.90444900  1
  H  H32  1  0.80526300  0.37070100  0.99156300  1
  H  H33  1  0.84379900  0.37567100  0.78972000  1
  H  H34  1  0.89880900  0.30293900  0.87275700  1
  H  H35  1  0.85701300  0.53783000  0.78894500  1
  H  H36  1  0.92273300  0.59951700  0.87149300  1
  H  H37  1  0.76265800  0.61840500  0.90276800  1
  H  H38  1  0.81954000  0.55248700  0.99071500  1
  C  C1  1  0.33041500  0.50113100  0.49932800  1
  C  C2  1  0.67070000  0.50096900  0.49956000  1
  C  C3  1  0.50059200  0.50143300  0.32776100  1
  C  C4  1  0.50028400  0.50044800  0.67112500  1
  C  C5  1  0.57848300  0.48745600  0.81447500  1
  C  C6  1  0.42202100  0.51454300  0.18449700  1
  C  C7  1  0.50033200  0.50052200  0.76865400  1
  C  C8  1  0.50025700  0.50135100  0.23025300  1
  C  C9  1  0.42250100  0.51450100  0.81468500  1
  C  C10  1  0.57799100  0.48717200  0.18416100  1
  C  C11  1  0.42239500  0.51379500  0.90695700  1
  C  C12  1  0.57798800  0.48795200  0.09193900  1
  C  C13  1  0.50050800  0.50092500  0.95328800  1
  C  C14  1  0.49984600  0.50092200  0.04565100  1
  C  C15  1  0.57913500  0.48836500  0.90717200  1
  C  C16  1  0.42125200  0.51355400  0.09179600  1
  C  C17  1  0.34380900  0.52532200  0.95262900  1
  C  C18  1  0.65656300  0.47640200  0.04630900  1
  C  C19  1  0.34259600  0.52492600  0.04516500  1
  C  C20  1  0.65776100  0.47697000  0.95380500  1
  C  C21  1  0.09613400  0.58549200  0.52000400  1
  C  C22  1  0.90504800  0.41897300  0.52712800  1
  C  C23  1  0.90517000  0.58324600  0.47374000  1
  C  C24  1  0.09598100  0.41661400  0.48048900  1
  C  C25  1  0.18738200  0.58574200  0.51855400  1
  C  C26  1  0.81378600  0.41861000  0.52578800  1
  C  C27  1  0.81390300  0.58345100  0.47415600  1
  C  C28  1  0.18725700  0.41646500  0.48079800  1
  C  C29  1  0.23344100  0.50110200  0.49953300  1
  C  C30  1  0.76769700  0.50101900  0.49983400  1
  C  C31  1  0.04940700  0.50103000  0.50056400  1
  C  C32  1  0.95174100  0.50113900  0.50064900  1
  C  C33  1  0.56587900  0.10655500  0.54228000  1
  C  C34  1  0.45789200  0.89540200  0.43385400  1
  C  C35  1  0.42915600  0.10757100  0.46433100  1
  C  C36  1  0.53460100  0.89447200  0.57227200  1
  C  C37  1  0.56584300  0.20739800  0.54092600  1
  C  C38  1  0.45904600  0.79459600  0.43401100  1
  C  C39  1  0.43218200  0.20830700  0.46260600  1
  C  C40  1  0.53612000  0.79369800  0.56934100  1
  C  C41  1  0.49703200  0.05500600  0.50353300  1
  C  C42  1  0.49644400  0.94699500  0.50327900  1
  C  C43  1  0.20336800  0.45208500  0.07932800  1
  C  C44  1  0.12351200  0.46432100  0.13952300  1
  C  C45  1  0.13613900  0.62829300  0.13807500  1
  C  C46  1  0.21652200  0.62434800  0.07766400  1
  C  C47  1  0.78338800  0.37715200  0.92104400  1
  C  C48  1  0.86403700  0.37315000  0.86100800  1
  C  C49  1  0.87729600  0.53704400  0.86025600  1
  C  C50  1  0.79722600  0.54943800  0.92011800  1
  N  N1  1  0.50080500  0.25687800  0.49888800  1
  N  N2  1  0.50041500  0.74510600  0.49974300  1
  N  N3  1  0.26185200  0.53354600  0.09248800  1
  N  N4  1  0.73848700  0.46827500  0.90649900  1
  O  O1  1  0.37178700  0.58522200  0.49663000  1
  O  O2  1  0.62930000  0.41694900  0.50281000  1
  O  O3  1  0.62905000  0.58488600  0.49621700  1
  O  O4  1  0.37204700  0.41715000  0.50208100  1
  O  O5  1  0.49708800  0.58542700  0.36955200  1
  O  O6  1  0.50355200  0.41639800  0.62933600  1
  O  O7  1  0.49732200  0.58458700  0.62957800  1
  O  O8  1  0.50420000  0.41734000  0.36930800  1
  O  O9  1  0.07863200  0.55089800  0.11838100  1
  O  O10  1  0.92174600  0.45017200  0.88129200  1
