# generated using pymatgen
data_Cu3H24C37O12
_symmetry_space_group_name_H-M   'P 1'
_cell_length_a   30.13797800
_cell_length_b   21.35746500
_cell_length_c   21.33068600
_cell_angle_alpha   90.00000000
_cell_angle_beta   134.94656400
_cell_angle_gamma   90.00000000
_symmetry_Int_Tables_number   1
_chemical_formula_structural   Cu3H24C37O12
_chemical_formula_sum   'Cu12 H96 C148 O48'
_cell_volume   9717.58392460
_cell_formula_units_Z   4
loop_
 _symmetry_equiv_pos_site_id
 _symmetry_equiv_pos_as_xyz
  1  'x, y, z'
loop_
 _atom_site_type_symbol
 _atom_site_label
 _atom_site_symmetry_multiplicity
 _atom_site_fract_x
 _atom_site_fract_y
 _atom_site_fract_z
 _atom_site_occupancy
  Cu  Cu1  1  0.99874800  0.49936800  0.06496400  1
  Cu  Cu2  1  0.49874700  0.99936800  0.06496400  1
  Cu  Cu3  1  0.99947400  0.49943000  0.94070800  1
  Cu  Cu4  1  0.49947400  0.99943100  0.94070800  1
  Cu  Cu5  1  0.93975600  0.99770900  0.94435800  1
  Cu  Cu6  1  0.43975600  0.49770900  0.94435800  1
  Cu  Cu7  1  0.06466900  0.00163300  0.06858000  1
  Cu  Cu8  1  0.56466900  0.50163300  0.06858000  1
  Cu  Cu9  1  0.49872900  0.56258900  0.50354800  1
  Cu  Cu10  1  0.49978700  0.43774900  0.50343700  1
  Cu  Cu11  1  0.99872900  0.06258900  0.50354800  1
  Cu  Cu12  1  0.99978700  0.93774900  0.50343700  1
  H  H1  1  0.98942200  0.78957500  0.88909300  1
  H  H2  1  0.03088900  0.21033800  0.93290600  1
  H  H3  1  0.48942200  0.28957500  0.88909300  1
  H  H4  1  0.53088900  0.71033800  0.93290600  1
  H  H5  1  0.08584900  0.70667900  0.02164800  1
  H  H6  1  0.10169500  0.28857800  0.08284500  1
  H  H7  1  0.58584900  0.20667900  0.02164900  1
  H  H8  1  0.60169500  0.78857800  0.08284500  1
  H  H9  1  0.02172200  0.70928300  0.13202500  1
  H  H10  1  0.96238700  0.28833300  0.06758900  1
  H  H11  1  0.52172200  0.20928300  0.13202500  1
  H  H12  1  0.46238700  0.78833300  0.06758900  1
  H  H13  1  0.92419400  0.78997000  0.99764300  1
  H  H14  1  0.89170500  0.21068700  0.91652000  1
  H  H15  1  0.42419400  0.28997000  0.99764300  1
  H  H16  1  0.39170500  0.71068700  0.91652000  1
  H  H17  1  0.90397000  0.71438700  0.87106400  1
  H  H18  1  0.92594600  0.28796300  0.84918200  1
  H  H19  1  0.40397000  0.21438700  0.87106400  1
  H  H20  1  0.42594600  0.78796300  0.84918200  1
  H  H21  1  0.28890200  0.49629300  0.18681100  1
  H  H22  1  0.78890200  0.99629300  0.18681100  1
  H  H23  1  0.21097700  0.40436800  0.16406200  1
  H  H24  1  0.20977800  0.58930900  0.15895700  1
  H  H25  1  0.71097700  0.90436800  0.16406200  1
  H  H26  1  0.70977800  0.08930800  0.15895700  1
  H  H27  1  0.28824700  0.40701700  0.34858400  1
  H  H28  1  0.28725000  0.59201000  0.34386700  1
  H  H29  1  0.78824700  0.90701700  0.34858400  1
  H  H30  1  0.78725000  0.09201000  0.34386700  1
  H  H31  1  0.21013600  0.50033600  0.32185300  1
  H  H32  1  0.71013600  0.00033700  0.32185300  1
  H  H33  1  0.70982100  0.47323600  0.61029400  1
  H  H34  1  0.20982100  0.97323600  0.61029400  1
  H  H35  1  0.78802000  0.57662100  0.71516700  1
  H  H36  1  0.78823200  0.39820000  0.76446000  1
  H  H37  1  0.28802000  0.07662000  0.71516700  1
  H  H38  1  0.28823200  0.89820000  0.76446000  1
  H  H39  1  0.71060000  0.60506600  0.74129300  1
  H  H40  1  0.71037300  0.42647300  0.79010700  1
  H  H41  1  0.21060000  0.10506600  0.74129300  1
  H  H42  1  0.21037300  0.92647300  0.79010700  1
  H  H43  1  0.78796500  0.52990600  0.89455800  1
  H  H44  1  0.28796500  0.02990600  0.89455800  1
  H  H45  1  0.60541800  0.47990000  0.81920900  1
  H  H46  1  0.10541800  0.97990000  0.81920900  1
  H  H47  1  0.06982600  0.08036900  0.86221900  1
  H  H48  1  0.03743500  0.89812900  0.83025800  1
  H  H49  1  0.56982600  0.58037000  0.86221800  1
  H  H50  1  0.53743600  0.39812900  0.83025800  1
  H  H51  1  0.46357000  0.59913600  0.67972700  1
  H  H52  1  0.43121400  0.41681800  0.64733900  1
  H  H53  1  0.96357000  0.09913600  0.67972700  1
  H  H54  1  0.93121400  0.91681800  0.64733900  1
  H  H55  1  0.89546800  0.01730700  0.68957900  1
  H  H56  1  0.39546800  0.51730600  0.68957900  1
  H  H57  1  0.58294300  0.43333800  0.37779000  1
  H  H58  1  0.08294300  0.93333800  0.37779000  1
  H  H59  1  0.98393100  0.89609900  0.19936900  1
  H  H60  1  0.10267900  0.03828300  0.31956200  1
  H  H61  1  0.48393100  0.39609900  0.19936900  1
  H  H62  1  0.60267900  0.53828300  0.31956200  1
  H  H63  1  0.40039800  0.46490200  0.19236400  1
  H  H64  1  0.51908700  0.60722800  0.31160900  1
  H  H65  1  0.90039700  0.96490200  0.19236400  1
  H  H66  1  0.01908700  0.10722800  0.31160900  1
  H  H67  1  0.92002200  0.06982300  0.13374300  1
  H  H68  1  0.42002200  0.56982300  0.13374300  1
  H  H69  1  0.13348300  0.75384300  0.22594000  1
  H  H70  1  0.12405200  0.83363500  0.19283400  1
  H  H71  1  0.21781400  0.69956300  0.27105100  1
  H  H72  1  0.30139200  0.68555500  0.27717200  1
  H  H73  1  0.30621300  0.75314100  0.18886400  1
  H  H74  1  0.22696000  0.83522000  0.09413500  1
  H  H75  1  0.14323400  0.84985700  0.08751300  1
  H  H76  1  0.12074600  0.18494500  0.19701500  1
  H  H77  1  0.05275400  0.16759700  0.17628900  1
  H  H78  1  0.15759700  0.30136200  0.23509800  1
  H  H79  1  0.18473600  0.38589800  0.33475400  1
  H  H80  1  0.13888100  0.38848100  0.39471300  1
  H  H81  1  0.06549900  0.30600400  0.35441400  1
  H  H82  1  0.03726900  0.22167000  0.25378200  1
  H  H83  1  0.63348300  0.25384300  0.22594100  1
  H  H84  1  0.62405200  0.33363500  0.19283400  1
  H  H85  1  0.71781400  0.19956300  0.27105100  1
  H  H86  1  0.80139200  0.18555500  0.27717200  1
  H  H87  1  0.80621400  0.25314100  0.18886400  1
  H  H88  1  0.72696000  0.33521900  0.09413500  1
  H  H89  1  0.64323400  0.34985700  0.08751300  1
  H  H90  1  0.62074600  0.68494500  0.19701500  1
  H  H91  1  0.55275400  0.66759700  0.17629000  1
  H  H92  1  0.65759700  0.80136200  0.23509800  1
  H  H93  1  0.68473600  0.88589800  0.33475400  1
  H  H94  1  0.63888100  0.88848100  0.39471300  1
  H  H95  1  0.56549900  0.80600400  0.35441400  1
  H  H96  1  0.53726900  0.72167000  0.25378200  1
  C  C1  1  0.11943000  0.49779900  0.12364600  1
  C  C2  1  0.61943000  0.99779900  0.12364600  1
  C  C3  1  0.00130400  0.61946300  0.00552100  1
  C  C4  1  0.99769600  0.37931200  0.00095200  1
  C  C5  1  0.50130400  0.11946300  0.00552100  1
  C  C6  1  0.49769600  0.87931100  0.00095200  1
  C  C7  1  0.87890500  0.50115100  0.88217100  1
  C  C8  1  0.37890500  0.00115100  0.88217100  1
  C  C9  1  0.04994600  0.72709200  0.01736800  1
  C  C10  1  0.05422900  0.27018600  0.04580900  1
  C  C11  1  0.54994600  0.22709100  0.01736800  1
  C  C12  1  0.55422900  0.77018600  0.04580900  1
  C  C13  1  0.99667900  0.77049200  0.94413800  1
  C  C14  1  0.01556200  0.22896300  0.96365000  1
  C  C15  1  0.49667900  0.27049200  0.94413800  1
  C  C16  1  0.51556200  0.72896300  0.96365000  1
  C  C17  1  0.00772600  0.80973800  0.01319200  1
  C  C18  1  0.99689400  0.18926100  0.00052800  1
  C  C19  1  0.50772600  0.30973800  0.01319200  1
  C  C20  1  0.49689400  0.68926100  0.00052800  1
  C  C21  1  0.06034100  0.76709700  0.08548900  1
  C  C22  1  0.03484700  0.22988400  0.08149600  1
  C  C23  1  0.56034100  0.26709700  0.08548900  1
  C  C24  1  0.53484700  0.72988400  0.08149600  1
  C  C25  1  0.01424800  0.72783600  0.07659700  1
  C  C26  1  0.97789800  0.27022500  0.03688700  1
  C  C27  1  0.51424800  0.22783600  0.07659700  1
  C  C28  1  0.47789800  0.77022500  0.03688700  1
  C  C29  1  0.96116500  0.77093900  0.00337100  1
  C  C30  1  0.93944000  0.22893000  0.95467400  1
  C  C31  1  0.46116500  0.27093900  0.00337100  1
  C  C32  1  0.43944000  0.72893000  0.95467400  1
  C  C33  1  0.95011400  0.73095800  0.93435800  1
  C  C34  1  0.95812700  0.26974800  0.91783400  1
  C  C35  1  0.45011400  0.23095800  0.93435800  1
  C  C36  1  0.45812700  0.76974800  0.91783400  1
  C  C37  1  0.00323300  0.68899200  0.00759900  1
  C  C38  1  0.99672300  0.30975200  0.00004300  1
  C  C39  1  0.50323300  0.18899200  0.00759900  1
  C  C40  1  0.49672300  0.80975200  0.00004300  1
  C  C41  1  0.22923900  0.44696600  0.20572600  1
  C  C42  1  0.22864200  0.54801800  0.20302600  1
  C  C43  1  0.72923900  0.94696500  0.20572700  1
  C  C44  1  0.72864200  0.04801800  0.20302600  1
  C  C45  1  0.26996500  0.49714300  0.21631300  1
  C  C46  1  0.76996500  0.99714300  0.21631300  1
  C  C47  1  0.30935000  0.49861300  0.31425500  1
  C  C48  1  0.80935000  0.99861300  0.31425500  1
  C  C49  1  0.26979600  0.44844600  0.30484600  1
  C  C50  1  0.26917900  0.54948500  0.30211700  1
  C  C51  1  0.76979600  0.94844600  0.30484700  1
  C  C52  1  0.76917900  0.04948500  0.30211700  1
  C  C53  1  0.22849500  0.49933300  0.29156000  1
  C  C54  1  0.72849500  0.99933300  0.29156000  1
  C  C55  1  0.18909200  0.49785200  0.19361000  1
  C  C56  1  0.68909200  0.99785200  0.19361000  1
  C  C57  1  0.76953000  0.54256000  0.73131400  1
  C  C58  1  0.76956400  0.44507300  0.75812900  1
  C  C59  1  0.26953000  0.04256000  0.73131400  1
  C  C60  1  0.26956400  0.94507300  0.75812900  1
  C  C61  1  0.72861500  0.48605200  0.67579700  1
  C  C62  1  0.22861500  0.98605200  0.67579700  1
  C  C63  1  0.68907900  0.50154600  0.69278900  1
  C  C64  1  0.18907900  0.00154600  0.69278900  1
  C  C65  1  0.72879400  0.55802300  0.74707300  1
  C  C66  1  0.72886700  0.46054700  0.77397600  1
  C  C67  1  0.22879400  0.05802300  0.74707300  1
  C  C68  1  0.22886700  0.96054700  0.77397600  1
  C  C69  1  0.76971000  0.51697300  0.82941700  1
  C  C70  1  0.26971000  0.01697300  0.82941700  1
  C  C71  1  0.80928400  0.50153200  0.81247900  1
  C  C72  1  0.30928400  0.00153200  0.81247900  1
  C  C73  1  0.00167200  0.99841200  0.88571200  1
  C  C74  1  0.50167200  0.49841200  0.88571200  1
  C  C75  1  0.00596000  0.87950900  0.01180300  1
  C  C76  1  0.99862200  0.11968400  0.00268400  1
  C  C77  1  0.50596000  0.37950900  0.01180300  1
  C  C78  1  0.49862200  0.61968400  0.00268500  1
  C  C79  1  0.00269000  0.00016200  0.12718900  1
  C  C80  1  0.50269100  0.50016100  0.12718900  1
  C  C81  1  0.49907200  0.50135900  0.38307100  1
  C  C82  1  0.99907200  0.00135900  0.38307100  1
  C  C83  1  0.37901100  0.49920100  0.38438000  1
  C  C84  1  0.87901100  0.99920100  0.38438000  1
  C  C85  1  0.49889500  0.49901200  0.62338600  1
  C  C86  1  0.99889500  0.99901200  0.62338600  1
  C  C87  1  0.61946200  0.50108300  0.62382700  1
  C  C88  1  0.11946100  0.00108300  0.62382700  1
  C  C89  1  0.03838200  0.04322500  0.81264500  1
  C  C90  1  0.02069500  0.94369100  0.79508500  1
  C  C91  1  0.53838200  0.54322500  0.81264500  1
  C  C92  1  0.52069500  0.44369100  0.79508500  1
  C  C93  1  0.55786100  0.48836300  0.79094600  1
  C  C94  1  0.05786100  0.98836300  0.79094600  1
  C  C95  1  0.49988600  0.49860300  0.69402600  1
  C  C96  1  0.99988600  0.99860300  0.69402600  1
  C  C97  1  0.48043900  0.55344200  0.71459700  1
  C  C98  1  0.46268700  0.45393200  0.69695000  1
  C  C99  1  0.98043900  0.05344200  0.71459700  1
  C  C100  1  0.96268700  0.95393200  0.69695000  1
  C  C101  1  0.94323900  0.00873000  0.71864300  1
  C  C102  1  0.44323900  0.50873000  0.71864300  1
  C  C103  1  0.00120100  0.99852400  0.81558500  1
  C  C104  1  0.50120100  0.49852400  0.81558500  1
  C  C105  1  0.99181000  0.94394700  0.22581100  1
  C  C106  1  0.05670000  0.02156200  0.29121600  1
  C  C107  1  0.49181100  0.44394700  0.22581200  1
  C  C108  1  0.55670000  0.52156200  0.29121600  1
  C  C109  1  0.54598700  0.46430100  0.32152300  1
  C  C110  1  0.04598700  0.96430100  0.32152300  1
  C  C111  1  0.50041400  0.50184900  0.31477500  1
  C  C112  1  0.00041400  0.00184900  0.31477500  1
  C  C113  1  0.44627700  0.48149100  0.22021600  1
  C  C114  1  0.51109400  0.55917200  0.28562600  1
  C  C115  1  0.94627700  0.98149100  0.22021600  1
  C  C116  1  0.01109400  0.05917200  0.28562600  1
  C  C117  1  0.95697400  0.03880200  0.18992800  1
  C  C118  1  0.45697400  0.53880200  0.18992800  1
  C  C119  1  0.00252200  0.00121200  0.19665600  1
  C  C120  1  0.50252200  0.50121200  0.19665600  1
  C  C121  1  0.12411100  0.78466300  0.17587000  1
  C  C122  1  0.17471800  0.77580100  0.17880100  1
  C  C123  1  0.21944700  0.72976900  0.23207100  1
  C  C124  1  0.26657100  0.72169400  0.23560600  1
  C  C125  1  0.26926600  0.75951200  0.18605500  1
  C  C126  1  0.22485600  0.80551300  0.13300000  1
  C  C127  1  0.17773600  0.81373100  0.12942600  1
  C  C128  1  0.07777400  0.20502800  0.17536500  1
  C  C129  1  0.09502400  0.25627900  0.23683600  1
  C  C130  1  0.13662300  0.30240200  0.26021600  1
  C  C131  1  0.15222800  0.34986100  0.31669500  1
  C  C132  1  0.12660100  0.35125000  0.35039500  1
  C  C133  1  0.08551300  0.30499400  0.32784900  1
  C  C134  1  0.06980300  0.25749400  0.27131300  1
  C  C135  1  0.62411100  0.28466300  0.17587000  1
  C  C136  1  0.67471800  0.27580100  0.17880100  1
  C  C137  1  0.71944700  0.22976900  0.23207100  1
  C  C138  1  0.76657100  0.22169400  0.23560600  1
  C  C139  1  0.76926600  0.25951200  0.18605500  1
  C  C140  1  0.72485600  0.30551300  0.13300000  1
  C  C141  1  0.67773600  0.31373100  0.12942600  1
  C  C142  1  0.57777400  0.70502800  0.17536500  1
  C  C143  1  0.59502400  0.75627900  0.23683600  1
  C  C144  1  0.63662300  0.80240200  0.26021600  1
  C  C145  1  0.65222800  0.84986100  0.31669500  1
  C  C146  1  0.62660100  0.85125000  0.35039500  1
  C  C147  1  0.58551300  0.80499400  0.32784900  1
  C  C148  1  0.56980300  0.75749500  0.27131300  1
  O  O1  1  0.08995700  0.49971300  0.14807600  1
  O  O2  1  0.58995700  0.99971400  0.14807600  1
  O  O3  1  0.09054700  0.49649700  0.04061200  1
  O  O4  1  0.59054700  0.99649700  0.04061200  1
  O  O5  1  0.99873700  0.59045200  0.05702900  1
  O  O6  1  0.99416600  0.40847900  0.05139600  1
  O  O7  1  0.49873700  0.09045200  0.05702900  1
  O  O8  1  0.49416600  0.90847900  0.05139600  1
  O  O9  1  0.99743300  0.59042800  0.94762700  1
  O  O10  1  0.99674400  0.40837400  0.94589000  1
  O  O11  1  0.49743300  0.09042800  0.94762700  1
  O  O12  1  0.49674400  0.90837400  0.94589000  1
  O  O13  1  0.90776600  0.50422200  0.96520000  1
  O  O14  1  0.40776600  0.00422200  0.96520000  1
  O  O15  1  0.90827400  0.49719200  0.85756800  1
  O  O16  1  0.40827400  0.99719200  0.85756800  1
  O  O17  1  0.94770400  0.00125300  0.86116000  1
  O  O18  1  0.44770400  0.50125300  0.86116000  1
  O  O19  1  0.05594100  0.00137800  0.96871500  1
  O  O20  1  0.55594100  0.50137800  0.96871500  1
  O  O21  1  0.95121500  0.90703000  0.95250700  1
  O  O22  1  0.94530300  0.08899500  0.94856900  1
  O  O23  1  0.45121500  0.40703000  0.95250800  1
  O  O24  1  0.44530300  0.58899500  0.94856900  1
  O  O25  1  0.05893600  0.91038800  0.06289500  1
  O  O26  1  0.05343700  0.09225200  0.05280900  1
  O  O27  1  0.55893600  0.41038800  0.06289500  1
  O  O28  1  0.55343700  0.59225200  0.05280900  1
  O  O29  1  0.94853900  0.99932300  0.04422900  1
  O  O30  1  0.44853900  0.49932300  0.04422900  1
  O  O31  1  0.05633500  0.00599100  0.15134500  1
  O  O32  1  0.55633500  0.50599100  0.15134500  1
  O  O33  1  0.50220700  0.55509400  0.41583500  1
  O  O34  1  0.50090700  0.44699100  0.41347500  1
  O  O35  1  0.00220700  0.05509400  0.41583500  1
  O  O36  1  0.00090700  0.94699100  0.41347500  1
  O  O37  1  0.40770600  0.55331400  0.40929100  1
  O  O38  1  0.40856600  0.44550100  0.41127800  1
  O  O39  1  0.90770600  0.05331400  0.40929100  1
  O  O40  1  0.90856600  0.94550100  0.41127900  1
  O  O41  1  0.50011200  0.55326500  0.59598700  1
  O  O42  1  0.50323500  0.44543800  0.59805700  1
  O  O43  1  0.00011200  0.05326500  0.59598700  1
  O  O44  1  0.00323500  0.94543800  0.59805700  1
  O  O45  1  0.58996100  0.55498000  0.59326400  1
  O  O46  1  0.59081400  0.44691200  0.59087700  1
  O  O47  1  0.08996100  0.05498000  0.59326400  1
  O  O48  1  0.09081400  0.94691200  0.59087700  1
