# generated using pymatgen
data_Zn6H57C90N5O24
_symmetry_space_group_name_H-M   'P 1'
_cell_length_a   18.94104300
_cell_length_b   18.88881600
_cell_length_c   18.91439000
_cell_angle_alpha   109.38229100
_cell_angle_beta   109.50431700
_cell_angle_gamma   109.52790900
_symmetry_Int_Tables_number   1
_chemical_formula_structural   Zn6H57C90N5O24
_chemical_formula_sum   'Zn6 H57 C90 N5 O24'
_cell_volume   5209.23423218
_cell_formula_units_Z   1
loop_
 _symmetry_equiv_pos_site_id
 _symmetry_equiv_pos_as_xyz
  1  'x, y, z'
loop_
 _atom_site_type_symbol
 _atom_site_label
 _atom_site_symmetry_multiplicity
 _atom_site_fract_x
 _atom_site_fract_y
 _atom_site_fract_z
 _atom_site_occupancy
  Zn  Zn1  1  0.49398400  0.43083800  0.42182500  1
  Zn  Zn2  1  0.49103100  0.56716900  0.55981700  1
  Zn  Zn3  1  0.92652100  0.43374000  0.99225500  1
  Zn  Zn4  1  0.06302900  0.57454100  0.99213200  1
  Zn  Zn5  1  0.06313000  0.99817300  0.56062200  1
  Zn  Zn6  1  0.92511000  0.00344300  0.42691600  1
  H  H1  1  0.17532400  0.11150800  0.17639400  1
  H  H2  1  0.24902400  0.17918000  0.11213500  1
  H  H3  1  0.27631000  0.32460100  0.13777200  1
  H  H4  1  0.16091100  0.33717700  0.29684600  1
  H  H5  1  0.11658200  0.36999300  0.11858500  1
  H  H6  1  0.37319100  0.63949200  0.36961600  1
  H  H7  1  0.39139100  0.70895700  0.26967900  1
  H  H8  1  0.41698900  0.85340100  0.29427300  1
  H  H9  1  0.31061500  0.89684400  0.30532200  1
  H  H10  1  0.17950800  0.79627700  0.29368200  1
  H  H11  1  0.15358500  0.65167500  0.26963900  1
  H  H12  1  0.89088200  0.84455100  0.62386600  1
  H  H13  1  0.71016200  0.77168700  0.36918200  1
  H  H14  1  0.59951200  0.65729400  0.36793400  1
  H  H15  1  0.61776200  0.49787600  0.75371900  1
  H  H16  1  0.72978800  0.49609000  0.86414200  1
  H  H17  1  0.86963400  0.50435700  0.72810800  1
  H  H18  1  0.75469700  0.49991100  0.61467300  1
  H  H19  1  0.23171500  0.37509300  0.49360600  1
  H  H20  1  0.11895100  0.26216300  0.49188400  1
  H  H21  1  0.25434500  0.12142900  0.48744800  1
  H  H22  1  0.36427100  0.23163800  0.48310200  1
  H  H23  1  0.96040400  0.86144400  0.21662800  1
  H  H24  1  0.01071000  0.74594100  0.37285500  1
  H  H25  1  0.00658100  0.63388200  0.25753100  1
  H  H26  1  0.86637200  0.13766300  0.61880200  1
  H  H27  1  0.86663300  0.24869300  0.73114900  1
  H  H28  1  0.76127300  0.66659400  0.62593400  1
  H  H29  1  0.76620000  0.69179200  0.75751000  1
  H  H30  1  0.74405000  0.77094600  0.87193800  1
  H  H31  1  0.73854500  0.90333400  0.88824100  1
  H  H32  1  0.75565700  0.95643200  0.78950000  1
  H  H33  1  0.77767400  0.87999000  0.67578700  1
  H  H34  1  0.91465600  0.69274700  0.02998900  1
  H  H35  1  0.96478800  0.72715400  0.94294100  1
  H  H36  1  0.08763500  0.81018200  0.93271100  1
  H  H37  1  0.22160800  0.93366800  0.06413400  1
  H  H38  1  0.23211700  0.97406400  0.20631000  1
  H  H39  1  0.11203100  0.89377800  0.21891200  1
  H  H40  1  0.15950900  0.40568500  0.95269400  1
  H  H41  1  0.27156200  0.54846100  0.03211900  1
  H  H42  1  0.34662500  0.68222500  0.03272300  1
  H  H43  1  0.32327700  0.67987800  0.89589000  1
  H  H44  1  0.22449500  0.54264200  0.75803400  1
  H  H45  1  0.14934000  0.40909300  0.75500500  1
  H  H46  1  0.16742000  0.25488000  0.71714500  1
  H  H47  1  0.27248400  0.21595100  0.75910900  1
  H  H48  1  0.32787800  0.14524100  0.83200200  1
  H  H49  1  0.28031600  0.11476300  0.92985400  1
  H  H50  1  0.17692900  0.15559700  0.95466100  1
  H  H51  1  0.12121500  0.22585400  0.88419200  1
  H  H52  1  0.14941100  0.15292900  0.30325600  1
  H  H53  1  0.02934900  0.03297800  0.26645000  1
  H  H54  1  0.87572800  0.92686200  0.16526100  1
  H  H55  1  0.78825500  0.95168700  0.05738600  1
  H  H56  1  0.85449800  0.08459500  0.05204500  1
  H  H57  1  0.00613600  0.19212800  0.15271100  1
  C  C1  1  0.61340900  0.61991800  0.49308800  1
  C  C2  1  0.37331200  0.50024300  0.37153100  1
  C  C3  1  0.37204900  0.37821700  0.48912600  1
  C  C4  1  0.61127800  0.49741100  0.60976800  1
  C  C5  1  0.22962800  0.21387400  0.15268700  1
  C  C6  1  0.24519100  0.29552300  0.16731300  1
  C  C7  1  0.22172200  0.34043900  0.22017900  1
  C  C8  1  0.18062200  0.30263900  0.25656600  1
  C  C9  1  0.16237400  0.21968800  0.23952400  1
  C  C10  1  0.18835900  0.17598500  0.18886800  1
  C  C11  1  0.17294400  0.42962800  0.17366500  1
  C  C12  1  0.18262500  0.50830800  0.18236900  1
  C  C13  1  0.25599300  0.58451000  0.25275300  1
  C  C14  1  0.31701600  0.58024300  0.31382900  1
  C  C15  1  0.30749400  0.50142200  0.30444900  1
  C  C16  1  0.23551400  0.42560500  0.23299100  1
  C  C17  1  0.34455400  0.72776200  0.27487000  1
  C  C18  1  0.35893100  0.80888000  0.28846500  1
  C  C19  1  0.29933900  0.83323300  0.29463400  1
  C  C20  1  0.22564900  0.77666000  0.28783100  1
  C  C21  1  0.21101400  0.69536200  0.27392600  1
  C  C22  1  0.26996000  0.67021000  0.26627800  1
  C  C23  1  0.76313900  0.74242700  0.56869300  1
  C  C24  1  0.82673500  0.80429000  0.56766200  1
  C  C25  1  0.80800700  0.81618200  0.49685400  1
  C  C26  1  0.72575000  0.76397000  0.42557600  1
  C  C27  1  0.66339500  0.69906400  0.42451200  1
  C  C28  1  0.68149200  0.68824600  0.49583100  1
  C  C29  1  0.67278300  0.49879600  0.74767000  1
  C  C30  1  0.73551000  0.49708400  0.80945700  1
  C  C31  1  0.80677500  0.49988700  0.80306000  1
  C  C32  1  0.81413800  0.50240200  0.73369600  1
  C  C33  1  0.74908500  0.49922500  0.66949700  1
  C  C34  1  0.67880100  0.49843900  0.67686800  1
  C  C35  1  0.23678900  0.31929400  0.49189100  1
  C  C36  1  0.17293800  0.25537900  0.49032400  1
  C  C37  1  0.17959600  0.18474600  0.48990600  1
  C  C38  1  0.24907500  0.17695900  0.48847400  1
  C  C39  1  0.31053200  0.23860300  0.48521900  1
  C  C40  1  0.30505600  0.31046700  0.48810800  1
  C  C41  1  0.98815500  0.62065500  0.10823300  1
  C  C42  1  0.11515000  0.50777900  0.11512500  1
  C  C43  1  0.00127100  0.38750100  0.87594800  1
  C  C44  1  0.87462800  0.50107500  0.86998900  1
  C  C45  1  0.98910800  0.87880000  0.37149300  1
  C  C46  1  0.87535100  0.88289900  0.49690300  1
  C  C47  1  0.99980500  0.12356600  0.61635500  1
  C  C48  1  0.11271000  0.11838600  0.49037300  1
  C  C49  1  0.97425500  0.75196100  0.16287500  1
  C  C50  1  0.97135300  0.81198300  0.22618400  1
  C  C51  1  0.98633200  0.81145500  0.30246100  1
  C  C52  1  0.99982800  0.74773200  0.31378000  1
  C  C53  1  0.99693100  0.68417500  0.24849800  1
  C  C54  1  0.98580500  0.68666400  0.17363000  1
  C  C55  1  0.08168200  0.32579100  0.82070100  1
  C  C56  1  0.08127500  0.25946200  0.75997900  1
  C  C57  1  0.00368200  0.19242400  0.68555700  1
  C  C58  1  0.92724600  0.19002500  0.67568800  1
  C  C59  1  0.92725700  0.25237700  0.73930200  1
  C  C60  1  0.00406600  0.32099400  0.81137000  1
  C  C61  1  0.77207300  0.77819100  0.70681400  1
  C  C62  1  0.76315900  0.74942800  0.76334200  1
  C  C63  1  0.75098400  0.79406900  0.82814700  1
  C  C64  1  0.74797500  0.86822900  0.83735800  1
  C  C65  1  0.75750900  0.89789500  0.78190700  1
  C  C66  1  0.76972300  0.85352200  0.71691300  1
  C  C67  1  0.02872600  0.80280900  0.08114200  1
  C  C68  1  0.02336600  0.78108900  0.00140400  1
  C  C69  1  0.09244400  0.82780500  0.99534000  1
  C  C70  1  0.16747900  0.89695600  0.06891200  1
  C  C71  1  0.17332200  0.91950300  0.14858100  1
  C  C72  1  0.10445700  0.87300100  0.15511400  1
  C  C73  1  0.20416800  0.46882100  0.89410400  1
  C  C74  1  0.26045900  0.54636200  0.97136800  1
  C  C75  1  0.30295200  0.62191300  0.97199500  1
  C  C76  1  0.28988700  0.62063000  0.89539200  1
  C  C77  1  0.23443900  0.54366600  0.81814100  1
  C  C78  1  0.19162600  0.46784100  0.81705700  1
  C  C79  1  0.19234700  0.22579900  0.81501900  1
  C  C80  1  0.25084200  0.20283700  0.80183500  1
  C  C81  1  0.28225800  0.16302700  0.84285000  1
  C  C82  1  0.25565700  0.14595300  0.89765200  1
  C  C83  1  0.19770800  0.16886600  0.91152400  1
  C  C84  1  0.16602600  0.20872100  0.87069700  1
  C  C85  1  0.02995300  0.11942000  0.21604000  1
  C  C86  1  0.99181500  0.04492600  0.21929800  1
  C  C87  1  0.90524100  0.98491100  0.16240500  1
  C  C88  1  0.85610000  0.99883100  0.10196600  1
  C  C89  1  0.89331800  0.07329000  0.09894900  1
  C  C90  1  0.97977200  0.13376600  0.15593200  1
  N  N1  1  0.78489000  0.73043700  0.64131300  1
  N  N2  1  0.95613800  0.75301500  0.08451400  1
  N  N3  1  0.16138200  0.39257400  0.89623500  1
  N  N4  1  0.16157500  0.26662600  0.77147400  1
  N  N5  1  0.11890100  0.18031700  0.27535700  1
  O  O1  1  0.58597600  0.53906100  0.43947400  1
  O  O2  1  0.58292400  0.64259100  0.54434100  1
  O  O3  1  0.40365200  0.44896200  0.34807100  1
  O  O4  1  0.40063700  0.55246700  0.45273000  1
  O  O5  1  0.40466200  0.35553100  0.44000400  1
  O  O6  1  0.39655800  0.45899000  0.53950600  1
  O  O7  1  0.58716100  0.44834700  0.52884300  1
  O  O8  1  0.57897500  0.54659800  0.63343300  1
  O  O9  1  0.94030300  0.53923000  0.08394800  1
  O  O10  1  0.03930300  0.64575600  0.07827800  1
  O  O11  1  0.03424200  0.45321700  0.08630100  1
  O  O12  1  0.13795100  0.55942900  0.08474900  1
  O  O13  1  0.94801800  0.36233000  0.90383100  1
  O  O14  1  0.05131500  0.46910100  0.90254600  1
  O  O15  1  0.85163800  0.45093200  0.90170500  1
  O  O16  1  0.95545600  0.55291400  0.89594500  1
  O  O17  1  0.04061200  0.90291800  0.45175200  1
  O  O18  1  0.94074100  0.91263000  0.35027600  1
  O  O19  1  0.95641600  0.90836000  0.54708400  1
  O  O20  1  0.85173200  0.91376200  0.44612800  1
  O  O21  1  0.04958300  0.09105900  0.63720100  1
  O  O22  1  0.94538300  0.09649400  0.53595100  1
  O  O23  1  0.13637300  0.08552900  0.53906600  1
  O  O24  1  0.03192800  0.09550700  0.44273600  1
