# generated using pymatgen
data_CuH8C14NO4
_symmetry_space_group_name_H-M   'P 1'
_cell_length_a   15.11246300
_cell_length_b   9.40157200
_cell_length_c   10.88092100
_cell_angle_alpha   90.00000000
_cell_angle_beta   90.00297800
_cell_angle_gamma   90.00000000
_symmetry_Int_Tables_number   1
_chemical_formula_structural   CuH8C14NO4
_chemical_formula_sum   'Cu2 H16 C28 N2 O8'
_cell_volume   1545.97114426
_cell_formula_units_Z   2
loop_
 _symmetry_equiv_pos_site_id
 _symmetry_equiv_pos_as_xyz
  1  'x, y, z'
loop_
 _atom_site_type_symbol
 _atom_site_label
 _atom_site_symmetry_multiplicity
 _atom_site_fract_x
 _atom_site_fract_y
 _atom_site_fract_z
 _atom_site_occupancy
  Cu  Cu1  1  0.00000000  0.14425600  0.00000000  1
  Cu  Cu2  1  0.00000000  0.86250700  0.00000000  1
  H  H1  1  0.99995700  0.77582900  0.61130400  1
  H  H2  1  0.00004300  0.77582900  0.38869600  1
  H  H3  1  0.00004400  0.23101400  0.38869700  1
  H  H4  1  0.99995600  0.23101400  0.61130300  1
  H  H5  1  0.27637400  0.77259100  0.00030000  1
  H  H6  1  0.72362600  0.77259100  0.99970000  1
  H  H7  1  0.71630500  0.22587300  0.99981700  1
  H  H8  1  0.28369500  0.22587300  0.00018300  1
  H  H9  1  0.58040600  0.34682900  0.99992400  1
  H  H10  1  0.41959400  0.34682900  0.00007600  1
  H  H11  1  0.43186400  0.76203400  0.00018000  1
  H  H12  1  0.56813600  0.76203400  0.99982000  1
  H  H13  1  0.90159700  0.63374500  0.13657400  1
  H  H14  1  0.09840300  0.63374500  0.86342600  1
  H  H15  1  0.90158900  0.37299500  0.13655700  1
  H  H16  1  0.09841100  0.37299500  0.86344300  1
  C  C1  1  0.82831600  0.00264800  0.99977400  1
  C  C2  1  0.17168300  0.00264800  0.00022600  1
  C  C3  1  0.00007600  0.00342100  0.23819900  1
  C  C4  1  0.99992300  0.00342100  0.76180100  1
  C  C5  1  0.99997300  0.87645500  0.56332100  1
  C  C6  1  0.00002600  0.87645500  0.43667900  1
  C  C7  1  0.00005500  0.00342100  0.37274300  1
  C  C8  1  0.99994500  0.00342100  0.62725700  1
  C  C9  1  0.00002700  0.13038800  0.43667900  1
  C  C10  1  0.99997200  0.13038800  0.56332100  1
  C  C11  1  0.31710300  0.12425900  0.00018300  1
  C  C12  1  0.68289700  0.12425900  0.99981700  1
  C  C13  1  0.26866800  0.00004300  0.00024100  1
  C  C14  1  0.73133200  0.00004300  0.99975900  1
  C  C15  1  0.31253300  0.87172500  0.00024600  1
  C  C16  1  0.68746600  0.87172500  0.99975400  1
  C  C17  1  0.40352000  0.86675800  0.00016100  1
  C  C18  1  0.59648000  0.86675800  0.99983900  1
  C  C19  1  0.45349600  0.99125800  0.00006300  1
  C  C20  1  0.54650400  0.99125800  0.99993700  1
  C  C21  1  0.40860200  0.12009100  0.00010000  1
  C  C22  1  0.59139800  0.12009100  0.99990000  1
  C  C23  1  0.54539700  0.24656200  0.99995700  1
  C  C24  1  0.45460300  0.24656200  0.00004300  1
  C  C25  1  0.94553100  0.57677700  0.07559500  1
  C  C26  1  0.05446900  0.57677700  0.92440500  1
  C  C27  1  0.94552800  0.42997100  0.07559000  1
  C  C28  1  0.05447200  0.42997100  0.92441000  1
  N  N1  1  0.00000000  0.35805200  0.00000000  1
  N  N2  1  0.00000000  0.64870300  0.00000000  1
  O  O1  1  0.87093700  0.12444400  0.99983100  1
  O  O2  1  0.12906200  0.12444400  0.00016900  1
  O  O3  1  0.87177900  0.88185500  0.99981100  1
  O  O4  1  0.12822100  0.88185500  0.00018900  1
  O  O5  1  0.00008200  0.12473900  0.17851200  1
  O  O6  1  0.99991800  0.12473900  0.82148800  1
  O  O7  1  0.00004900  0.88210300  0.17851100  1
  O  O8  1  0.99995100  0.88210300  0.82148900  1
