# generated using pymatgen
data_Zn3H4C32(OF)12
_symmetry_space_group_name_H-M   'P 1'
_cell_length_a   30.43308100
_cell_length_b   30.43308100
_cell_length_c   18.60563800
_cell_angle_alpha   90.00000000
_cell_angle_beta   90.00000000
_cell_angle_gamma   90.00000000
_symmetry_Int_Tables_number   1
_chemical_formula_structural   Zn3H4C32(OF)12
_chemical_formula_sum   'Zn12 H16 C128 O48 F48'
_cell_volume   17232.02875634
_cell_formula_units_Z   4
loop_
 _symmetry_equiv_pos_site_id
 _symmetry_equiv_pos_as_xyz
  1  'x, y, z'
loop_
 _atom_site_type_symbol
 _atom_site_label
 _atom_site_symmetry_multiplicity
 _atom_site_fract_x
 _atom_site_fract_y
 _atom_site_fract_z
 _atom_site_occupancy
  Zn  Zn1  1  0.50009400  0.04963600  0.50034000  1
  Zn  Zn2  1  0.95021100  0.49999300  0.49997400  1
  Zn  Zn3  1  0.49999300  0.95021100  0.50002700  1
  Zn  Zn4  1  0.04963500  0.50009500  0.49966100  1
  Zn  Zn5  1  0.99987600  0.54979000  0.99974800  1
  Zn  Zn6  1  0.45036100  0.99992400  0.00011600  1
  Zn  Zn7  1  0.99992400  0.45036100  0.99988500  1
  Zn  Zn8  1  0.54979000  0.99987600  0.00025300  1
  Zn  Zn9  1  0.00013900  0.99995300  0.41882400  1
  Zn  Zn10  1  0.99995200  0.00013900  0.58117700  1
  Zn  Zn11  1  0.49997800  0.50002600  0.91881600  1
  Zn  Zn12  1  0.50002600  0.49997800  0.08118500  1
  H  H1  1  0.27973500  0.93338700  0.53364500  1
  H  H2  1  0.06762700  0.27926000  0.53151400  1
  H  H3  1  0.72041300  0.06528400  0.53791600  1
  H  H4  1  0.93353400  0.72075500  0.53967300  1
  H  H5  1  0.72075400  0.93353500  0.46032800  1
  H  H6  1  0.93338600  0.27973500  0.46635500  1
  H  H7  1  0.27925900  0.06762700  0.46848700  1
  H  H8  1  0.06528300  0.72041300  0.46208500  1
  H  H9  1  0.77911800  0.43306100  0.03519000  1
  H  H10  1  0.56617800  0.77966500  0.03587300  1
  H  H11  1  0.22069300  0.56697600  0.03590100  1
  H  H12  1  0.43396700  0.22026700  0.03569300  1
  H  H13  1  0.22026700  0.43396700  0.96430700  1
  H  H14  1  0.43306000  0.77911800  0.96481100  1
  H  H15  1  0.77966500  0.56617800  0.96412800  1
  H  H16  1  0.56697600  0.22069300  0.96410100  1
  C  C1  1  0.22598700  0.00035300  0.50121800  1
  C  C2  1  0.00035300  0.22598700  0.49878300  1
  C  C3  1  0.77409300  0.99960300  0.49887900  1
  C  C4  1  0.99960300  0.77409300  0.50112200  1
  C  C5  1  0.72590200  0.49978400  0.99937300  1
  C  C6  1  0.49978300  0.72590300  0.00062800  1
  C  C7  1  0.27400900  0.50023600  0.00052000  1
  C  C8  1  0.50023600  0.27400900  0.99948100  1
  C  C9  1  0.41384100  0.00091500  0.50064200  1
  C  C10  1  0.00091500  0.41384100  0.49936000  1
  C  C11  1  0.58624400  0.99893400  0.49972300  1
  C  C12  1  0.99893300  0.58624400  0.50027800  1
  C  C13  1  0.91370700  0.49913900  0.00001300  1
  C  C14  1  0.49913900  0.91370700  0.99998800  1
  C  C15  1  0.08611200  0.50101500  0.99961800  1
  C  C16  1  0.50101500  0.08611200  0.00038300  1
  C  C17  1  0.49968300  0.99926800  0.35965500  1
  C  C18  1  0.00057700  0.50041200  0.35929200  1
  C  C19  1  0.50041100  0.00057700  0.64070900  1
  C  C20  1  0.99926800  0.49968400  0.64034600  1
  C  C21  1  0.99983600  0.49919200  0.85929500  1
  C  C22  1  0.50095800  0.99996200  0.85965800  1
  C  C23  1  0.99996200  0.50095800  0.14034300  1
  C  C24  1  0.49919100  0.99983600  0.14070600  1
  C  C25  1  0.99999900  0.91382000  0.50169200  1
  C  C26  1  0.08626500  0.00009200  0.50169400  1
  C  C27  1  0.00009100  0.08626500  0.49830700  1
  C  C28  1  0.91382000  0.99999900  0.49830900  1
  C  C29  1  0.49996900  0.41377100  0.99854500  1
  C  C30  1  0.58621800  0.50003300  0.99854900  1
  C  C31  1  0.50003300  0.58621800  0.00145300  1
  C  C32  1  0.41377000  0.49997000  0.00145600  1
  C  C33  1  0.49948800  0.99952900  0.28255800  1
  C  C34  1  0.00030900  0.50063300  0.28219500  1
  C  C35  1  0.50063300  0.00030900  0.71780600  1
  C  C36  1  0.99952900  0.49948800  0.71744300  1
  C  C37  1  0.99970000  0.49934200  0.78219700  1
  C  C38  1  0.50079900  0.00012100  0.78256000  1
  C  C39  1  0.00012100  0.50080000  0.21744100  1
  C  C40  1  0.49934100  0.99970000  0.21780400  1
  C  C41  1  0.29712600  0.96313800  0.51960300  1
  C  C42  1  0.03798000  0.29685900  0.51757900  1
  C  C43  1  0.70299500  0.03605800  0.52125600  1
  C  C44  1  0.96263400  0.70318300  0.52285500  1
  C  C45  1  0.70318300  0.96263500  0.47714600  1
  C  C46  1  0.96313800  0.29712600  0.48039800  1
  C  C47  1  0.29685900  0.03798000  0.48242300  1
  C  C48  1  0.03605800  0.70299500  0.47874500  1
  C  C49  1  0.79674200  0.46245400  0.01995600  1
  C  C50  1  0.53667200  0.79704800  0.02048300  1
  C  C51  1  0.20311100  0.53761000  0.02040400  1
  C  C52  1  0.46348500  0.20287500  0.02039900  1
  C  C53  1  0.20287500  0.46348600  0.97960200  1
  C  C54  1  0.46245300  0.79674200  0.98004500  1
  C  C55  1  0.79704800  0.53667200  0.97951900  1
  C  C56  1  0.53761000  0.20311100  0.97959700  1
  C  C57  1  0.34241900  0.96305700  0.51925800  1
  C  C58  1  0.03833500  0.34214900  0.51750600  1
  C  C59  1  0.65770300  0.03611800  0.52128000  1
  C  C60  1  0.96224700  0.65789300  0.52246100  1
  C  C61  1  0.65789300  0.96224700  0.47754000  1
  C  C62  1  0.96305700  0.34241900  0.48074300  1
  C  C63  1  0.34214900  0.03833500  0.48249500  1
  C  C64  1  0.03611800  0.65770300  0.47872100  1
  C  C65  1  0.84203300  0.46207700  0.01988300  1
  C  C66  1  0.53674400  0.84233900  0.02006500  1
  C  C67  1  0.15782400  0.53802300  0.02001800  1
  C  C68  1  0.46346200  0.15758100  0.02048000  1
  C  C69  1  0.15758100  0.46346300  0.97952100  1
  C  C70  1  0.46207700  0.84203300  0.98011800  1
  C  C71  1  0.84233900  0.53674400  0.97993600  1
  C  C72  1  0.53802300  0.15782400  0.97998300  1
  C  C73  1  0.36544500  0.00076600  0.50080700  1
  C  C74  1  0.00076600  0.36544600  0.49919400  1
  C  C75  1  0.63463800  0.99910000  0.49951400  1
  C  C76  1  0.99910000  0.63463800  0.50048700  1
  C  C77  1  0.86533000  0.49932800  0.99997900  1
  C  C78  1  0.49932800  0.86533000  0.00002200  1
  C  C79  1  0.13452400  0.50083700  0.99967800  1
  C  C80  1  0.50083600  0.13452400  0.00032300  1
  C  C81  1  0.27413600  0.00049000  0.50107700  1
  C  C82  1  0.00049000  0.27413700  0.49892400  1
  C  C83  1  0.72594400  0.99943000  0.49909400  1
  C  C84  1  0.99942900  0.72594500  0.50090700  1
  C  C85  1  0.77404500  0.49963600  0.99963100  1
  C  C86  1  0.49963600  0.77404500  0.00037000  1
  C  C87  1  0.22585400  0.50044500  0.00015500  1
  C  C88  1  0.50044500  0.22585400  0.99984600  1
  C  C89  1  0.20300000  0.01388700  0.44121500  1
  C  C90  1  0.98671300  0.20320600  0.43863500  1
  C  C91  1  0.79691600  0.98820000  0.43754100  1
  C  C92  1  0.01116500  0.79703800  0.43998500  1
  C  C93  1  0.79703700  0.01116500  0.56001600  1
  C  C94  1  0.01388700  0.20300000  0.55878600  1
  C  C95  1  0.20320600  0.98671300  0.56136600  1
  C  C96  1  0.98819900  0.79691600  0.56246000  1
  C  C97  1  0.70318200  0.51223000  0.93847500  1
  C  C98  1  0.48745500  0.70286800  0.93998600  1
  C  C99  1  0.29702300  0.48746500  0.94010000  1
  C  C100  1  0.51285100  0.29677300  0.93872100  1
  C  C101  1  0.29677300  0.51285100  0.06128000  1
  C  C102  1  0.51222900  0.70318200  0.06152600  1
  C  C103  1  0.70286800  0.48745600  0.06001500  1
  C  C104  1  0.48746500  0.29702300  0.05990100  1
  C  C105  1  0.15770800  0.01362400  0.44107900  1
  C  C106  1  0.98678800  0.15791400  0.43819900  1
  C  C107  1  0.84220700  0.98852100  0.43707700  1
  C  C108  1  0.01113400  0.84233000  0.43990800  1
  C  C109  1  0.84233000  0.01113500  0.56009300  1
  C  C110  1  0.01362400  0.15770800  0.55892200  1
  C  C111  1  0.15791300  0.98678800  0.56180200  1
  C  C112  1  0.98852100  0.84220700  0.56292400  1
  C  C113  1  0.65788900  0.51212900  0.93793000  1
  C  C114  1  0.48775700  0.65757700  0.93996000  1
  C  C115  1  0.34231700  0.48749500  0.94014900  1
  C  C116  1  0.51258800  0.34206300  0.93812900  1
  C  C117  1  0.34206200  0.51258800  0.06187200  1
  C  C118  1  0.51212900  0.65788900  0.06207100  1
  C  C119  1  0.65757700  0.48775800  0.06004100  1
  C  C120  1  0.48749500  0.34231700  0.05985200  1
  C  C121  1  0.13465900  0.00016400  0.50152000  1
  C  C122  1  0.00016300  0.13466000  0.49848100  1
  C  C123  1  0.86542300  0.99989600  0.49848900  1
  C  C124  1  0.99989500  0.86542300  0.50151200  1
  C  C125  1  0.63459700  0.49998700  0.99884800  1
  C  C126  1  0.49998700  0.63459700  0.00115300  1
  C  C127  1  0.36535800  0.50000000  0.00116400  1
  C  C128  1  0.50000000  0.36535900  0.99883700  1
  O  O1  1  0.43443400  0.03879000  0.50225700  1
  O  O2  1  0.96315300  0.43468600  0.50111300  1
  O  O3  1  0.56565300  0.96106000  0.49794900  1
  O  O4  1  0.03669100  0.56540000  0.49836700  1
  O  O5  1  0.56539900  0.03669100  0.50163400  1
  O  O6  1  0.03879000  0.43443400  0.49774400  1
  O  O7  1  0.43468500  0.96315300  0.49888800  1
  O  O8  1  0.96105900  0.56565300  0.50205200  1
  O  O9  1  0.93456400  0.53689800  0.00143100  1
  O  O10  1  0.46124100  0.93426300  0.00154200  1
  O  O11  1  0.06523200  0.46327000  0.99804500  1
  O  O12  1  0.53889300  0.06553100  0.99866400  1
  O  O13  1  0.06553100  0.53889300  0.00133700  1
  O  O14  1  0.53689800  0.93456400  0.99857000  1
  O  O15  1  0.93426300  0.46124100  0.99845900  1
  O  O16  1  0.46327000  0.06523200  0.00195600  1
  O  O17  1  0.49878700  0.03708200  0.39341600  1
  O  O18  1  0.96276600  0.50140300  0.39305400  1
  O  O19  1  0.50079600  0.96124000  0.39267100  1
  O  O20  1  0.03860400  0.49919100  0.39230700  1
  O  O21  1  0.49919100  0.03860400  0.60769400  1
  O  O22  1  0.03708200  0.49878700  0.60658500  1
  O  O23  1  0.50140300  0.96276600  0.60694700  1
  O  O24  1  0.96124000  0.50079600  0.60733000  1
  O  O25  1  0.00095600  0.53706000  0.89287400  1
  O  O26  1  0.46308900  0.99894200  0.89323900  1
  O  O27  1  0.99870800  0.46122100  0.89249200  1
  O  O28  1  0.53893200  0.00098500  0.89285500  1
  O  O29  1  0.00098500  0.53893200  0.10714600  1
  O  O30  1  0.53705900  0.00095600  0.10712700  1
  O  O31  1  0.99894200  0.46308900  0.10676200  1
  O  O32  1  0.46122100  0.99870800  0.10750900  1
  O  O33  1  0.99915200  0.93464800  0.43995500  1
  O  O34  1  0.06543900  0.00114000  0.43996200  1
  O  O35  1  0.99896700  0.06562200  0.43645700  1
  O  O36  1  0.93446500  0.00091600  0.43645100  1
  O  O37  1  0.00091600  0.93446500  0.56355000  1
  O  O38  1  0.93464800  0.99915300  0.56004600  1
  O  O39  1  0.00114000  0.06544000  0.56003900  1
  O  O40  1  0.06562200  0.99896700  0.56354400  1
  O  O41  1  0.50111900  0.43437700  0.93666300  1
  O  O42  1  0.56563400  0.49910000  0.93663200  1
  O  O43  1  0.50092400  0.56535400  0.93975100  1
  O  O44  1  0.43465700  0.49887800  0.93978300  1
  O  O45  1  0.49887800  0.43465700  0.06021800  1
  O  O46  1  0.43437700  0.50111900  0.06333800  1
  O  O47  1  0.49909900  0.56563400  0.06336900  1
  O  O48  1  0.56535400  0.50092400  0.06025000  1
  F  F1  1  0.36362300  0.92576500  0.53880800  1
  F  F2  1  0.07575500  0.36307900  0.53719200  1
  F  F3  1  0.63654400  0.07265000  0.54446200  1
  F  F4  1  0.92556200  0.63691700  0.54544200  1
  F  F5  1  0.63691700  0.92556200  0.45455900  1
  F  F6  1  0.92576500  0.36362300  0.46119300  1
  F  F7  1  0.36307900  0.07575500  0.46280900  1
  F  F8  1  0.07265000  0.63654400  0.45553900  1
  F  F9  1  0.86299000  0.42500600  0.04119600  1
  F  F10  1  0.57366900  0.86359800  0.04125500  1
  F  F11  1  0.13691900  0.57512100  0.04133900  1
  F  F12  1  0.42654300  0.13642900  0.04198000  1
  F  F13  1  0.13642900  0.42654400  0.95802100  1
  F  F14  1  0.42500600  0.86299000  0.95880500  1
  F  F15  1  0.86359700  0.57366900  0.95874600  1
  F  F16  1  0.57512100  0.13692000  0.95866300  1
  F  F17  1  0.22469700  0.02632700  0.38094000  1
  F  F18  1  0.97437300  0.22510400  0.37849900  1
  F  F19  1  0.77505300  0.97784600  0.37637600  1
  F  F20  1  0.02137100  0.77530600  0.37863000  1
  F  F21  1  0.77530600  0.02137200  0.62137100  1
  F  F22  1  0.02632700  0.22469700  0.61906100  1
  F  F23  1  0.22510400  0.97437300  0.62150200  1
  F  F24  1  0.97784600  0.77505400  0.62362500  1
  F  F25  1  0.72514600  0.52339400  0.87779200  1
  F  F26  1  0.47617900  0.72452400  0.87906200  1
  F  F27  1  0.27536600  0.47606800  0.87923800  1
  F  F28  1  0.52437500  0.27485800  0.87817000  1
  F  F29  1  0.27485800  0.52437500  0.12183200  1
  F  F30  1  0.52339400  0.72514700  0.12220900  1
  F  F31  1  0.72452300  0.47617900  0.12093900  1
  F  F32  1  0.47606800  0.27536600  0.12076400  1
  F  F33  1  0.13650600  0.02761500  0.38124900  1
  F  F34  1  0.97271800  0.13691900  0.37822400  1
  F  F35  1  0.86323700  0.97665800  0.37587100  1
  F  F36  1  0.02312100  0.86348000  0.37887700  1
  F  F37  1  0.86348000  0.02312200  0.62112400  1
  F  F38  1  0.02761500  0.13650600  0.61875200  1
  F  F39  1  0.13691800  0.97271900  0.62177700  1
  F  F40  1  0.97665800  0.86323700  0.62413000  1
  F  F41  1  0.63691100  0.52500200  0.87722400  1
  F  F42  1  0.47495900  0.63629100  0.87949900  1
  F  F43  1  0.36350200  0.47432400  0.87980800  1
  F  F44  1  0.52566500  0.36299200  0.87749500  1
  F  F45  1  0.36299200  0.52566400  0.12250600  1
  F  F46  1  0.52500200  0.63691100  0.12277700  1
  F  F47  1  0.63629100  0.47495900  0.12050200  1
  F  F48  1  0.47432300  0.36350200  0.12019300  1
