# generated using pymatgen
data_Zn2H28C45N2O9
_symmetry_space_group_name_H-M   'P 1'
_cell_length_a   12.59891400
_cell_length_b   13.72078400
_cell_length_c   17.49512400
_cell_angle_alpha   91.02509600
_cell_angle_beta   98.17810500
_cell_angle_gamma   93.36221700
_symmetry_Int_Tables_number   1
_chemical_formula_structural   Zn2H28C45N2O9
_chemical_formula_sum   'Zn2 H28 C45 N2 O9'
_cell_volume   2987.36768377
_cell_formula_units_Z   1
loop_
 _symmetry_equiv_pos_site_id
 _symmetry_equiv_pos_as_xyz
  1  'x, y, z'
loop_
 _atom_site_type_symbol
 _atom_site_label
 _atom_site_symmetry_multiplicity
 _atom_site_fract_x
 _atom_site_fract_y
 _atom_site_fract_z
 _atom_site_occupancy
  Zn  Zn1  1  0.61538400  0.48568800  0.51322900  1
  Zn  Zn2  1  0.37809100  0.52388900  0.48176300  1
  H  H1  1  0.64634600  0.47413600  0.76083000  1
  H  H2  1  0.32349200  0.56226700  0.71874000  1
  H  H3  1  0.38075200  0.51293600  0.98313200  1
  H  H4  1  0.68977600  0.55406700  0.14733100  1
  H  H5  1  0.63612200  0.46704100  0.89639800  1
  H  H6  1  0.67249600  0.54786800  0.28340900  1
  H  H7  1  0.62566200  0.51065200  0.01475700  1
  H  H8  1  0.36859600  0.43278300  0.08941700  1
  H  H9  1  0.31401800  0.55791500  0.85619300  1
  H  H10  1  0.26208600  0.23567000  0.53313800  1
  H  H11  1  0.27408300  0.90507900  0.57352300  1
  H  H12  1  0.22159100  0.06529000  0.55769300  1
  H  H13  1  0.56818100  0.17105300  0.48073400  1
  H  H14  1  0.72602200  0.76762500  0.45662900  1
  H  H15  1  0.66567600  0.06354300  0.45556500  1
  H  H16  1  0.77913700  0.93643500  0.43710000  1
  H  H17  1  0.39663500  0.78226200  0.56338600  1
  H  H18  1  0.73964000  0.36034700  0.61927900  1
  H  H19  1  0.10833200  0.34597600  0.63448300  1
  H  H20  1  0.92718800  0.32293400  0.65226600  1
  H  H21  1  0.81645800  0.55618900  0.45332100  1
  H  H22  1  0.26367900  0.64683500  0.37706000  1
  H  H23  1  0.93546000  0.62169500  0.39757400  1
  H  H24  1  0.07987200  0.69181700  0.33819500  1
  H  H25  1  0.24656400  0.42148900  0.57130300  1
  H  H26  1  0.26537000  0.38693400  0.17720900  1
  H  H27  1  0.27711400  0.46707900  0.25947100  1
  H  H28  1  0.33634400  0.27638100  0.24055300  1
  C  C1  1  0.54621600  0.69336300  0.49741300  1
  C  C2  1  0.50292400  0.49187500  0.34848500  1
  C  C3  1  0.44738300  0.31673800  0.49864900  1
  C  C4  1  0.49055700  0.51728300  0.64636500  1
  C  C5  1  0.50888200  0.48995900  0.26501300  1
  C  C6  1  0.42305300  0.45721200  0.20931000  1
  C  C7  1  0.43419800  0.46131300  0.13176700  1
  C  C8  1  0.52895200  0.49827000  0.10873800  1
  C  C9  1  0.61455200  0.52667300  0.16420900  1
  C  C10  1  0.60466900  0.52251600  0.24143800  1
  C  C11  1  0.56748200  0.49101500  0.85911100  1
  C  C12  1  0.57325700  0.49416600  0.78104800  1
  C  C13  1  0.39315800  0.54266500  0.75750800  1
  C  C14  1  0.38765800  0.54017500  0.83559500  1
  C  C15  1  0.47441700  0.51455500  0.88716400  1
  C  C16  1  0.54381400  0.50433200  0.02681700  1
  C  C17  1  0.46150500  0.50897500  0.96955800  1
  C  C18  1  0.48603400  0.51945800  0.72970600  1
  C  C19  1  0.29771300  0.08685600  0.53932200  1
  C  C20  1  0.41920800  0.21233300  0.50551500  1
  C  C21  1  0.67347400  0.82329300  0.46943600  1
  C  C22  1  0.70349400  0.91864700  0.45754200  1
  C  C23  1  0.63684000  0.99151500  0.46878200  1
  C  C24  1  0.53896400  0.97075100  0.49528600  1
  C  C25  1  0.51001500  0.87343800  0.50971100  1
  C  C26  1  0.46898400  0.04441900  0.50721400  1
  C  C27  1  0.37152600  0.01838600  0.53149500  1
  C  C28  1  0.34759600  0.92397500  0.55053000  1
  C  C29  1  0.41721500  0.85295300  0.54220000  1
  C  C30  1  0.49289100  0.14362500  0.49628300  1
  C  C31  1  0.32042700  0.18319300  0.52506500  1
  C  C32  1  0.57611400  0.79883400  0.49371300  1
  C  C33  1  0.90534600  0.37484800  0.60786500  1
  C  C34  1  0.19987900  0.61408800  0.40512800  1
  C  C35  1  0.09657800  0.63948400  0.38312000  1
  C  C36  1  0.01429900  0.59851800  0.41782500  1
  C  C37  1  0.03568000  0.53113700  0.47558700  1
  C  C38  1  0.14219600  0.50756900  0.49634700  1
  C  C39  1  0.95437200  0.48652100  0.51315900  1
  C  C40  1  0.98235500  0.42002400  0.57002700  1
  C  C41  1  0.08716800  0.39786200  0.58992900  1
  C  C42  1  0.16605800  0.44117700  0.55360300  1
  C  C43  1  0.84568300  0.50556600  0.49631700  1
  C  C44  1  0.80003100  0.39576000  0.58936500  1
  C  C45  1  0.31986500  0.41259500  0.22998900  1
  N  N1  1  0.77189400  0.46022000  0.53443900  1
  N  N2  1  0.22217100  0.54908400  0.46088800  1
  O  O1  1  0.62417100  0.63341300  0.50918800  1
  O  O2  1  0.44462400  0.66211600  0.48364900  1
  O  O3  1  0.59169600  0.48138700  0.39617200  1
  O  O4  1  0.41173100  0.50965400  0.37242300  1
  O  O5  1  0.54919300  0.34719200  0.50974700  1
  O  O6  1  0.36931300  0.37621000  0.48632800  1
  O  O7  1  0.58168100  0.49910600  0.62260700  1
  O  O8  1  0.40249800  0.53028300  0.59882200  1
  O  O9  1  0.34029000  0.33288100  0.27705800  1
