# generated using pymatgen
data_Zn3H30(C19O6)2
_symmetry_space_group_name_H-M   'P 1'
_cell_length_a   21.59735600
_cell_length_b   29.06480600
_cell_length_c   29.05525900
_cell_angle_alpha   90.00000000
_cell_angle_beta   90.00000000
_cell_angle_gamma   90.00000000
_symmetry_Int_Tables_number   1
_chemical_formula_structural   Zn3H30(C19O6)2
_chemical_formula_sum   'Zn12 H120 C152 O48'
_cell_volume   18238.65324851
_cell_formula_units_Z   4
loop_
 _symmetry_equiv_pos_site_id
 _symmetry_equiv_pos_as_xyz
  1  'x, y, z'
loop_
 _atom_site_type_symbol
 _atom_site_label
 _atom_site_symmetry_multiplicity
 _atom_site_fract_x
 _atom_site_fract_y
 _atom_site_fract_z
 _atom_site_occupancy
  Zn  Zn1  1  0.00226700  0.94488600  0.00178700  1
  Zn  Zn2  1  0.50226700  0.44488600  0.50178700  1
  Zn  Zn3  1  0.00094900  0.04908500  0.00096300  1
  Zn  Zn4  1  0.50094900  0.54908500  0.50096300  1
  Zn  Zn5  1  0.50229900  0.00328900  0.94933500  1
  Zn  Zn6  1  0.50042200  0.00428500  0.05372200  1
  Zn  Zn7  1  0.00229900  0.50328900  0.44933500  1
  Zn  Zn8  1  0.00042200  0.50428500  0.55372200  1
  Zn  Zn9  1  0.07034000  0.00431200  0.50242400  1
  Zn  Zn10  1  0.92999900  0.00307000  0.50032900  1
  Zn  Zn11  1  0.57034000  0.50431200  0.00242400  1
  Zn  Zn12  1  0.42999900  0.50307000  0.00032900  1
  H  H1  1  0.28548300  0.08074400  0.99580500  1
  H  H2  1  0.71576800  0.07728600  0.01644800  1
  H  H3  1  0.78548300  0.58074400  0.49580500  1
  H  H4  1  0.21576800  0.57728600  0.51644800  1
  H  H5  1  0.29044500  0.96560700  0.06947500  1
  H  H6  1  0.71096700  0.97302700  0.92915300  1
  H  H7  1  0.70749600  0.95002900  0.06331500  1
  H  H8  1  0.29757400  0.96126700  0.93297000  1
  H  H9  1  0.79044500  0.46560700  0.56947500  1
  H  H10  1  0.21096700  0.47302700  0.42915300  1
  H  H11  1  0.20749600  0.45002900  0.56331500  1
  H  H12  1  0.79757400  0.46126700  0.43297000  1
  H  H13  1  0.22989800  0.02958200  0.10771600  1
  H  H14  1  0.15413100  0.03301300  0.08307600  1
  H  H15  1  0.25600900  0.10640400  0.07021600  1
  H  H16  1  0.11462900  0.10784700  0.05545600  1
  H  H17  1  0.17227200  0.10721400  0.01020600  1
  H  H18  1  0.16676700  0.15578000  0.04814300  1
  H  H19  1  0.14770900  0.10116200  0.13816800  1
  H  H20  1  0.19658900  0.15078300  0.12838800  1
  H  H21  1  0.22941800  0.09879000  0.15179200  1
  H  H22  1  0.77138700  0.03982100  0.89843200  1
  H  H23  1  0.84686800  0.04340400  0.92337400  1
  H  H24  1  0.74045600  0.11110000  0.94443900  1
  H  H25  1  0.88193800  0.11691200  0.95753300  1
  H  H26  1  0.82625100  0.10812900  0.00323500  1
  H  H27  1  0.82623300  0.16105800  0.97134000  1
  H  H28  1  0.84710700  0.11697100  0.87513700  1
  H  H29  1  0.79574200  0.16359500  0.89084200  1
  H  H30  1  0.76523200  0.11337900  0.86235600  1
  H  H31  1  0.76088200  0.06053300  0.09865000  1
  H  H32  1  0.83977100  0.04884200  0.08349500  1
  H  H33  1  0.74914800  0.98297800  0.13283000  1
  H  H34  1  0.88473000  0.97344000  0.10305300  1
  H  H35  1  0.82124100  0.93519700  0.09011200  1
  H  H36  1  0.85053800  0.93874800  0.14770800  1
  H  H37  1  0.86443300  0.03455900  0.16653900  1
  H  H38  1  0.81569900  0.99646000  0.19989500  1
  H  H39  1  0.78500300  0.05014500  0.17883900  1
  H  H40  1  0.24216000  0.07327800  0.91129900  1
  H  H41  1  0.16326500  0.05987400  0.92482800  1
  H  H42  1  0.25433200  0.00112300  0.86767300  1
  H  H43  1  0.12100200  0.98528700  0.89958300  1
  H  H44  1  0.18603700  0.94641200  0.90338900  1
  H  H45  1  0.15169000  0.95842300  0.84856200  1
  H  H46  1  0.13625600  0.05342000  0.84125100  1
  H  H47  1  0.18686100  0.02145500  0.80329000  1
  H  H48  1  0.21458800  0.07303200  0.83088800  1
  H  H49  1  0.72989800  0.52958200  0.60771600  1
  H  H50  1  0.65413100  0.53301300  0.58307600  1
  H  H51  1  0.75600900  0.60640400  0.57021600  1
  H  H52  1  0.61462900  0.60784700  0.55545600  1
  H  H53  1  0.67227200  0.60721400  0.51020600  1
  H  H54  1  0.66676700  0.65578000  0.54814300  1
  H  H55  1  0.64770900  0.60116200  0.63816800  1
  H  H56  1  0.69658900  0.65078300  0.62838800  1
  H  H57  1  0.72941800  0.59879000  0.65179200  1
  H  H58  1  0.27138700  0.53982100  0.39843200  1
  H  H59  1  0.34686800  0.54340400  0.42337400  1
  H  H60  1  0.24045600  0.61110000  0.44443900  1
  H  H61  1  0.38193800  0.61691200  0.45753300  1
  H  H62  1  0.32625100  0.60812900  0.50323500  1
  H  H63  1  0.32623300  0.66105800  0.47134000  1
  H  H64  1  0.34710700  0.61697100  0.37513700  1
  H  H65  1  0.29574200  0.66359500  0.39084200  1
  H  H66  1  0.26523200  0.61337900  0.36235600  1
  H  H67  1  0.26088200  0.56053300  0.59865000  1
  H  H68  1  0.33977100  0.54884200  0.58349500  1
  H  H69  1  0.24914800  0.48297800  0.63283000  1
  H  H70  1  0.38473000  0.47344000  0.60305300  1
  H  H71  1  0.32124100  0.43519700  0.59011200  1
  H  H72  1  0.35053800  0.43874800  0.64770800  1
  H  H73  1  0.36443300  0.53455900  0.66653900  1
  H  H74  1  0.31569900  0.49646000  0.69989500  1
  H  H75  1  0.28500300  0.55014500  0.67883900  1
  H  H76  1  0.74216000  0.57327800  0.41129900  1
  H  H77  1  0.66326500  0.55987400  0.42482800  1
  H  H78  1  0.75433200  0.50112300  0.36767300  1
  H  H79  1  0.62100200  0.48528700  0.39958300  1
  H  H80  1  0.68603700  0.44641200  0.40338900  1
  H  H81  1  0.65169000  0.45842300  0.34856200  1
  H  H82  1  0.63625600  0.55342000  0.34125100  1
  H  H83  1  0.68686100  0.52145500  0.30329000  1
  H  H84  1  0.71458800  0.57303200  0.33088800  1
  H  H85  1  0.18011300  0.90152800  0.97497500  1
  H  H86  1  0.19680100  0.89898500  0.03556100  1
  H  H87  1  0.29040400  0.88267800  0.95665400  1
  H  H88  1  0.29834600  0.87502900  0.06191800  1
  H  H89  1  0.34898100  0.90606000  0.02283900  1
  H  H90  1  0.34988800  0.84455000  0.02371100  1
  H  H91  1  0.22446300  0.81510400  0.02105100  1
  H  H92  1  0.28137200  0.80118900  0.97747500  1
  H  H93  1  0.20716400  0.82391900  0.96073100  1
  H  H94  1  0.74587400  0.88527700  0.00714000  1
  H  H95  1  0.82690600  0.89692900  0.01103900  1
  H  H96  1  0.74846700  0.89867800  0.92199100  1
  H  H97  1  0.88956200  0.90141100  0.93670800  1
  H  H98  1  0.84246600  0.94941600  0.91757100  1
  H  H99  1  0.84974700  0.89908900  0.88231000  1
  H  H100  1  0.83937800  0.82745000  0.96023900  1
  H  H101  1  0.80300500  0.82617000  0.90415900  1
  H  H102  1  0.75625300  0.82139900  0.95534600  1
  H  H103  1  0.68011300  0.40152800  0.47497500  1
  H  H104  1  0.69680100  0.39898500  0.53556100  1
  H  H105  1  0.79040400  0.38267800  0.45665400  1
  H  H106  1  0.79834600  0.37502900  0.56191800  1
  H  H107  1  0.84898100  0.40606000  0.52283900  1
  H  H108  1  0.84988800  0.34455000  0.52371100  1
  H  H109  1  0.72446300  0.31510400  0.52105100  1
  H  H110  1  0.78137200  0.30118900  0.47747500  1
  H  H111  1  0.70716400  0.32391900  0.46073100  1
  H  H112  1  0.24587400  0.38527700  0.50714000  1
  H  H113  1  0.32690600  0.39692900  0.51103900  1
  H  H114  1  0.24846700  0.39867800  0.42199100  1
  H  H115  1  0.38956200  0.40141100  0.43670800  1
  H  H116  1  0.34246600  0.44941600  0.41757100  1
  H  H117  1  0.34974700  0.39908900  0.38231000  1
  H  H118  1  0.33937800  0.32745000  0.46023900  1
  H  H119  1  0.30300500  0.32617000  0.40415900  1
  H  H120  1  0.25625300  0.32139900  0.45534600  1
  C  C1  1  0.00690300  0.99704800  0.09125300  1
  C  C2  1  0.99618800  0.99704000  0.91151400  1
  C  C3  1  0.50690300  0.49704800  0.59125300  1
  C  C4  1  0.49618800  0.49704000  0.41151400  1
  C  C5  1  0.12280200  0.99679400  0.99778900  1
  C  C6  1  0.88041000  0.99706300  0.00457800  1
  C  C7  1  0.62280200  0.49679400  0.49778900  1
  C  C8  1  0.38041000  0.49706300  0.50457800  1
  C  C9  1  0.22923400  0.02213700  0.03451300  1
  C  C10  1  0.77275600  0.02466900  0.97043500  1
  C  C11  1  0.77085300  0.01317800  0.04285500  1
  C  C12  1  0.23209000  0.01973200  0.96119000  1
  C  C13  1  0.72923400  0.52213700  0.53451300  1
  C  C14  1  0.27275600  0.52466900  0.47043500  1
  C  C15  1  0.27085300  0.51317800  0.54285500  1
  C  C16  1  0.73209000  0.51973200  0.46119000  1
  C  C17  1  0.26946500  0.04457900  0.99799200  1
  C  C18  1  0.73250900  0.04188500  0.00963500  1
  C  C19  1  0.76946500  0.54457900  0.49799200  1
  C  C20  1  0.23250900  0.54188500  0.50963500  1
  C  C21  1  0.31186600  0.00333300  0.00014300  1
  C  C22  1  0.69094200  0.00069300  0.00265400  1
  C  C23  1  0.81186600  0.50333300  0.50014300  1
  C  C24  1  0.19094200  0.50069300  0.50265400  1
  C  C25  1  0.27278400  0.98123200  0.03724100  1
  C  C26  1  0.72981900  0.98386700  0.96292600  1
  C  C27  1  0.72792000  0.97234800  0.03636100  1
  C  C28  1  0.27603800  0.97898500  0.96270000  1
  C  C29  1  0.77278400  0.48123200  0.53724100  1
  C  C30  1  0.22981900  0.48386700  0.46292600  1
  C  C31  1  0.22792000  0.47234800  0.53636100  1
  C  C32  1  0.77603800  0.47898500  0.46270000  1
  C  C33  1  0.23593000  0.95732700  0.99986000  1
  C  C34  1  0.76829600  0.95603400  0.99658600  1
  C  C35  1  0.73593000  0.45732700  0.49986000  1
  C  C36  1  0.26829600  0.45603400  0.49658600  1
  C  C37  1  0.19196500  0.99789800  0.99784600  1
  C  C38  1  0.81124600  0.99661700  0.00374200  1
  C  C39  1  0.69196500  0.49789800  0.49784600  1
  C  C40  1  0.31124600  0.49661700  0.50374200  1
  C  C41  1  0.00781200  0.99780000  0.14059500  1
  C  C42  1  0.99484900  0.99677700  0.86217600  1
  C  C43  1  0.50781200  0.49780000  0.64059500  1
  C  C44  1  0.49484900  0.49677700  0.36217600  1
  C  C45  1  0.00764800  0.99878800  0.18203700  1
  C  C46  1  0.99455000  0.99718200  0.82072700  1
  C  C47  1  0.50764800  0.49878800  0.68203700  1
  C  C48  1  0.49455000  0.49718200  0.32072700  1
  C  C49  1  0.00678300  0.00017700  0.23059100  1
  C  C50  1  0.99481600  0.99817600  0.77216100  1
  C  C51  1  0.50678300  0.50017700  0.73059100  1
  C  C52  1  0.49481600  0.49817600  0.27216100  1
  C  C53  1  0.00574200  0.00139800  0.27203100  1
  C  C54  1  0.99537600  0.99928000  0.73071300  1
  C  C55  1  0.50574200  0.50139800  0.77203100  1
  C  C56  1  0.49537600  0.49928000  0.23071300  1
  C  C57  1  0.00431300  0.00272400  0.32058900  1
  C  C58  1  0.99634400  0.00069700  0.68215100  1
  C  C59  1  0.50431300  0.50272400  0.82058900  1
  C  C60  1  0.49634400  0.50069700  0.18215100  1
  C  C61  1  0.00300600  0.00362400  0.36203500  1
  C  C62  1  0.99740800  0.00184100  0.64070900  1
  C  C63  1  0.50300600  0.50362400  0.86203500  1
  C  C64  1  0.49740800  0.50184100  0.14070900  1
  C  C65  1  0.50304800  0.09367300  0.99984500  1
  C  C66  1  0.00304800  0.59367300  0.49984500  1
  C  C67  1  0.38044300  0.00510900  0.00122900  1
  C  C68  1  0.62231000  0.00242000  0.00184500  1
  C  C69  1  0.88044300  0.50510900  0.50122900  1
  C  C70  1  0.12231000  0.50242000  0.50184500  1
  C  C71  1  0.49954700  0.91384900  0.00321500  1
  C  C72  1  0.99954700  0.41384900  0.50321500  1
  C  C73  1  0.99745500  0.09361000  0.50209500  1
  C  C74  1  0.49745500  0.59361000  0.00209500  1
  C  C75  1  0.00142000  0.00426800  0.41138500  1
  C  C76  1  0.99894800  0.00295000  0.59136600  1
  C  C77  1  0.50142000  0.50426800  0.91138500  1
  C  C78  1  0.49894800  0.50295000  0.09136600  1
  C  C79  1  0.00287900  0.91379400  0.50066200  1
  C  C80  1  0.50287900  0.41379400  0.00066200  1
  C  C81  1  0.50358100  0.14300700  0.99960700  1
  C  C82  1  0.00358100  0.64300700  0.49960700  1
  C  C83  1  0.50384800  0.18445000  0.99954100  1
  C  C84  1  0.00384800  0.68445000  0.49954100  1
  C  C85  1  0.50396500  0.23300900  0.99959800  1
  C  C86  1  0.00396500  0.73300900  0.49959800  1
  C  C87  1  0.00391200  0.77445600  0.49974100  1
  C  C88  1  0.50391200  0.27445600  0.99974100  1
  C  C89  1  0.00368700  0.82301500  0.50000100  1
  C  C90  1  0.50368700  0.32301500  0.00000100  1
  C  C91  1  0.00337600  0.86445800  0.50028000  1
  C  C92  1  0.50337600  0.36445800  0.00028000  1
  C  C93  1  0.49841100  0.86450400  0.00342900  1
  C  C94  1  0.99841100  0.36450400  0.50342900  1
  C  C95  1  0.49758800  0.82305400  0.00345800  1
  C  C96  1  0.99758800  0.32305400  0.50345800  1
  C  C97  1  0.49692200  0.77447700  0.00334900  1
  C  C98  1  0.99692200  0.27447700  0.50334900  1
  C  C99  1  0.99666700  0.23301600  0.50315600  1
  C  C100  1  0.49666700  0.73301600  0.00315600  1
  C  C101  1  0.99670500  0.18443200  0.50283800  1
  C  C102  1  0.49670500  0.68443200  0.00283800  1
  C  C103  1  0.99695700  0.14297300  0.50251500  1
  C  C104  1  0.49695700  0.64297300  0.00251500  1
  C  C105  1  0.20305000  0.04347500  0.07833200  1
  C  C106  1  0.20824600  0.09576800  0.07915900  1
  C  C107  1  0.16254200  0.11782400  0.04607300  1
  C  C108  1  0.19451500  0.11267700  0.12749300  1
  C  C109  1  0.79735800  0.05148700  0.92918700  1
  C  C110  1  0.78864200  0.10329600  0.93396100  1
  C  C111  1  0.83366200  0.12340400  0.96877000  1
  C  C112  1  0.80000900  0.12572000  0.88757600  1
  C  C113  1  0.79355600  0.03299200  0.08832800  1
  C  C114  1  0.79593500  0.99748600  0.12696200  1
  C  C115  1  0.84093700  0.95884600  0.11608400  1
  C  C116  1  0.81667900  0.02120600  0.17085700  1
  C  C117  1  0.20949200  0.04470300  0.91828900  1
  C  C118  1  0.20725600  0.01397400  0.87573600  1
  C  C119  1  0.16374500  0.97350500  0.88243400  1
  C  C120  1  0.18471400  0.04231300  0.83520900  1
  C  C121  1  0.70305000  0.54347500  0.57833200  1
  C  C122  1  0.70824600  0.59576800  0.57915900  1
  C  C123  1  0.66254200  0.61782400  0.54607300  1
  C  C124  1  0.69451500  0.61267700  0.62749300  1
  C  C125  1  0.29735800  0.55148700  0.42918700  1
  C  C126  1  0.28864200  0.60329600  0.43396100  1
  C  C127  1  0.33366200  0.62340400  0.46877000  1
  C  C128  1  0.30000900  0.62572000  0.38757600  1
  C  C129  1  0.29355600  0.53299200  0.58832800  1
  C  C130  1  0.29593500  0.49748600  0.62696200  1
  C  C131  1  0.34093700  0.45884600  0.61608400  1
  C  C132  1  0.31667900  0.52120600  0.67085700  1
  C  C133  1  0.70949200  0.54470300  0.41828900  1
  C  C134  1  0.70725600  0.51397400  0.37573600  1
  C  C135  1  0.66374500  0.47350500  0.38243400  1
  C  C136  1  0.68471400  0.54231300  0.33520900  1
  C  C137  1  0.21653400  0.90692800  0.00123900  1
  C  C138  1  0.26963100  0.87392600  0.99039000  1
  C  C139  1  0.31962100  0.87515200  0.02719200  1
  C  C140  1  0.24397500  0.82542200  0.98729100  1
  C  C141  1  0.78430800  0.90515900  0.99153100  1
  C  C142  1  0.79082100  0.88977300  0.94151000  1
  C  C143  1  0.84671600  0.91147700  0.91832500  1
  C  C144  1  0.79790800  0.83785600  0.94028700  1
  C  C145  1  0.71653400  0.40692800  0.50123900  1
  C  C146  1  0.76963100  0.37392600  0.49039000  1
  C  C147  1  0.81962100  0.37515200  0.52719200  1
  C  C148  1  0.74397500  0.32542200  0.48729100  1
  C  C149  1  0.28430800  0.40515900  0.49153100  1
  C  C150  1  0.29082100  0.38977300  0.44151000  1
  C  C151  1  0.34671600  0.41147700  0.41832500  1
  C  C152  1  0.29790800  0.33785600  0.44028700  1
  O  O1  1  0.00726100  0.95705100  0.07034400  1
  O  O2  1  0.99998500  0.95754400  0.93322300  1
  O  O3  1  0.50726100  0.45705100  0.57034400  1
  O  O4  1  0.49998500  0.45754400  0.43322300  1
  O  O5  1  0.00355100  0.03646200  0.06949700  1
  O  O6  1  0.99553100  0.03696200  0.93244600  1
  O  O7  1  0.50355100  0.53646200  0.56949700  1
  O  O8  1  0.49553100  0.53696200  0.43244600  1
  O  O9  1  0.09467200  0.95690000  0.00008400  1
  O  O10  1  0.91013900  0.95774900  0.00534000  1
  O  O11  1  0.59467200  0.45690000  0.50008400  1
  O  O12  1  0.41013900  0.45774900  0.50534000  1
  O  O13  1  0.09304600  0.03614800  0.99719300  1
  O  O14  1  0.90858100  0.03699900  0.00308400  1
  O  O15  1  0.59304600  0.53614800  0.49719300  1
  O  O16  1  0.40858100  0.53699900  0.50308400  1
  O  O17  1  0.50498900  0.07209800  0.96022600  1
  O  O18  1  0.50035600  0.07257200  0.03971300  1
  O  O19  1  0.00498900  0.57209800  0.46022600  1
  O  O20  1  0.00035600  0.57257200  0.53971300  1
  O  O21  1  0.41006300  0.00543800  0.96182800  1
  O  O22  1  0.59268600  0.00218600  0.04126100  1
  O  O23  1  0.59458300  0.00323400  0.96172000  1
  O  O24  1  0.40812200  0.00393200  0.04137200  1
  O  O25  1  0.91006300  0.50543800  0.46182800  1
  O  O26  1  0.09268600  0.50218600  0.54126100  1
  O  O27  1  0.09458300  0.50323400  0.46172000  1
  O  O28  1  0.90812200  0.50393200  0.54137200  1
  O  O29  1  0.50203800  0.93496200  0.96333400  1
  O  O30  1  0.49795300  0.93542900  0.04285300  1
  O  O31  1  0.00203800  0.43496200  0.46333400  1
  O  O32  1  0.99795300  0.43542900  0.54285300  1
  O  O33  1  0.05113700  0.07253700  0.50377000  1
  O  O34  1  0.94426000  0.07195500  0.50000800  1
  O  O35  1  0.55113700  0.57253700  0.00377000  1
  O  O36  1  0.44426000  0.57195500  0.00000800  1
  O  O37  1  0.05423300  0.00353100  0.43369400  1
  O  O38  1  0.94612400  0.00375200  0.56906200  1
  O  O39  1  0.94725000  0.00480100  0.43178700  1
  O  O40  1  0.05310900  0.00249700  0.57096300  1
  O  O41  1  0.55423300  0.50353100  0.93369400  1
  O  O42  1  0.44612400  0.50375200  0.06906200  1
  O  O43  1  0.44725000  0.50480100  0.93178700  1
  O  O44  1  0.55310900  0.50249700  0.07096300  1
  O  O45  1  0.05609600  0.93542800  0.50275300  1
  O  O46  1  0.94917800  0.93484400  0.49897800  1
  O  O47  1  0.55609600  0.43542800  0.00275300  1
  O  O48  1  0.44917800  0.43484400  0.99897800  1
