# generated using pymatgen
data_Zn2H23C35(NO4)3
_symmetry_space_group_name_H-M   'P 1'
_cell_length_a   8.54657900
_cell_length_b   13.19674800
_cell_length_c   13.39287100
_cell_angle_alpha   90.59969200
_cell_angle_beta   90.52634800
_cell_angle_gamma   93.48490700
_symmetry_Int_Tables_number   1
_chemical_formula_structural   Zn2H23C35(NO4)3
_chemical_formula_sum   'Zn2 H23 C35 N3 O12'
_cell_volume   1507.59357788
_cell_formula_units_Z   1
loop_
 _symmetry_equiv_pos_site_id
 _symmetry_equiv_pos_as_xyz
  1  'x, y, z'
loop_
 _atom_site_type_symbol
 _atom_site_label
 _atom_site_symmetry_multiplicity
 _atom_site_fract_x
 _atom_site_fract_y
 _atom_site_fract_z
 _atom_site_occupancy
  Zn  Zn1  1  0.49073600  0.50859400  0.09610700  1
  Zn  Zn2  1  0.48640800  0.48918900  0.87385500  1
  H  H1  1  0.77039500  0.84408900  0.98255700  1
  H  H2  1  0.14762700  0.00044800  0.93917100  1
  H  H3  1  0.82241800  0.99912800  0.03087300  1
  H  H4  1  0.20585700  0.15373400  0.98811900  1
  H  H5  1  0.99088200  0.56970100  0.94378200  1
  H  H6  1  0.70386400  0.15703600  0.99002200  1
  H  H7  1  0.98664800  0.42999300  0.01796400  1
  H  H8  1  0.50949800  0.64140000  0.74797500  1
  H  H9  1  0.44459000  0.35887300  0.23059400  1
  H  H10  1  0.41989400  0.26079200  0.37853200  1
  H  H11  1  0.51392200  0.66192700  0.57349200  1
  H  H12  1  0.56536000  0.66735300  0.42453700  1
  H  H13  1  0.45020700  0.32393500  0.71817700  1
  H  H14  1  0.64004900  0.90162500  0.26172400  1
  H  H15  1  0.77498500  0.85026500  0.17279900  1
  H  H16  1  0.84354900  0.89866900  0.39419400  1
  H  H17  1  0.91174100  0.97411400  0.28926300  1
  H  H18  1  0.97793400  0.84753200  0.30576400  1
  H  H19  1  0.51137500  0.02072600  0.99901400  1
  H  H20  1  0.56101000  0.93342100  0.09576000  1
  H  H21  1  0.38094200  0.12566400  0.12512100  1
  H  H22  1  0.58238100  0.10920800  0.16088300  1
  H  H23  1  0.42490500  0.03591000  0.22102100  1
  C  C1  1  0.14556600  0.69830600  0.97083500  1
  C  C2  1  0.15859800  0.80228900  0.98417600  1
  C  C3  1  0.02441900  0.85694700  0.98269400  1
  C  C4  1  0.87740200  0.80487600  0.98160500  1
  C  C5  1  0.86672100  0.70030300  0.97207100  1
  C  C6  1  0.00032800  0.64975400  0.95853000  1
  C  C7  1  0.04257400  0.96850700  0.97383100  1
  C  C8  1  0.93132900  0.03001700  0.00016200  1
  C  C9  1  0.81859000  0.19594000  0.99273100  1
  C  C10  1  0.83166600  0.30022900  0.99842100  1
  C  C11  1  0.97698300  0.34939000  0.00695800  1
  C  C12  1  0.11047000  0.29788800  0.99711100  1
  C  C13  1  0.09915400  0.19309400  0.99023700  1
  C  C14  1  0.95196200  0.14136700  0.99256900  1
  C  C15  1  0.28027000  0.63540200  0.97634300  1
  C  C16  1  0.25949700  0.35860500  0.99265900  1
  C  C17  1  0.69566100  0.36174700  0.99344500  1
  C  C18  1  0.71821900  0.63895300  0.97692400  1
  C  C19  1  0.46670100  0.39790100  0.68459500  1
  C  C20  1  0.50070700  0.57398300  0.70143500  1
  C  C21  1  0.50457300  0.58528400  0.59996000  1
  C  C22  1  0.49028700  0.50085000  0.53788000  1
  C  C23  1  0.46699600  0.40655100  0.58131900  1
  C  C24  1  0.53161100  0.59796200  0.38542200  1
  C  C25  1  0.49493100  0.50799500  0.43421200  1
  C  C26  1  0.46627900  0.42182800  0.37712000  1
  C  C27  1  0.44066700  0.32913700  0.42309300  1
  C  C28  1  0.52985700  0.60219700  0.28269400  1
  C  C29  1  0.46497800  0.42786600  0.27398500  1
  C  C30  1  0.57969200  0.70041400  0.23925100  1
  C  C31  1  0.74013200  0.85288300  0.25223000  1
  C  C32  1  0.87752800  0.89619600  0.31452900  1
  C  C33  1  0.31385700  0.85392500  0.99950100  1
  C  C34  1  0.47444900  0.98719800  0.07119000  1
  C  C35  1  0.46494600  0.07004500  0.14965600  1
  N  N1  1  0.48461500  0.48168800  0.74300700  1
  N  N2  1  0.44310100  0.32289700  0.52344400  1
  N  N3  1  0.49291400  0.51740300  0.22715000  1
  O  O1  1  0.32567400  0.59290100  0.89368600  1
  O  O2  1  0.33467100  0.61262200  0.06475500  1
  O  O3  1  0.31318000  0.40244400  0.07576800  1
  O  O4  1  0.31502900  0.38240700  0.90398900  1
  O  O5  1  0.65072600  0.40431400  0.07654100  1
  O  O6  1  0.64188400  0.38467100  0.90466200  1
  O  O7  1  0.66410500  0.59511000  0.89442900  1
  O  O8  1  0.66278400  0.61470800  0.06521300  1
  O  O9  1  0.50633100  0.73582900  0.17094000  1
  O  O10  1  0.69810200  0.75671600  0.28366800  1
  O  O11  1  0.42893300  0.81954300  0.96179700  1
  O  O12  1  0.33066900  0.93666000  0.05932200  1
