# generated using pymatgen
data_ZnH11C18(NO2)2
_symmetry_space_group_name_H-M   'P 1'
_cell_length_a   14.53467100
_cell_length_b   11.01674800
_cell_length_c   9.83075000
_cell_angle_alpha   90.00455000
_cell_angle_beta   89.99661500
_cell_angle_gamma   89.99745900
_symmetry_Int_Tables_number   1
_chemical_formula_structural   ZnH11C18(NO2)2
_chemical_formula_sum   'Zn2 H22 C36 N4 O8'
_cell_volume   1574.14694374
_cell_formula_units_Z   2
loop_
 _symmetry_equiv_pos_site_id
 _symmetry_equiv_pos_as_xyz
  1  'x, y, z'
loop_
 _atom_site_type_symbol
 _atom_site_label
 _atom_site_symmetry_multiplicity
 _atom_site_fract_x
 _atom_site_fract_y
 _atom_site_fract_z
 _atom_site_occupancy
  Zn  Zn1  1  0.50836500  0.50563400  0.63255100  1
  Zn  Zn2  1  0.50855400  0.50190100  0.32309600  1
  H  H1  1  0.51619800  0.12062800  0.26217700  1
  H  H2  1  0.42195500  0.89201500  0.76206200  1
  H  H3  1  0.54980800  0.87774800  0.78834000  1
  H  H4  1  0.43530100  0.11220500  0.77765300  1
  H  H5  1  0.63785200  0.58574800  0.10437700  1
  H  H6  1  0.63749800  0.59090300  0.85449600  1
  H  H7  1  0.29514200  0.46277500  0.85411200  1
  H  H8  1  0.35295900  0.30948700  0.84861700  1
  H  H9  1  0.29593400  0.45703100  0.10170000  1
  H  H10  1  0.35354700  0.30342900  0.09721900  1
  H  H11  1  0.55591100  0.83202100  0.19420000  1
  H  H12  1  0.46623700  0.75475300  0.01003600  1
  H  H13  1  0.31342400  0.69932600  0.92612100  1
  H  H14  1  0.17501200  0.77782400  0.03963800  1
  H  H15  1  0.19016400  0.91311300  0.23694400  1
  H  H16  1  0.33958100  0.96975100  0.32231000  1
  H  H17  1  0.56320100  0.16921000  0.89148600  1
  H  H18  1  0.66222100  0.31668600  0.81494300  1
  H  H19  1  0.81034100  0.36268600  0.71047400  1
  H  H20  1  0.89337200  0.20620900  0.58088200  1
  H  H21  1  0.83007900  0.99977500  0.56550400  1
  H  H22  1  0.68562200  0.94981100  0.67800000  1
  C  C1  1  0.51227600  0.26609100  0.48119500  1
  C  C2  1  0.32867800  0.49950800  0.47734700  1
  C  C3  1  0.50495600  0.74197700  0.47373900  1
  C  C4  1  0.68826400  0.50842400  0.47808100  1
  C  C5  1  0.22994900  0.50039200  0.47719400  1
  C  C6  1  0.14705400  0.50224400  0.47693400  1
  C  C7  1  0.04992900  0.50504900  0.47663400  1
  C  C8  1  0.96704000  0.50735500  0.47653800  1
  C  C9  1  0.86990400  0.50931300  0.47676000  1
  C  C10  1  0.78699000  0.50970300  0.47738700  1
  C  C11  1  0.51238400  0.06222400  0.59531700  1
  C  C12  1  0.51487000  0.13290700  0.48011600  1
  C  C13  1  0.51524400  0.07129600  0.35712000  1
  C  C14  1  0.51106400  0.94521300  0.35047000  1
  C  C15  1  0.50713400  0.87601000  0.47030800  1
  C  C16  1  0.50609500  0.94142800  0.58940100  1
  C  C17  1  0.49201400  0.92552300  0.73791500  1
  C  C18  1  0.49956100  0.06638400  0.74523700  1
  C  C19  1  0.43957000  0.45632100  0.04376700  1
  C  C20  1  0.58000800  0.54794300  0.04990400  1
  C  C21  1  0.57956000  0.55165300  0.90748100  1
  C  C22  1  0.43913600  0.45984400  0.91019500  1
  C  C23  1  0.34811900  0.40064600  0.89579700  1
  C  C24  1  0.34853700  0.39678800  0.05568800  1
  C  C25  1  0.41547200  0.86285200  0.17414600  1
  C  C26  1  0.40600000  0.78822000  0.06209800  1
  C  C27  1  0.31999800  0.75757400  0.01405000  1
  C  C28  1  0.24247700  0.80174200  0.07737700  1
  C  C29  1  0.25107100  0.87751100  0.18803800  1
  C  C30  1  0.33696000  0.90880200  0.23642300  1
  C  C31  1  0.65991500  0.13203500  0.74649500  1
  C  C32  1  0.69726400  0.24697900  0.75757600  1
  C  C33  1  0.78085900  0.27337100  0.69845300  1
  C  C34  1  0.82773800  0.18540200  0.62705400  1
  C  C35  1  0.79209200  0.06987900  0.61810500  1
  C  C36  1  0.70942100  0.04250900  0.67973200  1
  N  N1  1  0.50857200  0.49945500  0.11960100  1
  N  N2  1  0.50757000  0.50697900  0.83605900  1
  N  N3  1  0.50522900  0.89315700  0.21953300  1
  N  N4  1  0.57976000  0.10317700  0.82165700  1
  O  O1  1  0.51095700  0.32417000  0.59796500  1
  O  O2  1  0.51122000  0.32163400  0.36300800  1
  O  O3  1  0.37135600  0.50165700  0.59488400  1
  O  O4  1  0.37142800  0.49898900  0.35986700  1
  O  O5  1  0.50581400  0.68624100  0.59230500  1
  O  O6  1  0.50582100  0.68285500  0.35835200  1
  O  O7  1  0.64549800  0.50832800  0.59552000  1
  O  O8  1  0.64550800  0.50595000  0.36090900  1
