# generated using pymatgen
data_Zn2H18C39BrN3O8
_symmetry_space_group_name_H-M   'P 1'
_cell_length_a   8.50974800
_cell_length_b   13.06482300
_cell_length_c   13.40662500
_cell_angle_alpha   90.61121900
_cell_angle_beta   93.27453100
_cell_angle_gamma   86.48573300
_symmetry_Int_Tables_number   1
_chemical_formula_structural   Zn2H18C39BrN3O8
_chemical_formula_sum   'Zn2 H18 C39 Br1 N3 O8'
_cell_volume   1485.25622283
_cell_formula_units_Z   1
loop_
 _symmetry_equiv_pos_site_id
 _symmetry_equiv_pos_as_xyz
  1  'x, y, z'
loop_
 _atom_site_type_symbol
 _atom_site_label
 _atom_site_symmetry_multiplicity
 _atom_site_fract_x
 _atom_site_fract_y
 _atom_site_fract_z
 _atom_site_occupancy
  Zn  Zn1  1  0.49198300  0.50127900  0.89031800  1
  Zn  Zn2  1  0.50873000  0.50222800  0.11329600  1
  H  H1  1  0.01764200  0.57340700  0.01359800  1
  H  H2  1  0.70617800  0.83305200  0.00179400  1
  H  H3  1  0.68293300  0.98467400  0.03444700  1
  H  H4  1  0.65148200  0.16444200  0.02575800  1
  H  H5  1  0.98095200  0.42627900  0.96738000  1
  H  H6  1  0.29593800  0.17321000  0.02541400  1
  H  H7  1  0.32282500  0.01978100  0.00476600  1
  H  H8  1  0.35217300  0.84012600  0.00112200  1
  H  H9  1  0.52237700  0.34271900  0.24556400  1
  H  H10  1  0.48266000  0.65900000  0.74864100  1
  H  H11  1  0.48683800  0.74947000  0.59403200  1
  H  H12  1  0.51575700  0.33075100  0.42179400  1
  H  H13  1  0.49731600  0.33044500  0.57296100  1
  H  H14  1  0.50827100  0.66429200  0.26086700  1
  H  H15  1  0.74333300  0.28714000  0.75346800  1
  H  H16  1  0.75308600  0.10844500  0.80950000  1
  H  H17  1  0.25182300  0.12276500  0.80854700  1
  H  H18  1  0.24231100  0.30147400  0.75216300  1
  C  C1  1  0.12749600  0.71102700  0.00233900  1
  C  C2  1  0.99917800  0.65446300  0.00759800  1
  C  C3  1  0.85017100  0.69931200  0.00544300  1
  C  C4  1  0.82698700  0.80401200  0.00568300  1
  C  C5  1  0.95573700  0.86534500  0.01000900  1
  C  C6  1  0.10659400  0.81746100  0.00568900  1
  C  C7  1  0.93642300  0.97290100  0.01620600  1
  C  C8  1  0.06756200  0.03139100  0.01416600  1
  C  C9  1  0.21605300  0.98099300  0.00839600  1
  C  C10  1  0.23483600  0.87592300  0.00523200  1
  C  C11  1  0.78857100  0.02339800  0.02519000  1
  C  C12  1  0.76887000  0.12849500  0.02250200  1
  C  C13  1  0.89590400  0.18669500  0.01364600  1
  C  C14  1  0.04722300  0.13899300  0.01418800  1
  C  C15  1  0.87347400  0.29238400  0.00215900  1
  C  C16  1  0.00059400  0.34723500  0.98587000  1
  C  C17  1  0.15039400  0.30414800  0.99874500  1
  C  C18  1  0.17496500  0.20085600  0.01438500  1
  C  C19  1  0.28213100  0.37009200  0.99985200  1
  C  C20  1  0.27945900  0.65094000  0.00014800  1
  C  C21  1  0.71778000  0.63390100  0.00388400  1
  C  C22  1  0.72176300  0.35280300  0.00375800  1
  C  C23  1  0.51117700  0.59124600  0.29825500  1
  C  C24  1  0.51897500  0.41249100  0.28962400  1
  C  C25  1  0.51387900  0.40661000  0.39163800  1
  C  C26  1  0.50532800  0.49551600  0.44928900  1
  C  C27  1  0.50550500  0.58848100  0.40114800  1
  C  C28  1  0.49356600  0.40541800  0.60650300  1
  C  C29  1  0.49633900  0.49473100  0.55284600  1
  C  C30  1  0.49020900  0.58628200  0.60494700  1
  C  C31  1  0.49163000  0.67728500  0.55382700  1
  C  C32  1  0.48749500  0.40810100  0.70848500  1
  C  C33  1  0.48433200  0.58694700  0.70821600  1
  C  C34  1  0.49292700  0.30859700  0.75767200  1
  C  C35  1  0.63551800  0.25242800  0.76944400  1
  C  C36  1  0.64098900  0.15179700  0.79992400  1
  C  C37  1  0.50330000  0.10549400  0.81513400  1
  C  C38  1  0.36014500  0.15987600  0.79944900  1
  C  C39  1  0.35491300  0.26063400  0.76899900  1
  Br  Br1  1  0.51095900  0.96460000  0.85163500  1
  N  N1  1  0.51669500  0.50367700  0.24426900  1
  N  N2  1  0.49862300  0.67689200  0.45374100  1
  N  N3  1  0.48404100  0.49842400  0.75914000  1
  O  O1  1  0.33828800  0.40348400  0.08630700  1
  O  O2  1  0.32999000  0.39957700  0.91441500  1
  O  O3  1  0.32228100  0.61236900  0.91360500  1
  O  O4  1  0.34153400  0.61614400  0.08619800  1
  O  O5  1  0.66215300  0.60033200  0.91699900  1
  O  O6  1  0.67037100  0.60441300  0.08979500  1
  O  O7  1  0.67855600  0.39137300  0.08975200  1
  O  O8  1  0.65963200  0.38783900  0.91812100  1
