# generated using pymatgen
data_CuH12(C5O2)2
_symmetry_space_group_name_H-M   'P 1'
_cell_length_a   14.24342100
_cell_length_b   21.13670900
_cell_length_c   21.15745400
_cell_angle_alpha   89.98396500
_cell_angle_beta   90.00217900
_cell_angle_gamma   89.96419300
_symmetry_Int_Tables_number   1
_chemical_formula_structural   CuH12(C5O2)2
_chemical_formula_sum   'Cu8 H96 C80 O32'
_cell_volume   6369.64139455
_cell_formula_units_Z   8
loop_
 _symmetry_equiv_pos_site_id
 _symmetry_equiv_pos_as_xyz
  1  'x, y, z'
loop_
 _atom_site_type_symbol
 _atom_site_label
 _atom_site_symmetry_multiplicity
 _atom_site_fract_x
 _atom_site_fract_y
 _atom_site_fract_z
 _atom_site_occupancy
  Cu  Cu1  1  0.96550400  0.49372900  0.54585200  1
  Cu  Cu2  1  0.05989000  0.49481800  0.44680300  1
  Cu  Cu3  1  0.46244000  0.85083500  0.45509700  1
  Cu  Cu4  1  0.56054400  0.84994800  0.55283200  1
  Cu  Cu5  1  0.28283300  0.22332800  0.82211900  1
  Cu  Cu6  1  0.18871500  0.12352400  0.82144000  1
  Cu  Cu7  1  0.68864200  0.22292500  0.17843200  1
  Cu  Cu8  1  0.78494400  0.12420100  0.17656700  1
  H  H1  1  0.75408100  0.60362400  0.35568500  1
  H  H2  1  0.85479800  0.65417700  0.34418800  1
  H  H3  1  0.76662500  0.74503900  0.35645900  1
  H  H4  1  0.66549800  0.69462700  0.34604300  1
  H  H5  1  0.71278800  0.56406100  0.46647300  1
  H  H6  1  0.60656400  0.63723900  0.43787600  1
  H  H7  1  0.90202400  0.67899200  0.51458500  1
  H  H8  1  0.91724000  0.71034400  0.43575500  1
  H  H9  1  0.81198800  0.78319000  0.46700300  1
  H  H10  1  0.77283400  0.73466300  0.53281900  1
  H  H11  1  0.75443500  0.61175200  0.53221200  1
  H  H12  1  0.62465300  0.66755200  0.51681400  1
  H  H13  1  0.27126300  0.61240400  0.46592100  1
  H  H14  1  0.31286100  0.56229600  0.52985700  1
  H  H15  1  0.41854500  0.63442200  0.56165300  1
  H  H16  1  0.40061400  0.66817100  0.48408400  1
  H  H17  1  0.12330200  0.67896800  0.48588500  1
  H  H18  1  0.25205500  0.73529900  0.47051000  1
  H  H19  1  0.16927300  0.64678900  0.65512600  1
  H  H20  1  0.27037100  0.59694900  0.64189200  1
  H  H21  1  0.35839500  0.68753700  0.65583800  1
  H  H22  1  0.25705500  0.73822000  0.64726400  1
  H  H23  1  0.10735100  0.70677700  0.56596700  1
  H  H24  1  0.21220700  0.78106500  0.53816000  1
  H  H25  1  0.23146200  0.39906600  0.62552600  1
  H  H26  1  0.26678600  0.33088800  0.57949600  1
  H  H27  1  0.28235000  0.28622000  0.67621000  1
  H  H28  1  0.20572300  0.34459700  0.71183700  1
  H  H29  1  0.06064700  0.39131500  0.67138500  1
  H  H30  1  0.02962900  0.30784100  0.72849600  1
  H  H31  1  0.03344100  0.27279700  0.54235800  1
  H  H32  1  0.15339800  0.27488500  0.51426600  1
  H  H33  1  0.20479100  0.21057400  0.59659600  1
  H  H34  1  0.08234800  0.19008300  0.60537600  1
  H  H35  1  0.97310200  0.35854800  0.61809200  1
  H  H36  1  0.98326300  0.26234100  0.66323600  1
  H  H37  1  0.76614600  0.39481200  0.38658900  1
  H  H38  1  0.75807600  0.32619500  0.43765900  1
  H  H39  1  0.71183700  0.27550800  0.34816000  1
  H  H40  1  0.75684000  0.33855800  0.29924800  1
  H  H41  1  0.91316600  0.40024500  0.31575000  1
  H  H42  1  0.92603900  0.32063900  0.25010700  1
  H  H43  1  0.00584400  0.28090000  0.42974600  1
  H  H44  1  0.89931300  0.27396900  0.47615800  1
  H  H45  1  0.83152700  0.20669400  0.40492600  1
  H  H46  1  0.94808400  0.19666400  0.37233500  1
  H  H47  1  0.02252600  0.36746300  0.34749300  1
  H  H48  1  0.00458400  0.27636200  0.30009200  1
  H  H49  1  0.42116000  0.02434200  0.75054800  1
  H  H50  1  0.50320900  0.06797100  0.70284800  1
  H  H51  1  0.52126400  0.97796800  0.65515800  1
  H  H52  1  0.41013300  0.94536800  0.68436300  1
  H  H53  1  0.25281000  0.01058200  0.69806900  1
  H  H54  1  0.26534500  0.95337300  0.61155600  1
  H  H55  1  0.33868400  0.14177000  0.59463800  1
  H  H56  1  0.45408300  0.14821000  0.62957900  1
  H  H57  1  0.51026200  0.06346200  0.57235700  1
  H  H58  1  0.40658000  0.07232700  0.52393500  1
  H  H59  1  0.21339900  0.07420300  0.64774500  1
  H  H60  1  0.26142900  0.02169700  0.55984500  1
  H  H61  1  0.50342200  0.05993000  0.28876500  1
  H  H62  1  0.49931800  0.11014000  0.35815900  1
  H  H63  1  0.46776500  0.01812000  0.40931300  1
  H  H64  1  0.51136300  0.97195900  0.34388000  1
  H  H65  1  0.65585300  0.99396200  0.27640100  1
  H  H66  1  0.68986300  0.93095300  0.35522300  1
  H  H67  1  0.75168200  0.11244400  0.38888300  1
  H  H68  1  0.64403300  0.15612400  0.40126500  1
  H  H69  1  0.58726500  0.08158600  0.47197000  1
  H  H70  1  0.70770500  0.05484600  0.47705000  1
  H  H71  1  0.76567200  0.03160300  0.30137300  1
  H  H72  1  0.76480500  0.98686500  0.39465600  1
  H  H73  1  0.97526800  0.14042600  0.93717100  1
  H  H74  1  0.93327800  0.20532700  0.88846100  1
  H  H75  1  0.82735000  0.23538600  0.96139200  1
  H  H76  1  0.84568600  0.15696800  0.99319800  1
  H  H77  1  0.12337500  0.15951400  0.00386000  1
  H  H78  1  0.99468000  0.14209600  0.05964200  1
  H  H79  1  0.07568500  0.32937900  0.97567400  1
  H  H80  1  0.97450400  0.31690300  0.92579600  1
  H  H81  1  0.88681300  0.32844100  0.01684300  1
  H  H82  1  0.98841100  0.31886600  0.06703000  1
  H  H83  1  0.13833000  0.23905600  0.03356700  1
  H  H84  1  0.03395500  0.20873000  0.10711800  1
  H  H85  1  0.63979600  0.11232500  0.96481900  1
  H  H86  1  0.62210200  0.19072200  0.99679900  1
  H  H87  1  0.49251700  0.20770000  0.94148100  1
  H  H88  1  0.53391400  0.14285400  0.89236800  1
  H  H89  1  0.58044500  0.01938100  0.02020400  1
  H  H90  1  0.49213600  0.03120000  0.92948900  1
  H  H91  1  0.43454000  0.13886400  0.11130300  1
  H  H92  1  0.47404700  0.20568500  0.06432600  1
  H  H93  1  0.34478500  0.18900600  0.00813500  1
  H  H94  1  0.32906300  0.10949400  0.03777500  1
  H  H95  1  0.47924700  0.02896400  0.07072700  1
  H  H96  1  0.39125700  0.01883700  0.97968800  1
  C  C1  1  0.12980700  0.57477700  0.54417700  1
  C  C2  1  0.10235400  0.40397900  0.54660600  1
  C  C3  1  0.92415100  0.40430900  0.44345700  1
  C  C4  1  0.89531200  0.57712500  0.45201400  1
  C  C5  1  0.39506000  0.76799900  0.54976600  1
  C  C6  1  0.62878700  0.77006000  0.45548500  1
  C  C7  1  0.59832800  0.94200400  0.45282500  1
  C  C8  1  0.42546400  0.94158200  0.55730000  1
  C  C9  1  0.35167200  0.12835700  0.90501200  1
  C  C10  1  0.11617400  0.22009300  0.90138100  1
  C  C11  1  0.14881200  0.22337100  0.73015000  1
  C  C12  1  0.32866100  0.12167800  0.73278700  1
  C  C13  1  0.65356500  0.12189900  0.26958200  1
  C  C14  1  0.61777900  0.12700500  0.09755000  1
  C  C15  1  0.85132300  0.22020800  0.09457000  1
  C  C16  1  0.82912800  0.22523500  0.26654600  1
  C  C17  1  0.79317800  0.64474900  0.37480300  1
  C  C18  1  0.72825100  0.70366100  0.37571900  1
  C  C19  1  0.73827300  0.61155800  0.48084500  1
  C  C20  1  0.86600500  0.68956100  0.46931900  1
  C  C21  1  0.82523700  0.63005100  0.44214800  1
  C  C22  1  0.69874600  0.71746600  0.44376200  1
  C  C23  1  0.65901100  0.65759800  0.47083900  1
  C  C24  1  0.78711700  0.73549000  0.48120800  1
  C  C25  1  0.28722000  0.61028500  0.51726900  1
  C  C26  1  0.36609800  0.65608900  0.52949200  1
  C  C27  1  0.15893200  0.68758600  0.53168900  1
  C  C28  1  0.23123700  0.63882100  0.62440200  1
  C  C29  1  0.19990300  0.62705100  0.55633100  1
  C  C30  1  0.32576200  0.71462000  0.55911300  1
  C  C31  1  0.23755900  0.73405900  0.52209200  1
  C  C32  1  0.29582600  0.69779800  0.62636400  1
  C  C33  1  0.21411400  0.34940000  0.61339300  1
  C  C34  1  0.21345200  0.31035300  0.67235300  1
  C  C35  1  0.04420800  0.35183800  0.63848400  1
  C  C36  1  0.10745700  0.27986000  0.55629100  1
  C  C37  1  0.11792600  0.34560100  0.58555600  1
  C  C38  1  0.13351500  0.26124600  0.67133000  1
  C  C39  1  0.04114200  0.29387300  0.67859000  1
  C  C40  1  0.13377900  0.22943400  0.60661500  1
  C  C41  1  0.79292900  0.34631600  0.39531800  1
  C  C42  1  0.77391200  0.30561000  0.33841900  1
  C  C43  1  0.94589500  0.35979400  0.34115900  1
  C  C44  1  0.92809400  0.28271400  0.42827600  1
  C  C45  1  0.89705900  0.34781000  0.40470600  1
  C  C46  1  0.85892000  0.26364400  0.32226500  1
  C  C47  1  0.93821800  0.30381400  0.29902000  1
  C  C48  1  0.89154700  0.23126100  0.38261200  1
  C  C49  1  0.43598300  0.04153700  0.70211800  1
  C  C50  1  0.44438200  0.98578800  0.65988200  1
  C  C51  1  0.27352200  0.04286700  0.65917500  1
  C  C52  1  0.39620200  0.11518400  0.61779900  1
  C  C53  1  0.35930000  0.08317800  0.67729900  1
  C  C54  1  0.39826600  0.99841200  0.59556600  1
  C  C55  1  0.29385800  0.00142400  0.60299500  1
  C  C56  1  0.43244500  0.06307200  0.57250800  1
  C  C57  1  0.53543900  0.06952100  0.33556500  1
  C  C58  1  0.52754400  0.01162400  0.37641600  1
  C  C59  1  0.69126500  0.02195200  0.31398700  1
  C  C60  1  0.67421600  0.10877800  0.39134700  1
  C  C61  1  0.63770600  0.08342400  0.32817400  1
  C  C62  1  0.61829500  0.99976500  0.41430200  1
  C  C63  1  0.69611700  0.98081800  0.37071700  1
  C  C64  1  0.64714600  0.06202700  0.44488600  1
  C  C65  1  0.95891500  0.19180700  0.93614400  1
  C  C66  1  0.87996400  0.20276600  0.98220900  1
  C  C67  1  0.08717400  0.20495000  0.01358400  1
  C  C68  1  0.01397700  0.29858100  0.96712200  1
  C  C69  1  0.04585800  0.23085800  0.95374400  1
  C  C70  1  0.92025000  0.23105100  0.04135000  1
  C  C71  1  0.00872000  0.19379600  0.05976500  1
  C  C72  1  0.94963200  0.29886800  0.02620800  1
  C  C73  1  0.58750800  0.14502500  0.98585900  1
  C  C74  1  0.50842400  0.15625600  0.94011900  1
  C  C75  1  0.51779200  0.04902500  0.02982800  1
  C  C76  1  0.45940600  0.15407500  0.06395200  1
  C  C77  1  0.54750700  0.11675900  0.04504400  1
  C  C78  1  0.42134300  0.11731100  0.95777300  1
  C  C79  1  0.45303800  0.04952500  0.97096500  1
  C  C80  1  0.38053000  0.14338000  0.01776800  1
  O  O1  1  0.04361900  0.57086500  0.56779600  1
  O  O2  1  0.15076500  0.53910500  0.49604900  1
  O  O3  1  0.06650200  0.44931100  0.57962100  1
  O  O4  1  0.10355100  0.41060400  0.48435700  1
  O  O5  1  0.91872400  0.41171800  0.50560900  1
  O  O6  1  0.96390800  0.44830000  0.41054200  1
  O  O7  1  0.87492700  0.54066000  0.49957900  1
  O  O8  1  0.98081000  0.57275100  0.42710000  1
  O  O9  1  0.37322400  0.80487300  0.50292200  1
  O  O10  1  0.48133500  0.77216500  0.57345300  1
  O  O11  1  0.54209000  0.77402200  0.43252400  1
  O  O12  1  0.65058100  0.80590500  0.50320800  1
  O  O13  1  0.55753200  0.89870700  0.41961100  1
  O  O14  1  0.60566900  0.93337300  0.51467500  1
  O  O15  1  0.41523700  0.93247700  0.49564800  1
  O  O16  1  0.46783700  0.89856100  0.59011700  1
  O  O17  1  0.37207100  0.17690300  0.86986200  1
  O  O18  1  0.26678500  0.10285000  0.89937200  1
  O  O19  1  0.20197200  0.24440200  0.89816400  1
  O  O20  1  0.09648400  0.17199800  0.86533900  1
  O  O21  1  0.18455000  0.25704400  0.77505000  1
  O  O22  1  0.14594600  0.16123100  0.73758700  1
  O  O23  1  0.33375200  0.18376100  0.74107600  1
  O  O24  1  0.28470200  0.08801000  0.77440900  1
  O  O25  1  0.64707600  0.18397000  0.26213000  1
  O  O26  1  0.68869400  0.08904700  0.22386900  1
  O  O27  1  0.59704200  0.17413600  0.13455700  1
  O  O28  1  0.70424300  0.10358600  0.10019100  1
  O  O29  1  0.76549000  0.24438800  0.10004200  1
  O  O30  1  0.87332200  0.17228100  0.13007900  1
  O  O31  1  0.78508600  0.25882400  0.22488300  1
  O  O32  1  0.83468400  0.16316500  0.25816900  1
