# generated using pymatgen
data_V2H24(C7O2)5
_symmetry_space_group_name_H-M   'P 1'
_cell_length_a   6.69797700
_cell_length_b   19.93295200
_cell_length_c   23.47996200
_cell_angle_alpha   91.23390800
_cell_angle_beta   90.71252700
_cell_angle_gamma   89.15265200
_symmetry_Int_Tables_number   1
_chemical_formula_structural   V2H24(C7O2)5
_chemical_formula_sum   'V4 H48 C70 O20'
_cell_volume   3133.52051485
_cell_formula_units_Z   2
loop_
 _symmetry_equiv_pos_site_id
 _symmetry_equiv_pos_as_xyz
  1  'x, y, z'
loop_
 _atom_site_type_symbol
 _atom_site_label
 _atom_site_symmetry_multiplicity
 _atom_site_fract_x
 _atom_site_fract_y
 _atom_site_fract_z
 _atom_site_occupancy
  V  V1  1  0.19089100  0.49444100  0.49649200  1
  V  V2  1  0.69133700  0.49859200  0.51090100  1
  V  V3  1  0.57137500  0.00242700  0.01141900  1
  V  V4  1  0.07042400  0.99705500  0.99931100  1
  H  H1  1  0.44651300  0.66638300  0.80160700  1
  H  H2  1  0.76166000  0.64042800  0.64475000  1
  H  H3  1  0.24066800  0.69970400  0.54359700  1
  H  H4  1  0.24114500  0.85524400  0.69296200  1
  H  H5  1  0.40596100  0.71777400  0.89049900  1
  H  H6  1  0.49313800  0.80548800  0.96088200  1
  H  H7  1  0.94439500  0.87530900  0.85419200  1
  H  H8  1  0.60686900  0.65568300  0.71161500  1
  H  H9  1  0.07160400  0.86893500  0.78164700  1
  H  H10  1  0.30426700  0.79577000  0.60814500  1
  H  H11  1  0.73353400  0.35303100  0.75518200  1
  H  H12  1  0.74286000  0.28690500  0.83303100  1
  H  H13  1  0.18087000  0.18557100  0.78772900  1
  H  H14  1  0.09431300  0.24464700  0.84195900  1
  H  H15  1  0.09049300  0.33190200  0.78091000  1
  H  H16  1  0.24365600  0.27782100  0.73570800  1
  H  H17  1  0.68446800  0.15216700  0.72413100  1
  H  H18  1  0.93445900  0.11728100  0.73192000  1
  H  H19  1  0.81192600  0.21063200  0.65088000  1
  H  H20  1  0.55868200  0.23679000  0.79508900  1
  H  H21  1  0.60978100  0.28967900  0.71168600  1
  H  H22  1  0.06731500  0.19427900  0.67342200  1
  H  H23  1  0.60894100  0.73084600  0.16026300  1
  H  H24  1  0.59146600  0.64722000  0.22460000  1
  H  H25  1  0.10661500  0.70205300  0.28421300  1
  H  H26  1  0.22942000  0.63408700  0.24527000  1
  H  H27  1  0.25455100  0.69559400  0.16514800  1
  H  H28  1  0.07029700  0.75103800  0.19796500  1
  H  H29  1  0.56768800  0.79032700  0.32659600  1
  H  H30  1  0.30871400  0.77999700  0.34556300  1
  H  H31  1  0.44798300  0.86648600  0.26334000  1
  H  H32  1  0.74339300  0.70083900  0.27029800  1
  H  H33  1  0.69491800  0.79112000  0.21360500  1
  H  H34  1  0.19478000  0.83658300  0.26820100  1
  H  H35  1  0.02221100  0.35636700  0.18823000  1
  H  H36  1  0.28647000  0.36284800  0.35616400  1
  H  H37  1  0.72882800  0.28636900  0.46727600  1
  H  H38  1  0.75054300  0.13975300  0.31176300  1
  H  H39  1  0.98250400  0.30501400  0.09817800  1
  H  H40  1  0.05507300  0.21193100  0.03082600  1
  H  H41  1  0.47196000  0.12955000  0.14641900  1
  H  H42  1  0.16483400  0.36014900  0.28206200  1
  H  H43  1  0.60337900  0.13478600  0.21883600  1
  H  H44  1  0.00387300  0.24301300  0.46178900  1
  H  H45  1  0.81265800  0.19380200  0.49465300  1
  H  H46  1  0.04434300  0.15420800  0.47227800  1
  H  H47  1  0.77173700  0.12784800  0.40392600  1
  H  H48  1  0.95832200  0.17880800  0.37131300  1
  C  C1  1  0.46506900  0.57475500  0.42253500  1
  C  C2  1  0.47675000  0.38779600  0.45060000  1
  C  C3  1  0.97845300  0.41786400  0.58456100  1
  C  C4  1  0.97188800  0.60536200  0.55670800  1
  C  C5  1  0.72678800  0.84407100  0.91078300  1
  C  C6  1  0.99201200  0.66652500  0.59085100  1
  C  C7  1  0.52570000  0.75184900  0.88215900  1
  C  C8  1  0.57512000  0.80061500  0.92160700  1
  C  C9  1  0.82968100  0.83922400  0.86046800  1
  C  C10  1  0.77719400  0.79100700  0.81952600  1
  C  C11  1  0.62484700  0.74749300  0.83129500  1
  C  C12  1  0.87222500  0.78567600  0.76709800  1
  C  C13  1  0.81553100  0.73609900  0.72773500  1
  C  C14  1  0.66072200  0.69381200  0.74060800  1
  C  C15  1  0.56705300  0.69963800  0.79202000  1
  C  C16  1  0.02345000  0.82906900  0.75348600  1
  C  C17  1  0.12082600  0.82193600  0.70262100  1
  C  C18  1  0.07137400  0.77125200  0.66490200  1
  C  C19  1  0.91711600  0.72853500  0.67653500  1
  C  C20  1  0.18252700  0.76243200  0.61632700  1
  C  C21  1  0.14646400  0.70893400  0.58008000  1
  C  C22  1  0.87447800  0.67693800  0.63783700  1
  C  C23  1  0.71273600  0.25631200  0.79394200  1
  C  C24  1  0.07057000  0.22608700  0.79756200  1
  C  C25  1  0.09717300  0.28339100  0.75693300  1
  C  C26  1  0.98295300  0.37027500  0.63011700  1
  C  C27  1  0.86144900  0.19849000  0.79077300  1
  C  C28  1  0.73517700  0.29929400  0.74191100  1
  C  C29  1  0.93059400  0.28166900  0.71286800  1
  C  C30  1  0.91720000  0.21112700  0.68771200  1
  C  C31  1  0.84326000  0.16417500  0.73278900  1
  C  C32  1  0.96669100  0.33011500  0.66769800  1
  C  C33  1  0.82540400  0.15091200  0.83661100  1
  C  C34  1  0.80920900  0.11344200  0.87615700  1
  C  C35  1  0.59922200  0.69678700  0.24682700  1
  C  C36  1  0.23440200  0.68836900  0.25649400  1
  C  C37  1  0.22222300  0.72877300  0.20252300  1
  C  C38  1  0.32220900  0.86978800  0.12076900  1
  C  C39  1  0.42768200  0.70386900  0.28804900  1
  C  C40  1  0.58238000  0.75222800  0.20354900  1
  C  C41  1  0.37526600  0.78384600  0.20615400  1
  C  C42  1  0.35331800  0.82129000  0.26261700  1
  C  C43  1  0.41788900  0.77561900  0.31050700  1
  C  C44  1  0.34491700  0.83054300  0.15899800  1
  C  C45  1  0.45429100  0.65763700  0.33569100  1
  C  C46  1  0.46629100  0.61975300  0.37520600  1
  C  C47  1  0.27515300  0.16756900  0.08536200  1
  C  C48  1  0.49863900  0.32802000  0.41488500  1
  C  C49  1  0.09332500  0.26724000  0.10894700  1
  C  C50  1  0.13493300  0.21556100  0.07105000  1
  C  C51  1  0.37125500  0.17037100  0.13730200  1
  C  C52  1  0.32491700  0.22066200  0.17673200  1
  C  C53  1  0.18530900  0.26907300  0.16180600  1
  C  C54  1  0.41073400  0.22213700  0.23110400  1
  C  C55  1  0.35421800  0.27205200  0.27017500  1
  C  C56  1  0.21437300  0.32027300  0.25397800  1
  C  C57  1  0.13199200  0.31876200  0.20015600  1
  C  C58  1  0.55209500  0.17428100  0.24700200  1
  C  C59  1  0.63773000  0.17655900  0.30030100  1
  C  C60  1  0.58539600  0.22637800  0.33853400  1
  C  C61  1  0.44149300  0.27380700  0.32440800  1
  C  C62  1  0.68398300  0.22942000  0.39030400  1
  C  C63  1  0.64472500  0.28150300  0.42787400  1
  C  C64  1  0.39387500  0.32360500  0.36428800  1
  C  C65  1  0.29747600  0.10684900  0.05082000  1
  C  C66  1  0.30093100  0.91786600  0.07591800  1
  C  C67  1  0.76022400  0.89891300  0.95127700  1
  C  C68  1  0.81394500  0.07172800  0.92571400  1
  C  C69  1  0.84005500  0.17819100  0.40392700  1
  C  C70  1  0.93108400  0.19341100  0.46204900  1
  O  O1  1  0.64151800  0.41448700  0.46807800  1
  O  O2  1  0.29328000  0.55035800  0.43526600  1
  O  O3  1  0.13728700  0.57839300  0.53950400  1
  O  O4  1  0.30068100  0.41537600  0.45482300  1
  O  O5  1  0.14471000  0.43470200  0.56070300  1
  O  O6  1  0.63427600  0.55799600  0.44651400  1
  O  O7  1  0.46612700  0.50478500  0.53905400  1
  O  O8  1  0.80413900  0.44287000  0.57219500  1
  O  O9  1  0.79756900  0.57785900  0.55238000  1
  O  O10  1  0.96394000  0.48826100  0.46833400  1
  O  O11  1  0.12038600  0.92174700  0.05084500  1
  O  O12  1  0.47650100  0.09473500  0.02928600  1
  O  O13  1  0.65972600  0.03267600  0.93632500  1
  O  O14  1  0.43021900  0.96839200  0.07825500  1
  O  O15  1  0.61417600  0.90805000  0.98819200  1
  O  O16  1  0.16158100  0.06099500  0.05914600  1
  O  O17  1  0.29472300  0.99000700  0.96806700  1
  O  O18  1  0.92541700  0.93598200  0.94599500  1
  O  O19  1  0.97653000  0.07639000  0.95724500  1
  O  O20  1  0.79708300  0.00793900  0.04332400  1
