# generated using pymatgen
data_ZnH10C16(NO2)2
_symmetry_space_group_name_H-M   'P 1'
_cell_length_a   6.62909200
_cell_length_b   9.21326100
_cell_length_c   19.59372000
_cell_angle_alpha   96.76219400
_cell_angle_beta   89.06403900
_cell_angle_gamma   89.95417600
_symmetry_Int_Tables_number   1
_chemical_formula_structural   ZnH10C16(NO2)2
_chemical_formula_sum   'Zn2 H20 C32 N4 O8'
_cell_volume   1188.20937309
_cell_formula_units_Z   2
loop_
 _symmetry_equiv_pos_site_id
 _symmetry_equiv_pos_as_xyz
  1  'x, y, z'
loop_
 _atom_site_type_symbol
 _atom_site_label
 _atom_site_symmetry_multiplicity
 _atom_site_fract_x
 _atom_site_fract_y
 _atom_site_fract_z
 _atom_site_occupancy
  Zn  Zn1  1  0.00536100  0.16328600  0.50054200  1
  Zn  Zn2  1  0.99461100  0.83919300  0.49917700  1
  H  H1  1  0.12500600  0.00509000  0.71666600  1
  H  H2  1  0.87578600  0.99764100  0.28194600  1
  H  H3  1  0.85290400  0.08331200  0.72184800  1
  H  H4  1  0.14709700  0.91349700  0.27771300  1
  H  H5  1  0.66998100  0.07479100  0.82901500  1
  H  H6  1  0.33540800  0.91423200  0.16961300  1
  H  H7  1  0.51334600  0.84955600  0.09094000  1
  H  H8  1  0.51005600  0.10550100  0.91216600  1
  H  H9  1  0.97371100  0.09087500  0.20321000  1
  H  H10  1  0.99736900  0.94406300  0.79716400  1
  H  H11  1  0.15783900  0.11260400  0.09751300  1
  H  H12  1  0.81215100  0.92919700  0.90220000  1
  H  H13  1  0.69951300  0.86565200  0.98479600  1
  H  H14  1  0.32956800  0.08014400  0.01711000  1
  H  H15  1  0.30889100  0.64304400  0.49913400  1
  H  H16  1  0.69109600  0.35943300  0.50058700  1
  H  H17  1  0.37378100  0.30523500  0.54431800  1
  H  H18  1  0.37816400  0.28187300  0.45741600  1
  H  H19  1  0.62180000  0.72058500  0.54231200  1
  H  H20  1  0.62620300  0.69724900  0.45540700  1
  C  C1  1  0.65492000  0.90765100  0.09247800  1
  C  C2  1  0.35787200  0.06469800  0.90889200  1
  C  C3  1  0.73120400  0.96834000  0.15438900  1
  C  C4  1  0.26866600  0.02676400  0.84603100  1
  C  C5  1  0.91382000  0.04001900  0.15534800  1
  C  C6  1  0.07184700  0.97694800  0.84492800  1
  C  C7  1  0.01866600  0.05205700  0.09494200  1
  C  C8  1  0.96628700  0.96605700  0.90534000  1
  C  C9  1  0.94364500  0.99052600  0.03267700  1
  C  C10  1  0.05598800  0.00307100  0.96815000  1
  C  C11  1  0.76109800  0.91752000  0.03205600  1
  C  C12  1  0.25303100  0.05221000  0.96928900  1
  C  C13  1  0.28476400  0.02222300  0.71911600  1
  C  C14  1  0.71545000  0.97934800  0.28060500  1
  C  C15  1  0.38924900  0.02903800  0.65812900  1
  C  C16  1  0.61082200  0.97349600  0.34163100  1
  C  C17  1  0.59608600  0.04588100  0.65877200  1
  C  C18  1  0.40381300  0.95580200  0.34088300  1
  C  C19  1  0.69228300  0.06673100  0.72092000  1
  C  C20  1  0.30790600  0.93063900  0.27864900  1
  C  C21  1  0.58711600  0.06284300  0.78186000  1
  C  C22  1  0.41441700  0.93051600  0.21766100  1
  C  C23  1  0.38188700  0.03758600  0.78144400  1
  C  C24  1  0.61833100  0.95900200  0.21855100  1
  C  C25  1  0.72082800  0.02894300  0.59618400  1
  C  C26  1  0.27900200  0.97339400  0.40347700  1
  C  C27  1  0.27274500  0.01917600  0.59517300  1
  C  C28  1  0.72718800  0.98339300  0.40458400  1
  C  C29  1  0.17999900  0.43122000  0.50027000  1
  C  C30  1  0.81998700  0.57125700  0.49945200  1
  C  C31  1  0.17100900  0.58052600  0.49935400  1
  C  C32  1  0.82897900  0.42195300  0.50036800  1
  N  N1  1  0.99145200  0.64885500  0.49889800  1
  N  N2  1  0.00853500  0.35362400  0.50082400  1
  N  N3  1  0.37034900  0.35981300  0.50058900  1
  N  N4  1  0.62963400  0.64265900  0.49913300  1
  O  O1  1  0.78727800  0.89721700  0.57381700  1
  O  O2  1  0.21271400  0.10522800  0.42588500  1
  O  O3  1  0.78885100  0.14732300  0.57265100  1
  O  O4  1  0.21105100  0.85513300  0.42706500  1
  O  O5  1  0.20780900  0.14120300  0.57433100  1
  O  O6  1  0.79212400  0.86130500  0.42540300  1
  O  O7  1  0.20619500  0.88997900  0.57063900  1
  O  O8  1  0.79376600  0.11255100  0.42908900  1
