# generated using pymatgen
data_ZnH17C22NO5
_symmetry_space_group_name_H-M   'P 1'
_cell_length_a   15.99298000
_cell_length_b   15.20163600
_cell_length_c   14.02517100
_cell_angle_alpha   90.00494200
_cell_angle_beta   90.00549900
_cell_angle_gamma   90.00041000
_symmetry_Int_Tables_number   1
_chemical_formula_structural   ZnH17C22NO5
_chemical_formula_sum   'Zn2 H34 C44 N2 O10'
_cell_volume   3409.79197868
_cell_formula_units_Z   2
loop_
 _symmetry_equiv_pos_site_id
 _symmetry_equiv_pos_as_xyz
  1  'x, y, z'
loop_
 _atom_site_type_symbol
 _atom_site_label
 _atom_site_symmetry_multiplicity
 _atom_site_fract_x
 _atom_site_fract_y
 _atom_site_fract_z
 _atom_site_occupancy
  Zn  Zn1  1  0.51413300  0.48498800  0.60901900  1
  Zn  Zn2  1  0.51379200  0.48492600  0.39187100  1
  H  H1  1  0.06632100  0.35463800  0.41990000  1
  H  H2  1  0.96160400  0.61529900  0.58098400  1
  H  H3  1  0.96166400  0.35532000  0.58229600  1
  H  H4  1  0.06626300  0.61461400  0.41858400  1
  H  H5  1  0.96213100  0.48424500  0.33760400  1
  H  H6  1  0.06579800  0.48569400  0.66327800  1
  H  H7  1  0.55500800  0.04618200  0.64602200  1
  H  H8  1  0.55512800  0.92390500  0.35530900  1
  H  H9  1  0.55224700  0.20497800  0.64656900  1
  H  H10  1  0.55240200  0.76512600  0.35450500  1
  H  H11  1  0.47530100  0.20486600  0.35468200  1
  H  H12  1  0.47550800  0.76481500  0.64639200  1
  H  H13  1  0.47244600  0.04609700  0.35537100  1
  H  H14  1  0.47271100  0.92359000  0.64603100  1
  H  H15  1  0.39004600  0.43711700  0.24094700  1
  H  H16  1  0.56074600  0.61461500  0.75962400  1
  H  H17  1  0.63674100  0.53291900  0.23931300  1
  H  H18  1  0.46802300  0.35575300  0.76175600  1
  H  H19  1  0.63810500  0.53236800  0.06547600  1
  H  H20  1  0.46844600  0.35464700  0.93564000  1
  H  H21  1  0.31875800  0.53048200  0.97012300  1
  H  H22  1  0.35437300  0.56913700  0.08480500  1
  H  H23  1  0.20575700  0.44512300  0.04974200  1
  H  H24  1  0.24159700  0.48399600  0.16462200  1
  H  H25  1  0.21558900  0.63839300  0.11393200  1
  H  H26  1  0.12186100  0.57228500  0.10579600  1
  H  H27  1  0.17959700  0.59946300  0.99893200  1
  H  H28  1  0.47207300  0.69382000  0.02768000  1
  H  H29  1  0.43574200  0.65398200  0.91384000  1
  H  H30  1  0.55473400  0.80986000  0.94666700  1
  H  H31  1  0.52093700  0.76909200  0.83180300  1
  H  H32  1  0.37308600  0.79907400  0.87532600  1
  H  H33  1  0.43637200  0.89735300  0.88321900  1
  H  H34  1  0.40657200  0.83955800  0.99069800  1
  C  C1  1  0.51391800  0.31277900  0.50053200  1
  C  C2  1  0.51397500  0.65713500  0.50030500  1
  C  C3  1  0.35055700  0.48501100  0.50087100  1
  C  C4  1  0.67736600  0.48489800  0.50010700  1
  C  C5  1  0.98665500  0.41411400  0.54518400  1
  C  C6  1  0.04127100  0.55582300  0.45570000  1
  C  C7  1  0.04130300  0.41374100  0.45641700  1
  C  C8  1  0.98662200  0.55619700  0.54446700  1
  C  C9  1  0.26083800  0.48501700  0.50095000  1
  C  C10  1  0.76708600  0.48490600  0.49999400  1
  C  C11  1  0.04102000  0.48536500  0.58943400  1
  C  C12  1  0.98690400  0.48457200  0.41145000  1
  C  C13  1  0.09404200  0.48499100  0.50066500  1
  C  C14  1  0.93388300  0.48494600  0.50022000  1
  C  C15  1  0.18550000  0.48501000  0.50087400  1
  C  C16  1  0.84242400  0.48492200  0.50003800  1
  C  C17  1  0.53542200  0.07986100  0.58201400  1
  C  C18  1  0.53554200  0.89014500  0.41926200  1
  C  C19  1  0.53462800  0.17056200  0.58220900  1
  C  C20  1  0.53476100  0.79945500  0.41890400  1
  C  C21  1  0.51383800  0.21638400  0.50059300  1
  C  C22  1  0.51394000  0.75352300  0.50041300  1
  C  C23  1  0.49293500  0.17050100  0.41905800  1
  C  C24  1  0.49312200  0.79928100  0.58207200  1
  C  C25  1  0.49207900  0.07981000  0.41934500  1
  C  C26  1  0.49227700  0.88997800  0.58196400  1
  C  C27  1  0.51377400  0.03347900  0.50068600  1
  C  C28  1  0.51386100  0.93641800  0.50065100  1
  C  C29  1  0.44179200  0.46100300  0.10353300  1
  C  C30  1  0.53759500  0.56064600  0.89717000  1
  C  C31  1  0.44445600  0.45883800  0.20191700  1
  C  C32  1  0.53970800  0.55761700  0.79880100  1
  C  C33  1  0.58162200  0.51193600  0.20108100  1
  C  C34  1  0.48829000  0.41367200  0.79991000  1
  C  C35  1  0.58203900  0.51265300  0.10279900  1
  C  C36  1  0.48758200  0.41342500  0.89819300  1
  C  C37  1  0.51175300  0.48718300  0.05283200  1
  C  C38  1  0.51216200  0.48733400  0.94800800  1
  C  C39  1  0.32347100  0.51396700  0.04695000  1
  C  C40  1  0.23669600  0.50020400  0.08773600  1
  C  C41  1  0.18515600  0.58312000  0.07573000  1
  C  C42  1  0.48838100  0.68658800  0.95123100  1
  C  C43  1  0.50329600  0.77655600  0.90782300  1
  C  C44  1  0.42457000  0.83164700  0.91482100  1
  N  N1  1  0.51345600  0.48487400  0.24919900  1
  N  N2  1  0.51438900  0.48516600  0.75168300  1
  O  O1  1  0.51448200  0.35391500  0.58282900  1
  O  O2  1  0.51434100  0.61600500  0.41801400  1
  O  O3  1  0.51335800  0.35388100  0.41820500  1
  O  O4  1  0.51357500  0.61600600  0.58255800  1
  O  O5  1  0.38949800  0.48455300  0.58316100  1
  O  O6  1  0.63842300  0.48450900  0.41780300  1
  O  O7  1  0.38928000  0.48548700  0.41847100  1
  O  O8  1  0.63866100  0.48534700  0.58254300  1
  O  O9  1  0.36996100  0.43672000  0.05742400  1
  O  O10  1  0.56110300  0.63614600  0.94314400  1
