# generated using pymatgen
data_VH12C16S2N2O5
_symmetry_space_group_name_H-M   'P 1'
_cell_length_a   6.36367800
_cell_length_b   21.85686800
_cell_length_c   25.32246800
_cell_angle_alpha   90.00000000
_cell_angle_beta   90.00000000
_cell_angle_gamma   90.00000000
_symmetry_Int_Tables_number   1
_chemical_formula_structural   VH12C16S2N2O5
_chemical_formula_sum   'V4 H48 C64 S8 N8 O20'
_cell_volume   3522.10384772
_cell_formula_units_Z   4
loop_
 _symmetry_equiv_pos_site_id
 _symmetry_equiv_pos_as_xyz
  1  'x, y, z'
loop_
 _atom_site_type_symbol
 _atom_site_label
 _atom_site_symmetry_multiplicity
 _atom_site_fract_x
 _atom_site_fract_y
 _atom_site_fract_z
 _atom_site_occupancy
  V  V1  1  0.17328000  0.76454000  0.24991800  1
  V  V2  1  0.82672000  0.23546000  0.74991800  1
  V  V3  1  0.67328000  0.73546000  0.25008200  1
  V  V4  1  0.32672000  0.26454000  0.75008200  1
  H  H1  1  0.27504800  0.46670900  0.55666000  1
  H  H2  1  0.73119500  0.53061100  0.44189400  1
  H  H3  1  0.72495300  0.53329100  0.05666000  1
  H  H4  1  0.26880500  0.46938900  0.94189400  1
  H  H5  1  0.77504700  0.03329100  0.94334000  1
  H  H6  1  0.23119500  0.96938900  0.05810600  1
  H  H7  1  0.22495300  0.96670900  0.44334000  1
  H  H8  1  0.76880500  0.03061100  0.55810600  1
  H  H9  1  0.37382800  0.58429000  0.45112800  1
  H  H10  1  0.63188600  0.41342900  0.54696300  1
  H  H11  1  0.62617200  0.41571000  0.95112700  1
  H  H12  1  0.36811400  0.58657100  0.04696300  1
  H  H13  1  0.87382800  0.91571000  0.04887200  1
  H  H14  1  0.13188600  0.08657100  0.95303700  1
  H  H15  1  0.12617200  0.08429000  0.54887200  1
  H  H16  1  0.86811400  0.91342900  0.45303700  1
  H  H17  1  0.32112000  0.65485500  0.37658800  1
  H  H18  1  0.69289900  0.34069700  0.62082800  1
  H  H19  1  0.67888000  0.34514500  0.87658800  1
  H  H20  1  0.30710100  0.65930300  0.12082800  1
  H  H21  1  0.82112000  0.84514500  0.12341200  1
  H  H22  1  0.19289900  0.15930300  0.87917200  1
  H  H23  1  0.17888000  0.15485500  0.62341200  1
  H  H24  1  0.80710100  0.84069700  0.37917200  1
  H  H25  1  0.47839800  0.27647800  0.64793200  1
  H  H26  1  0.46498100  0.30016600  0.57918900  1
  H  H27  1  0.22859700  0.29345700  0.61767200  1
  H  H28  1  0.49996900  0.53426100  0.28338700  1
  H  H29  1  0.67983000  0.50048500  0.33025200  1
  H  H30  1  0.77292300  0.55715000  0.28314900  1
  H  H31  1  0.52160200  0.72352200  0.14793200  1
  H  H32  1  0.53501900  0.69983400  0.07918900  1
  H  H33  1  0.77140300  0.70654300  0.11767200  1
  H  H34  1  0.50003100  0.46573900  0.78338700  1
  H  H35  1  0.32017000  0.49951500  0.83025200  1
  H  H36  1  0.22707700  0.44285000  0.78314900  1
  H  H37  1  0.97839800  0.22352200  0.85206800  1
  H  H38  1  0.96498100  0.19983400  0.92081100  1
  H  H39  1  0.72859700  0.20654300  0.88232800  1
  H  H40  1  0.99996900  0.96574000  0.21661300  1
  H  H41  1  0.17983000  0.99951500  0.16974800  1
  H  H42  1  0.27292300  0.94285000  0.21685100  1
  H  H43  1  0.02160200  0.77647800  0.35206800  1
  H  H44  1  0.03501900  0.80016600  0.42081100  1
  H  H45  1  0.27140300  0.79345700  0.38232800  1
  H  H46  1  0.00003100  0.03426000  0.71661300  1
  H  H47  1  0.82017000  0.00048500  0.66974800  1
  H  H48  1  0.72707700  0.05715000  0.71685100  1
  C  C1  1  0.46451000  0.82506700  0.32397000  1
  C  C2  1  0.53514900  0.17469400  0.67622200  1
  C  C3  1  0.53549000  0.17493300  0.82397000  1
  C  C4  1  0.46485100  0.82530600  0.17622200  1
  C  C5  1  0.96451000  0.67493300  0.17603000  1
  C  C6  1  0.03514900  0.32530600  0.82377800  1
  C  C7  1  0.03549000  0.32506700  0.67603000  1
  C  C8  1  0.96485100  0.67469400  0.32377800  1
  C  C9  1  0.99687300  0.63214200  0.36737800  1
  C  C10  1  0.00488400  0.36740200  0.63215900  1
  C  C11  1  0.00312700  0.36785800  0.86737800  1
  C  C12  1  0.99511600  0.63259800  0.13215900  1
  C  C13  1  0.49687300  0.86785800  0.13262200  1
  C  C14  1  0.50488400  0.13259800  0.86784100  1
  C  C15  1  0.50312700  0.13214200  0.63262200  1
  C  C16  1  0.49511600  0.86740200  0.36784100  1
  C  C17  1  0.83156100  0.59728700  0.38564700  1
  C  C18  1  0.17014900  0.40127400  0.61358300  1
  C  C19  1  0.16843900  0.40271300  0.88564700  1
  C  C20  1  0.82985100  0.59872600  0.11358300  1
  C  C21  1  0.33156100  0.90271300  0.11435300  1
  C  C22  1  0.67014900  0.09872600  0.88641700  1
  C  C23  1  0.66843900  0.09728700  0.61435300  1
  C  C24  1  0.32985100  0.90127400  0.38641700  1
  C  C25  1  0.86094100  0.55781700  0.42748100  1
  C  C26  1  0.14321000  0.44086900  0.57173200  1
  C  C27  1  0.13905900  0.44218300  0.92748100  1
  C  C28  1  0.85679000  0.55913100  0.07173200  1
  C  C29  1  0.36094100  0.94218300  0.07251900  1
  C  C30  1  0.64321000  0.05913100  0.92826800  1
  C  C31  1  0.63905900  0.05781700  0.57251900  1
  C  C32  1  0.35679000  0.94086900  0.42826800  1
  C  C33  1  0.05565200  0.55320400  0.45104800  1
  C  C34  1  0.94824600  0.44620600  0.54837600  1
  C  C35  1  0.94434800  0.44679600  0.95104800  1
  C  C36  1  0.05175400  0.55379400  0.04837600  1
  C  C37  1  0.55565200  0.94679600  0.04895200  1
  C  C38  1  0.44824600  0.05379400  0.95162400  1
  C  C39  1  0.44434800  0.05320400  0.54895200  1
  C  C40  1  0.55175400  0.94620600  0.45162400  1
  C  C41  1  0.22121600  0.58787400  0.43263500  1
  C  C42  1  0.78339600  0.41076400  0.56613000  1
  C  C43  1  0.77878400  0.41212600  0.93263500  1
  C  C44  1  0.21660400  0.58923600  0.06613000  1
  C  C45  1  0.72121600  0.91212600  0.06736500  1
  C  C46  1  0.28339600  0.08923600  0.93387000  1
  C  C47  1  0.27878400  0.08787400  0.56736500  1
  C  C48  1  0.71660400  0.91076400  0.43387000  1
  C  C49  1  0.19178300  0.62735800  0.39080600  1
  C  C50  1  0.81378800  0.37100800  0.60772400  1
  C  C51  1  0.80821700  0.37264200  0.89080600  1
  C  C52  1  0.18621200  0.62899200  0.10772400  1
  C  C53  1  0.69178300  0.87264200  0.10919400  1
  C  C54  1  0.31378800  0.12899200  0.89227600  1
  C  C55  1  0.30821700  0.12735800  0.60919400  1
  C  C56  1  0.68621200  0.87100800  0.39227600  1
  C  C57  1  0.39668000  0.30642100  0.61915100  1
  C  C58  1  0.63952700  0.54294500  0.30852300  1
  C  C59  1  0.60332000  0.69357900  0.11915100  1
  C  C60  1  0.36047300  0.45705500  0.80852300  1
  C  C61  1  0.89668000  0.19357900  0.88084900  1
  C  C62  1  0.13952700  0.95705500  0.19147700  1
  C  C63  1  0.10332000  0.80642100  0.38084900  1
  C  C64  1  0.86047300  0.04294500  0.69147700  1
  S  S1  1  0.42262400  0.38602300  0.63965600  1
  S  S2  1  0.57927500  0.60339100  0.35521600  1
  S  S3  1  0.57737600  0.61397700  0.13965600  1
  S  S4  1  0.42072500  0.39660900  0.85521600  1
  S  S5  1  0.92262400  0.11397700  0.86034400  1
  S  S6  1  0.07927500  0.89660900  0.14478400  1
  S  S7  1  0.07737600  0.88602300  0.36034400  1
  S  S8  1  0.92072500  0.10339100  0.64478400  1
  N  N1  1  0.08510400  0.51325700  0.49403600  1
  N  N2  1  0.91924100  0.48614800  0.50536600  1
  N  N3  1  0.91489600  0.48674300  0.99403600  1
  N  N4  1  0.08075900  0.51385200  0.00536600  1
  N  N5  1  0.58510400  0.98674300  0.00596400  1
  N  N6  1  0.41924100  0.01385200  0.99463400  1
  N  N7  1  0.41489600  0.01325700  0.50596400  1
  N  N8  1  0.58075900  0.98614800  0.49463400  1
  O  O1  1  0.63476200  0.79570500  0.19292700  1
  O  O2  1  0.36522300  0.20446800  0.80737700  1
  O  O3  1  0.36523800  0.20429500  0.69292700  1
  O  O4  1  0.63477700  0.79553200  0.30737700  1
  O  O5  1  0.13476200  0.70429500  0.30707300  1
  O  O6  1  0.86522300  0.29553200  0.69262300  1
  O  O7  1  0.86523800  0.29570500  0.80707300  1
  O  O8  1  0.13477700  0.70446800  0.19262300  1
  O  O9  1  0.27215300  0.82303600  0.30391500  1
  O  O10  1  0.72782100  0.17677700  0.69607400  1
  O  O11  1  0.72784700  0.17696400  0.80391500  1
  O  O12  1  0.27217900  0.82322300  0.19607400  1
  O  O13  1  0.77215300  0.67696400  0.19608500  1
  O  O14  1  0.22782100  0.32322300  0.80392600  1
  O  O15  1  0.22784700  0.32303600  0.69608500  1
  O  O16  1  0.77217900  0.67677700  0.30392600  1
  O  O17  1  0.42326300  0.71231100  0.25006100  1
  O  O18  1  0.57673700  0.28768900  0.75006100  1
  O  O19  1  0.92326300  0.78768900  0.24993900  1
  O  O20  1  0.07673700  0.21231100  0.74993900  1
