# generated using pymatgen
data_Zn2H17C33N5O11
_symmetry_space_group_name_H-M   'P 1'
_cell_length_a   8.55755600
_cell_length_b   11.21308200
_cell_length_c   12.07514000
_cell_angle_alpha   106.76218100
_cell_angle_beta   90.29942700
_cell_angle_gamma   80.71791300
_symmetry_Int_Tables_number   1
_chemical_formula_structural   Zn2H17C33N5O11
_chemical_formula_sum   'Zn2 H17 C33 N5 O11'
_cell_volume   1093.88367462
_cell_formula_units_Z   1
loop_
 _symmetry_equiv_pos_site_id
 _symmetry_equiv_pos_as_xyz
  1  'x, y, z'
loop_
 _atom_site_type_symbol
 _atom_site_label
 _atom_site_symmetry_multiplicity
 _atom_site_fract_x
 _atom_site_fract_y
 _atom_site_fract_z
 _atom_site_occupancy
  Zn  Zn1  1  0.50972000  0.46059800  0.86561200  1
  Zn  Zn2  1  0.49680300  0.53530600  0.12399200  1
  H  H1  1  0.99334200  0.40121600  0.96157600  1
  H  H2  1  0.34559100  0.11350800  0.01362000  1
  H  H3  1  0.01674300  0.58915900  0.02125600  1
  H  H4  1  0.65479100  0.87650900  0.98794300  1
  H  H5  1  0.28530700  0.91590200  0.00513000  1
  H  H6  1  0.44360200  0.80630400  0.67330300  1
  H  H7  1  0.40868200  0.84578200  0.49753400  1
  H  H8  1  0.53820800  0.39866000  0.28519600  1
  H  H9  1  0.54815900  0.22850800  0.71819400  1
  H  H10  1  0.54174000  0.27684700  0.38376300  1
  H  H11  1  0.48647600  0.66920700  0.78716600  1
  H  H12  1  0.67626000  0.07223500  0.33788500  1
  H  H13  1  0.47602200  0.07789200  0.33887600  1
  H  H14  1  0.54443400  0.12679000  0.86109200  1
  H  H15  1  0.67629300  0.99073100  0.82395000  1
  H  H16  1  0.18916200  0.88878300  0.23882500  1
  H  H17  1  0.18765400  0.85463600  0.36586300  1
  C  C1  1  0.90727200  0.24694200  0.98931700  1
  C  C2  1  0.02599400  0.31197100  0.97774800  1
  C  C3  1  0.18213100  0.26709800  0.99038500  1
  C  C4  1  0.22378000  0.14942300  0.00416600  1
  C  C5  1  0.11088800  0.07471100  0.00075700  1
  C  C6  1  0.95137100  0.12341400  0.99672200  1
  C  C7  1  0.16070900  0.95109400  0.00151200  1
  C  C8  1  0.05210500  0.87257400  0.99770700  1
  C  C9  1  0.89195700  0.92097300  0.99435800  1
  C  C10  1  0.84226000  0.04527800  0.99458500  1
  C  C11  1  0.09860200  0.74800500  0.00105100  1
  C  C12  1  0.98224200  0.68020200  0.00916500  1
  C  C13  1  0.82581000  0.72574000  0.00006600  1
  C  C14  1  0.78000000  0.84486600  0.99201300  1
  C  C15  1  0.70727500  0.64712400  0.99803500  1
  C  C16  1  0.74396700  0.31808600  0.99178200  1
  C  C17  1  0.30204800  0.34592500  0.99194200  1
  C  C18  1  0.26249500  0.67853600  0.99805400  1
  C  C19  1  0.43814800  0.74610200  0.45255400  1
  C  C20  1  0.53967300  0.29024500  0.66385300  1
  C  C21  1  0.54945900  0.23943200  0.54520300  1
  C  C22  1  0.53689300  0.31853700  0.47559000  1
  C  C23  1  0.51543000  0.44839200  0.52503100  1
  C  C24  1  0.50755500  0.49549900  0.64610800  1
  C  C25  1  0.49866700  0.53290400  0.45716200  1
  C  C26  1  0.46763800  0.66053000  0.51336800  1
  C  C27  1  0.46409900  0.70571700  0.63103500  1
  C  C28  1  0.48715300  0.62483900  0.69666800  1
  C  C29  1  0.51014600  0.49601000  0.33542800  1
  C  C30  1  0.44522000  0.70764800  0.33472800  1
  C  C31  1  0.57210300  0.10123500  0.49488300  1
  C  C32  1  0.67419600  0.09283700  0.99052000  1
  C  C33  1  0.39944200  0.80833800  0.27972000  1
  N  N1  1  0.48666800  0.58299300  0.27611600  1
  N  N2  1  0.51893500  0.41594800  0.71345700  1
  N  N3  1  0.58128200  0.04462800  0.37246000  1
  N  N4  1  0.59245100  0.04834100  0.88741500  1
  N  N5  1  0.25169000  0.89116800  0.31369500  1
  O  O1  1  0.65661200  0.63820600  0.09635300  1
  O  O2  1  0.65929900  0.58685200  0.89776300  1
  O  O3  1  0.69211700  0.33549800  0.89337300  1
  O  O4  1  0.67797200  0.38858200  0.09365900  1
  O  O5  1  0.35240700  0.35506400  0.89259800  1
  O  O6  1  0.34854000  0.40797200  0.09313700  1
  O  O7  1  0.31441900  0.65940700  0.09485800  1
  O  O8  1  0.32703500  0.60631300  0.89751300  1
  O  O9  1  0.58353100  0.03359000  0.55849400  1
  O  O10  1  0.60278100  0.16637800  0.07670400  1
  O  O11  1  0.49225900  0.83138500  0.21588800  1
