# generated using pymatgen
data_Zn2H15C18Br(NO4)2
_symmetry_space_group_name_H-M   'P 1'
_cell_length_a   7.67291800
_cell_length_b   8.89539700
_cell_length_c   15.95533900
_cell_angle_alpha   89.99239700
_cell_angle_beta   83.93572200
_cell_angle_gamma   91.43225100
_symmetry_Int_Tables_number   1
_chemical_formula_structural   Zn2H15C18Br(NO4)2
_chemical_formula_sum   'Zn2 H15 C18 Br1 N2 O8'
_cell_volume   1082.57351569
_cell_formula_units_Z   1
loop_
 _symmetry_equiv_pos_site_id
 _symmetry_equiv_pos_as_xyz
  1  'x, y, z'
loop_
 _atom_site_type_symbol
 _atom_site_label
 _atom_site_symmetry_multiplicity
 _atom_site_fract_x
 _atom_site_fract_y
 _atom_site_fract_z
 _atom_site_occupancy
  Zn  Zn1  1  0.30229500  0.51918300  0.51201600  1
  Zn  Zn2  1  0.69845700  0.48373400  0.49229200  1
  H  H1  1  0.36206500  0.71007900  0.08689900  1
  H  H2  1  0.42713200  0.73131500  0.94487400  1
  H  H3  1  0.77012900  0.44568500  0.92702200  1
  H  H4  1  0.73323800  0.64403500  0.91246300  1
  H  H5  1  0.68495700  0.68572700  0.05360300  1
  H  H6  1  0.78396300  0.50493800  0.06491600  1
  H  H7  1  0.30269400  0.32747300  0.95140400  1
  H  H8  1  0.52210400  0.25994300  0.92346300  1
  H  H9  1  0.35664800  0.28944200  0.08720800  1
  H  H10  1  0.24433200  0.60043500  0.93797000  1
  H  H11  1  0.59074300  0.27650800  0.05849900  1
  H  H12  1  0.70091700  0.00606800  0.49211200  1
  H  H13  1  0.29983500  0.99684800  0.51219000  1
  H  H14  1  0.03472900  0.39033500  0.44046200  1
  H  H15  1  0.96602300  0.61258200  0.56384500  1
  C  C1  1  0.54430700  0.79374700  0.49994300  1
  C  C2  1  0.49951300  0.50146000  0.66596300  1
  C  C3  1  0.45644400  0.20917000  0.50436300  1
  C  C4  1  0.50123900  0.50145700  0.33834500  1
  C  C5  1  0.37407800  0.61693400  0.96180000  1
  C  C6  1  0.68244500  0.53989700  0.94573300  1
  C  C7  1  0.67447700  0.56376500  0.04001600  1
  C  C8  1  0.50146400  0.50144900  0.24839500  1
  C  C9  1  0.49989900  0.50148900  0.92309900  1
  C  C10  1  0.35466800  0.59815600  0.05668600  1
  C  C11  1  0.50086200  0.50147700  0.08120900  1
  C  C12  1  0.47289000  0.34254500  0.05051800  1
  C  C13  1  0.44372800  0.34762100  0.95817500  1
  C  C14  1  0.50132900  0.50145800  0.17287800  1
  C  C15  1  0.49943100  0.50149100  0.83143000  1
  C  C16  1  0.49929100  0.50148300  0.75591300  1
  C  C17  1  0.56933900  0.95721200  0.49869500  1
  C  C18  1  0.43141300  0.04570400  0.50560600  1
  Br  Br1  1  0.13124300  0.50100000  0.09292700  1
  N  N1  1  0.95849200  0.46048200  0.47938800  1
  N  N2  1  0.04225900  0.54243500  0.52492000  1
  O  O1  1  0.38354500  0.73778000  0.50798400  1
  O  O2  1  0.68411300  0.71084700  0.49295500  1
  O  O3  1  0.34937000  0.51493500  0.63456200  1
  O  O4  1  0.64994100  0.48799300  0.61956200  1
  O  O5  1  0.31663900  0.29206900  0.51135200  1
  O  O6  1  0.61720600  0.26513700  0.49632300  1
  O  O7  1  0.35081000  0.51492400  0.38474600  1
  O  O8  1  0.65138200  0.48798200  0.36974600  1
