# generated using pymatgen
data_Zn3H20C48(NO12)2
_symmetry_space_group_name_H-M   'P 1'
_cell_length_a   23.77726100
_cell_length_b   23.77729800
_cell_length_c   46.91628200
_cell_angle_alpha   90.00000000
_cell_angle_beta   90.00000000
_cell_angle_gamma   90.00000000
_symmetry_Int_Tables_number   1
_chemical_formula_structural   Zn3H20C48(NO12)2
_chemical_formula_sum   'Zn12 H80 C192 N8 O96'
_cell_volume   26524.54323330
_cell_formula_units_Z   4
loop_
 _symmetry_equiv_pos_site_id
 _symmetry_equiv_pos_as_xyz
  1  'x, y, z'
loop_
 _atom_site_type_symbol
 _atom_site_label
 _atom_site_symmetry_multiplicity
 _atom_site_fract_x
 _atom_site_fract_y
 _atom_site_fract_z
 _atom_site_occupancy
  Zn  Zn1  1  0.93643200  0.49977300  0.50007000  1
  Zn  Zn2  1  0.50035100  0.93622600  0.50006700  1
  Zn  Zn3  1  0.06386000  0.50005300  0.49994500  1
  Zn  Zn4  1  0.49988900  0.06365200  0.49994600  1
  Zn  Zn5  1  0.43614300  0.00018100  0.00003400  1
  Zn  Zn6  1  0.99974200  0.43627500  0.99993100  1
  Zn  Zn7  1  0.56357000  0.99971600  0.99995100  1
  Zn  Zn8  1  0.00002100  0.56370300  0.00005500  1
  Zn  Zn9  1  0.00012800  0.99985800  0.46858000  1
  Zn  Zn10  1  0.00012100  0.99996200  0.53144100  1
  Zn  Zn11  1  0.49993100  0.49999800  0.96855900  1
  Zn  Zn12  1  0.49982400  0.49989400  0.03142000  1
  H  H1  1  0.08663700  0.51951700  0.35741000  1
  H  H2  1  0.47980600  0.08646400  0.35742900  1
  H  H3  1  0.91171600  0.47946300  0.35723700  1
  H  H4  1  0.51992600  0.91155800  0.35721500  1
  H  H5  1  0.08824000  0.47908700  0.64282200  1
  H  H6  1  0.47881100  0.91381100  0.64261800  1
  H  H7  1  0.91398900  0.52184400  0.64260400  1
  H  H8  1  0.52150400  0.08807800  0.64280500  1
  H  H9  1  0.58621500  0.02182700  0.85742800  1
  H  H10  1  0.97908800  0.58809800  0.85718100  1
  H  H11  1  0.41194800  0.97913600  0.85714700  1
  H  H12  1  0.02185700  0.41385000  0.85739400  1
  H  H13  1  0.58808600  0.97944700  0.14279500  1
  H  H14  1  0.97948800  0.41157500  0.14277100  1
  H  H15  1  0.41318000  0.01956600  0.14256000  1
  H  H16  1  0.01953100  0.58649900  0.14258300  1
  H  H17  1  0.08692800  0.51858700  0.40924900  1
  H  H18  1  0.48079500  0.08671900  0.40927000  1
  H  H19  1  0.91100100  0.48050200  0.40907600  1
  H  H20  1  0.51895300  0.91080800  0.40905200  1
  H  H21  1  0.08898100  0.47978900  0.59098700  1
  H  H22  1  0.47979300  0.91347600  0.59078000  1
  H  H23  1  0.91369100  0.52086200  0.59076400  1
  H  H24  1  0.52079500  0.08878200  0.59096800  1
  H  H25  1  0.58643800  0.02085700  0.90926700  1
  H  H26  1  0.97975700  0.58882700  0.90901500  1
  H  H27  1  0.41113100  0.97985800  0.90898200  1
  H  H28  1  0.02084200  0.41353900  0.90923400  1
  H  H29  1  0.58887600  0.98049700  0.09095600  1
  H  H30  1  0.98050000  0.41084900  0.09093100  1
  H  H31  1  0.41296400  0.01865500  0.09072000  1
  H  H32  1  0.01857400  0.58677800  0.09074400  1
  H  H33  1  0.82941800  0.67962200  0.20005500  1
  H  H34  1  0.88273300  0.73393400  0.19821200  1
  H  H35  1  0.83842100  0.72803500  0.22949400  1
  H  H36  1  0.32000900  0.82931900  0.19995400  1
  H  H37  1  0.26568000  0.88261500  0.19809900  1
  H  H38  1  0.27155000  0.83828400  0.22937700  1
  H  H39  1  0.16998500  0.31921900  0.20039700  1
  H  H40  1  0.11681000  0.26476600  0.19858500  1
  H  H41  1  0.16102000  0.27093200  0.22989200  1
  H  H42  1  0.68042900  0.16986700  0.20049700  1
  H  H43  1  0.73486300  0.11667100  0.19870100  1
  H  H44  1  0.72866500  0.16086700  0.23001100  1
  H  H45  1  0.83052100  0.32044700  0.79974600  1
  H  H46  1  0.88375900  0.26605400  0.80155100  1
  H  H47  1  0.83948200  0.27212800  0.77026400  1
  H  H48  1  0.31899100  0.17069100  0.79962700  1
  H  H49  1  0.26461700  0.11741700  0.80128700  1
  H  H50  1  0.27086500  0.16182500  0.77005700  1
  H  H51  1  0.17079800  0.68115300  0.79978700  1
  H  H52  1  0.11754100  0.73554100  0.80147700  1
  H  H53  1  0.16196600  0.72936400  0.77025000  1
  H  H54  1  0.67967800  0.83039600  0.79990400  1
  H  H55  1  0.73408700  0.88361200  0.80174400  1
  H  H56  1  0.72808800  0.83932400  0.77045800  1
  H  H57  1  0.32966300  0.18108600  0.70011500  1
  H  H58  1  0.38289400  0.23550300  0.69845900  1
  H  H59  1  0.33839800  0.22929600  0.72966000  1
  H  H60  1  0.82058100  0.33044800  0.70019800  1
  H  H61  1  0.76618400  0.38368100  0.69839300  1
  H  H62  1  0.77224200  0.33938700  0.72967400  1
  H  H63  1  0.66997100  0.82041100  0.70035100  1
  H  H64  1  0.61671700  0.76604000  0.69850700  1
  H  H65  1  0.66091700  0.77208500  0.72982300  1
  H  H66  1  0.18125100  0.67076300  0.70026900  1
  H  H67  1  0.23564700  0.61751500  0.69858000  1
  H  H68  1  0.22944500  0.66192000  0.72981300  1
  H  H69  1  0.32956200  0.81915500  0.29950500  1
  H  H70  1  0.38276100  0.76473000  0.30135200  1
  H  H71  1  0.33862200  0.77086600  0.27001800  1
  H  H72  1  0.81931500  0.66991700  0.29960500  1
  H  H73  1  0.76487000  0.61673700  0.30143500  1
  H  H74  1  0.77100900  0.66092600  0.27012000  1
  H  H75  1  0.67009400  0.17959000  0.30004100  1
  H  H76  1  0.61679500  0.23392300  0.30184500  1
  H  H77  1  0.66118300  0.22799600  0.27059200  1
  H  H78  1  0.17975500  0.32938900  0.29994400  1
  H  H79  1  0.23406200  0.38271000  0.30176900  1
  H  H80  1  0.22814700  0.33837700  0.27049500  1
  C  C1  1  0.00144800  0.38993700  0.50010000  1
  C  C2  1  0.61009500  0.00141100  0.49985400  1
  C  C3  1  0.99884300  0.60988200  0.49991400  1
  C  C4  1  0.39015300  0.99846600  0.50015800  1
  C  C5  1  0.49838500  0.88997400  0.99990000  1
  C  C6  1  0.10985100  0.49868600  0.00008400  1
  C  C7  1  0.50132900  0.10991600  0.00008600  1
  C  C8  1  0.88990500  0.50129100  0.99990300  1
  C  C9  1  0.99880900  0.49964500  0.44411400  1
  C  C10  1  0.49992400  0.99860400  0.44411200  1
  C  C11  1  0.00148500  0.50019500  0.55589900  1
  C  C12  1  0.50030000  0.00127600  0.55589800  1
  C  C13  1  0.49858800  0.00023200  0.94410100  1
  C  C14  1  0.00015900  0.50132800  0.94410100  1
  C  C15  1  0.50112300  0.99967900  0.05588700  1
  C  C16  1  0.99962000  0.49865400  0.05588700  1
  C  C17  1  0.03506300  0.46510800  0.19073600  1
  C  C18  1  0.53450600  0.03500900  0.19075600  1
  C  C19  1  0.96399000  0.53335500  0.19067300  1
  C  C20  1  0.46624900  0.96394600  0.19065200  1
  C  C21  1  0.03602700  0.53509300  0.80930200  1
  C  C22  1  0.53360800  0.96518700  0.80932200  1
  C  C23  1  0.96524600  0.46654200  0.80929200  1
  C  C24  1  0.46506800  0.03597800  0.80927000  1
  C  C25  1  0.53531000  0.96654200  0.69072900  1
  C  C26  1  0.03521100  0.53598400  0.69070900  1
  C  C27  1  0.46451700  0.03508100  0.69067700  1
  C  C28  1  0.96666700  0.46519600  0.69069700  1
  C  C29  1  0.53546100  0.03335700  0.30934700  1
  C  C30  1  0.03347900  0.46395100  0.30932800  1
  C  C31  1  0.46439900  0.96509800  0.30924300  1
  C  C32  1  0.96522500  0.53501800  0.30926400  1
  C  C33  1  0.96401800  0.53488400  0.22032300  1
  C  C34  1  0.46467800  0.96394800  0.22030100  1
  C  C35  1  0.03501500  0.46376900  0.22038900  1
  C  C36  1  0.53579800  0.03494000  0.22040900  1
  C  C37  1  0.96527600  0.46513100  0.77963900  1
  C  C38  1  0.46385700  0.03607600  0.77961600  1
  C  C39  1  0.03615300  0.53638100  0.77964900  1
  C  C40  1  0.53510100  0.96519300  0.77967100  1
  C  C41  1  0.46432300  0.03636900  0.72032900  1
  C  C42  1  0.96523900  0.46520600  0.72034900  1
  C  C43  1  0.53520600  0.96512700  0.72038100  1
  C  C44  1  0.03648200  0.53608900  0.72036200  1
  C  C45  1  0.46451600  0.96375900  0.27959000  1
  C  C46  1  0.96386700  0.53495000  0.27961100  1
  C  C47  1  0.53550500  0.03488100  0.27969700  1
  C  C48  1  0.03498900  0.46396000  0.27967700  1
  C  C49  1  0.99949700  0.49936100  0.23522300  1
  C  C50  1  0.50017800  0.99941600  0.23522200  1
  C  C51  1  0.00075100  0.50072800  0.76477700  1
  C  C52  1  0.49955100  0.00066300  0.76477600  1
  C  C53  1  0.49969400  0.00072000  0.73522200  1
  C  C54  1  0.00082400  0.50067400  0.73522300  1
  C  C55  1  0.50006500  0.99935400  0.26477600  1
  C  C56  1  0.99945300  0.49942500  0.26477700  1
  C  C57  1  0.92929200  0.57158800  0.23518100  1
  C  C58  1  0.42795600  0.92920600  0.23513900  1
  C  C59  1  0.06975900  0.42718700  0.23531500  1
  C  C60  1  0.57236400  0.06966600  0.23535600  1
  C  C61  1  0.93056700  0.42847300  0.76474000  1
  C  C62  1  0.42729100  0.07084300  0.76469500  1
  C  C63  1  0.07093500  0.57298400  0.76476000  1
  C  C64  1  0.57179500  0.93046700  0.76480500  1
  C  C65  1  0.42949500  0.07296200  0.73519800  1
  C  C66  1  0.92857500  0.43048300  0.73523700  1
  C  C67  1  0.56987500  0.92846200  0.73530000  1
  C  C68  1  0.07307300  0.57086600  0.73526300  1
  C  C69  1  0.42981700  0.92716600  0.26464300  1
  C  C70  1  0.92727100  0.56968000  0.26468500  1
  C  C71  1  0.57027200  0.07158000  0.26485900  1
  C  C72  1  0.07168700  0.42922700  0.26481900  1
  C  C73  1  0.04811200  0.51031100  0.36872100  1
  C  C74  1  0.48902600  0.04793200  0.36873100  1
  C  C75  1  0.95015100  0.48868000  0.36862400  1
  C  C76  1  0.51069500  0.94997900  0.36861100  1
  C  C77  1  0.04996300  0.48884000  0.63141300  1
  C  C78  1  0.48862100  0.95217700  0.63129900  1
  C  C79  1  0.95236300  0.51203500  0.63129100  1
  C  C80  1  0.51177900  0.04978600  0.63140300  1
  C  C81  1  0.54782100  0.01203600  0.86872600  1
  C  C82  1  0.98883500  0.54981800  0.86858900  1
  C  C83  1  0.45021200  0.98888000  0.86856900  1
  C  C84  1  0.01203700  0.45222000  0.86870800  1
  C  C85  1  0.54967100  0.98868200  0.13139400  1
  C  C86  1  0.98869700  0.45000800  0.13138000  1
  C  C87  1  0.45171800  0.01035000  0.13126200  1
  C  C88  1  0.01032100  0.54797100  0.13127500  1
  C  C89  1  0.04814000  0.50987600  0.39809500  1
  C  C90  1  0.48949300  0.04793900  0.39810600  1
  C  C91  1  0.94988300  0.48917200  0.39799800  1
  C  C92  1  0.51023800  0.94969100  0.39798500  1
  C  C93  1  0.05023200  0.48915000  0.60203900  1
  C  C94  1  0.48908600  0.95213800  0.60192400  1
  C  C95  1  0.95234500  0.51157200  0.60191600  1
  C  C96  1  0.51146700  0.05003400  0.60202900  1
  C  C97  1  0.54779600  0.01158000  0.89810100  1
  C  C98  1  0.98912600  0.55008000  0.89796200  1
  C  C99  1  0.44989900  0.98920100  0.89794300  1
  C  C100  1  0.01155500  0.45219500  0.89808300  1
  C  C101  1  0.54998200  0.98918000  0.10202000  1
  C  C102  1  0.98917300  0.44973300  0.10200600  1
  C  C103  1  0.45173300  0.00992600  0.10188800  1
  C  C104  1  0.00987100  0.54799200  0.10190100  1
  C  C105  1  0.99894900  0.49954600  0.41289100  1
  C  C106  1  0.49987400  0.99874500  0.41289000  1
  C  C107  1  0.00135300  0.50032100  0.58712700  1
  C  C108  1  0.50030200  0.00114300  0.58712600  1
  C  C109  1  0.49876200  0.00035400  0.91287200  1
  C  C110  1  0.00029300  0.50119800  0.91287300  1
  C  C111  1  0.50094100  0.99957800  0.08710900  1
  C  C112  1  0.99953500  0.49879700  0.08710900  1
  C  C113  1  0.99919000  0.49948900  0.35383400  1
  C  C114  1  0.49986500  0.99902700  0.35383300  1
  C  C115  1  0.00110000  0.50047600  0.64618200  1
  C  C116  1  0.50014600  0.00093300  0.64618100  1
  C  C117  1  0.49910100  0.00049000  0.85381800  1
  C  C118  1  0.00048500  0.50096100  0.85381800  1
  C  C119  1  0.50061400  0.99950400  0.14616600  1
  C  C120  1  0.99951000  0.49905200  0.14616600  1
  C  C121  1  0.00132600  0.32961400  0.50019000  1
  C  C122  1  0.67041900  0.00137000  0.49973900  1
  C  C123  1  0.99896300  0.67020500  0.49982600  1
  C  C124  1  0.32983000  0.99850400  0.50027600  1
  C  C125  1  0.49842600  0.82965100  0.99981000  1
  C  C126  1  0.17017300  0.49880600  0.00017100  1
  C  C127  1  0.50129000  0.17023900  0.00017300  1
  C  C128  1  0.82958200  0.50116700  0.99981300  1
  C  C129  1  0.00118000  0.27894600  0.50029000  1
  C  C130  1  0.72108700  0.00126700  0.49963300  1
  C  C131  1  0.99910200  0.72087300  0.49972800  1
  C  C132  1  0.27916100  0.99859600  0.50038400  1
  C  C133  1  0.49852700  0.77898200  0.99971000  1
  C  C134  1  0.22084100  0.49894000  0.00026900  1
  C  C135  1  0.50119600  0.22090800  0.00027100  1
  C  C136  1  0.77891400  0.50101700  0.99971300  1
  C  C137  1  0.00097700  0.21957700  0.50042900  1
  C  C138  1  0.78045800  0.00107700  0.49950000  1
  C  C139  1  0.99929300  0.78024300  0.49959100  1
  C  C140  1  0.21979100  0.99877100  0.50051900  1
  C  C141  1  0.49871600  0.71961200  0.99957100  1
  C  C142  1  0.28021100  0.49912600  0.00040600  1
  C  C143  1  0.50101900  0.28027800  0.00040800  1
  C  C144  1  0.71954500  0.50080800  0.99957400  1
  C  C145  1  0.00079000  0.16890900  0.50056200  1
  C  C146  1  0.83112600  0.00085900  0.49938100  1
  C  C147  1  0.99946900  0.83091100  0.49945800  1
  C  C148  1  0.16912200  0.99897500  0.50063900  1
  C  C149  1  0.49893200  0.66894400  0.99943700  1
  C  C150  1  0.33087900  0.49929600  0.00053900  1
  C  C151  1  0.50081300  0.33094700  0.00054100  1
  C  C152  1  0.66887700  0.50061700  0.99944000  1
  C  C153  1  0.10879900  0.99928200  0.50078700  1
  C  C154  1  0.00056900  0.10858600  0.50073500  1
  C  C155  1  0.89145000  0.00054000  0.49923400  1
  C  C156  1  0.99968100  0.89123400  0.49928500  1
  C  C157  1  0.60855400  0.50039100  0.99926600  1
  C  C158  1  0.49924900  0.60862100  0.99926400  1
  C  C159  1  0.39120100  0.49950200  0.00071300  1
  C  C160  1  0.50050500  0.39127000  0.00071500  1
  C  C161  1  0.90187700  0.66522100  0.22573100  1
  C  C162  1  0.86048000  0.70422600  0.21251900  1
  C  C163  1  0.33434600  0.90176600  0.22564800  1
  C  C164  1  0.29537500  0.86036300  0.21241500  1
  C  C165  1  0.09741800  0.33356900  0.22600300  1
  C  C166  1  0.13895000  0.29460100  0.21287100  1
  C  C167  1  0.66600800  0.09729400  0.22608700  1
  C  C168  1  0.70501500  0.13881500  0.21297700  1
  C  C169  1  0.90302300  0.33484000  0.77409900  1
  C  C170  1  0.86155900  0.29584500  0.78726600  1
  C  C171  1  0.33358700  0.09830300  0.77392800  1
  C  C172  1  0.29448600  0.13969100  0.78707400  1
  C  C173  1  0.09842000  0.66666667  0.77406600  1
  C  C174  1  0.13981400  0.70570400  0.78724700  1
  C  C175  1  0.66539000  0.90289200  0.77423800  1
  C  C176  1  0.70433000  0.86141800  0.78743900  1
  C  C177  1  0.40198700  0.16662000  0.72587900  1
  C  C178  1  0.36060300  0.20565100  0.71267500  1
  C  C179  1  0.83495100  0.40293500  0.72585900  1
  C  C180  1  0.79596800  0.36147600  0.71267900  1
  C  C181  1  0.59741000  0.83482400  0.72595200  1
  C  C182  1  0.63889200  0.79581700  0.71280900  1
  C  C183  1  0.16674500  0.59836800  0.72597700  1
  C  C184  1  0.20579800  0.63977500  0.71280900  1
  C  C185  1  0.40218100  0.83353800  0.27394300  1
  C  C186  1  0.36064000  0.79455000  0.28705200  1
  C  C187  1  0.83365600  0.59733500  0.27400900  1
  C  C188  1  0.79469200  0.63887000  0.28714100  1
  C  C189  1  0.59769400  0.16520700  0.27431900  1
  C  C190  1  0.63907300  0.20420100  0.28755400  1
  C  C191  1  0.16532900  0.40182900  0.27425700  1
  C  C192  1  0.20434700  0.36044400  0.28747000  1
  N  N1  1  0.99952200  0.49917600  0.17660500  1
  N  N2  1  0.50045100  0.99948600  0.17660500  1
  N  N3  1  0.00059500  0.50085300  0.82338700  1
  N  N4  1  0.49927000  0.00055700  0.82338600  1
  N  N5  1  0.49998900  0.00084900  0.67661300  1
  N  N6  1  0.00098100  0.50056000  0.67661300  1
  N  N7  1  0.49990000  0.99917400  0.32339400  1
  N  N8  1  0.99930400  0.49948800  0.32339500  1
  O  O1  1  0.95291300  0.41613400  0.49953100  1
  O  O2  1  0.58395900  0.95284000  0.49934400  1
  O  O3  1  0.04737100  0.58368600  0.50064900  1
  O  O4  1  0.41628900  0.04703100  0.50083500  1
  O  O5  1  0.95024700  0.58386100  0.49919500  1
  O  O6  1  0.58401200  0.04997700  0.50046500  1
  O  O7  1  0.05005200  0.41595700  0.50064800  1
  O  O8  1  0.41623400  0.94990800  0.49937700  1
  O  O9  1  0.44982000  0.91606400  0.99933500  1
  O  O10  1  0.08383000  0.45009100  0.00080400  1
  O  O11  1  0.54988600  0.08382600  0.00082100  1
  O  O12  1  0.91592500  0.54989400  0.99935400  1
  O  O13  1  0.45276400  0.08378800  0.99933400  1
  O  O14  1  0.08365400  0.54721500  0.99934900  1
  O  O15  1  0.54695600  0.91610300  0.00048500  1
  O  O16  1  0.91610300  0.45275700  0.00047100  1
  O  O17  1  0.95024500  0.50062000  0.45738200  1
  O  O18  1  0.49911600  0.95003700  0.45738200  1
  O  O19  1  0.04728200  0.49882600  0.45750100  1
  O  O20  1  0.50078400  0.04707600  0.45750000  1
  O  O21  1  0.95302900  0.50157700  0.54250700  1
  O  O22  1  0.50171200  0.04982400  0.54262500  1
  O  O23  1  0.05002900  0.49861700  0.54262700  1
  O  O24  1  0.49887700  0.95282000  0.54250800  1
  O  O25  1  0.45002400  0.99872000  0.95735600  1
  O  O26  1  0.00154300  0.45287200  0.95749300  1
  O  O27  1  0.54702800  0.00154700  0.95750800  1
  O  O28  1  0.99858200  0.54987200  0.95737300  1
  O  O29  1  0.45266700  0.99892700  0.04248300  1
  O  O30  1  0.99879900  0.54712600  0.04249900  1
  O  O31  1  0.54970600  0.00058800  0.04263400  1
  O  O32  1  0.00059400  0.45008900  0.04261800  1
  O  O33  1  0.07165100  0.43397300  0.17564800  1
  O  O34  1  0.56567100  0.07160200  0.17568700  1
  O  O35  1  0.92741000  0.56439200  0.17552900  1
  O  O36  1  0.43522600  0.92738600  0.17548800  1
  O  O37  1  0.07233000  0.56645600  0.82444500  1
  O  O38  1  0.56486000  0.92881100  0.82447800  1
  O  O39  1  0.92886400  0.43524300  0.82441900  1
  O  O40  1  0.43367200  0.07230100  0.82438200  1
  O  O41  1  0.57173000  0.93524700  0.67562300  1
  O  O42  1  0.06657900  0.57230000  0.67557800  1
  O  O43  1  0.42823900  0.06643200  0.67551300  1
  O  O44  1  0.93537800  0.42882300  0.67555900  1
  O  O45  1  0.57200100  0.06440000  0.32451300  1
  O  O46  1  0.06452900  0.42738400  0.32447300  1
  O  O47  1  0.42778800  0.93395100  0.32430900  1
  O  O48  1  0.93409600  0.57161200  0.32435000  1
  O  O49  1  0.08238600  0.99760800  0.47624100  1
  O  O50  1  0.99867500  0.08214800  0.47620100  1
  O  O51  1  0.91735100  0.99845200  0.47458000  1
  O  O52  1  0.99789600  0.91711000  0.47461900  1
  O  O53  1  0.08289700  0.00136800  0.52544100  1
  O  O54  1  0.00157400  0.91767200  0.52382000  1
  O  O55  1  0.91786300  0.00221200  0.52378000  1
  O  O56  1  0.00235300  0.08271000  0.52540200  1
  O  O57  1  0.58267900  0.50221800  0.97460000  1
  O  O58  1  0.50133700  0.58276300  0.97459900  1
  O  O59  1  0.41764000  0.50143800  0.97617900  1
  O  O60  1  0.50218000  0.41772500  0.97618100  1
  O  O61  1  0.58211500  0.49845400  0.02379900  1
  O  O62  1  0.49841800  0.41712800  0.02538000  1
  O  O63  1  0.41707700  0.49767400  0.02537900  1
  O  O64  1  0.49757500  0.58216600  0.02379800  1
  O  O65  1  0.89759800  0.60938400  0.22101500  1
  O  O66  1  0.94024900  0.68397600  0.24012200  1
  O  O67  1  0.39019100  0.89751000  0.22095300  1
  O  O68  1  0.31555600  0.94012100  0.24003900  1
  O  O69  1  0.10157200  0.38939200  0.22121700  1
  O  O70  1  0.05905400  0.31479000  0.24039100  1
  O  O71  1  0.61019400  0.10147300  0.22127900  1
  O  O72  1  0.68474700  0.05891400  0.24047800  1
  O  O73  1  0.89881800  0.39066500  0.77886700  1
  O  O74  1  0.94138000  0.31608300  0.75969900  1
  O  O75  1  0.38938000  0.10251900  0.77879100  1
  O  O76  1  0.31494400  0.05999500  0.75945700  1
  O  O77  1  0.10261400  0.61084600  0.77889000  1
  O  O78  1  0.06012700  0.68535100  0.75960200  1
  O  O79  1  0.60954900  0.89871100  0.77896400  1
  O  O80  1  0.68420500  0.94123500  0.75984800  1
  O  O81  1  0.39783400  0.11081200  0.72105000  1
  O  O82  1  0.44023500  0.18533500  0.74036700  1
  O  O83  1  0.89078000  0.39873800  0.72110000  1
  O  O84  1  0.81618100  0.44128200  0.74026200  1
  O  O85  1  0.60164900  0.89064900  0.72119200  1
  O  O86  1  0.55901000  0.81607700  0.74032600  1
  O  O87  1  0.11094000  0.60255700  0.72114500  1
  O  O88  1  0.18543800  0.56006900  0.74043800  1
  O  O89  1  0.39798700  0.88935900  0.27872300  1
  O  O90  1  0.44059000  0.81477700  0.25957900  1
  O  O91  1  0.88948200  0.60149800  0.27878400  1
  O  O92  1  0.81487300  0.55895800  0.25963100  1
  O  O93  1  0.60194100  0.10937100  0.27904300  1
  O  O94  1  0.55936600  0.18397200  0.25990200  1
  O  O95  1  0.10949600  0.39754700  0.27898300  1
  O  O96  1  0.18407000  0.44019200  0.25985600  1
