# generated using pymatgen
data_Fe2H24C55(NO4)4
_symmetry_space_group_name_H-M   'P 1'
_cell_length_a   14.33184300
_cell_length_b   14.16368500
_cell_length_c   13.26861300
_cell_angle_alpha   94.15268500
_cell_angle_beta   92.27657700
_cell_angle_gamma   99.55966100
_symmetry_Int_Tables_number   1
_chemical_formula_structural   Fe2H24C55(NO4)4
_chemical_formula_sum   'Fe2 H24 C55 N4 O16'
_cell_volume   2645.37297238
_cell_formula_units_Z   1
loop_
 _symmetry_equiv_pos_site_id
 _symmetry_equiv_pos_as_xyz
  1  'x, y, z'
loop_
 _atom_site_type_symbol
 _atom_site_label
 _atom_site_symmetry_multiplicity
 _atom_site_fract_x
 _atom_site_fract_y
 _atom_site_fract_z
 _atom_site_occupancy
  Fe  Fe1  1  0.49727000  0.99826100  0.31117800  1
  Fe  Fe2  1  0.46586700  0.00179700  0.72107600  1
  H  H1  1  0.86852800  0.03249000  0.37474000  1
  H  H2  1  0.74172300  0.93382900  0.70456900  1
  H  H3  1  0.91140400  0.93002100  0.68480500  1
  H  H4  1  0.09338400  0.96912400  0.65459900  1
  H  H5  1  0.29526700  0.99194800  0.97877100  1
  H  H6  1  0.22152600  0.06660800  0.32502100  1
  H  H7  1  0.05113100  0.07101200  0.34459300  1
  H  H8  1  0.66682800  0.00599600  0.05064700  1
  H  H9  1  0.02018800  0.94568800  0.95791700  1
  H  H10  1  0.94230900  0.05447200  0.07146000  1
  H  H11  1  0.31807700  0.38369700  0.32122100  1
  H  H12  1  0.29089600  0.52110400  0.34327500  1
  H  H13  1  0.31618100  0.68357500  0.30962900  1
  H  H14  1  0.63749700  0.48094900  0.71493000  1
  H  H15  1  0.66626700  0.61895000  0.67629600  1
  H  H16  1  0.33022400  0.22165000  0.32418600  1
  H  H17  1  0.65149500  0.78074300  0.68129800  1
  H  H18  1  0.69897100  0.25125900  0.58682500  1
  H  H19  1  0.71221900  0.14035200  0.64034900  1
  H  H20  1  0.80920500  0.23996400  0.64870200  1
  H  H21  1  0.80191100  0.18510700  0.82809400  1
  H  H22  1  0.76332800  0.24175200  0.99779100  1
  H  H23  1  0.64228600  0.34494500  0.01822900  1
  H  H24  1  0.55805400  0.38898800  0.86913100  1
  C  C1  1  0.70889900  0.96467100  0.86300500  1
  C  C2  1  0.76368600  0.94745200  0.78349000  1
  C  C3  1  0.85427700  0.95441100  0.82320400  1
  C  C4  1  0.76862900  0.98331000  0.94866800  1
  C  C5  1  0.92681300  0.94406700  0.76565500  1
  C  C6  1  0.02700300  0.95796100  0.80044600  1
  C  C7  1  0.10019800  0.96980300  0.73609700  1
  C  C8  1  0.18308300  0.98208900  0.79548600  1
  C  C9  1  0.15666100  0.97839200  0.89550300  1
  C  C10  1  0.22098000  0.99404600  0.98756000  1
  C  C11  1  0.19387000  0.01547500  0.08098500  1
  C  C12  1  0.25358000  0.03284300  0.16686800  1
  C  C13  1  0.19903000  0.05170300  0.24625400  1
  C  C14  1  0.10843700  0.04581700  0.20638600  1
  C  C15  1  0.03575800  0.05696500  0.26373800  1
  C  C16  1  0.93531400  0.04336800  0.22898800  1
  C  C17  1  0.86185800  0.03168800  0.29322400  1
  C  C18  1  0.77889500  0.01890900  0.23361800  1
  C  C19  1  0.80561100  0.02215900  0.13375900  1
  C  C20  1  0.74129600  0.00491700  0.04185900  1
  C  C21  1  0.68487300  0.00626200  0.27731400  1
  C  C22  1  0.46001500  0.81489000  0.36727600  1
  C  C23  1  0.35477800  0.03102300  0.17887800  1
  C  C24  1  0.44144900  0.14097700  0.43233100  1
  C  C25  1  0.36670600  0.27103800  0.38422900  1
  C  C26  1  0.42289100  0.23866900  0.45527300  1
  C  C27  1  0.47186200  0.30347400  0.53083900  1
  C  C28  1  0.51561600  0.27287700  0.61566800  1
  C  C29  1  0.57847500  0.33938800  0.67655900  1
  C  C30  1  0.36080600  0.36618100  0.38321100  1
  C  C31  1  0.41556000  0.43397400  0.45162500  1
  C  C32  1  0.47448600  0.40213800  0.52289100  1
  C  C33  1  0.53583700  0.46878600  0.58636600  1
  C  C34  1  0.34925000  0.56630400  0.38533100  1
  C  C35  1  0.41405700  0.53246800  0.44813800  1
  C  C36  1  0.47858500  0.59920100  0.50816000  1
  C  C37  1  0.36023500  0.66154000  0.36854600  1
  C  C38  1  0.42924800  0.72780700  0.42055700  1
  C  C39  1  0.58976000  0.43507000  0.66089200  1
  C  C40  1  0.54156700  0.56735100  0.57504500  1
  C  C41  1  0.60951400  0.63555400  0.62918400  1
  C  C42  1  0.48090200  0.69795300  0.50044000  1
  C  C43  1  0.53815400  0.76281900  0.56986400  1
  C  C44  1  0.60505600  0.73100900  0.62892300  1
  C  C45  1  0.60762000  0.96474800  0.85116600  1
  C  C46  1  0.52105800  0.85995400  0.59890000  1
  C  C47  1  0.27671400  0.99384500  0.75147600  1
  C  C48  1  0.47831800  0.18293600  0.66113800  1
  C  C49  1  0.63112500  0.31082400  0.76326100  1
  C  C50  1  0.70113500  0.25394800  0.75167600  1
  C  C51  1  0.73119100  0.21973500  0.65066300  1
  C  C52  1  0.74770000  0.22940800  0.83651800  1
  C  C53  1  0.72639100  0.26144700  0.93196100  1
  C  C54  1  0.65871200  0.31926600  0.94339000  1
  C  C55  1  0.61170300  0.34418400  0.85940100  1
  N  N1  1  0.85801900  0.97621300  0.92411400  1
  N  N2  1  0.06113700  0.96097700  0.89656300  1
  N  N3  1  0.10472700  0.02396300  0.10546000  1
  N  N4  1  0.90119700  0.03977800  0.13281500  1
  O  O1  1  0.60660100  0.00968800  0.22356600  1
  O  O2  1  0.46150000  0.80474500  0.26832100  1
  O  O3  1  0.68023500  0.99752100  0.37482900  1
  O  O4  1  0.47772900  0.90193800  0.41261200  1
  O  O5  1  0.37992400  0.95728600  0.22054600  1
  O  O6  1  0.41342600  0.11311100  0.18700500  1
  O  O7  1  0.51938800  0.12824400  0.38763100  1
  O  O8  1  0.37021600  0.06936800  0.42805900  1
  O  O9  1  0.58147900  0.04040700  0.81476600  1
  O  O10  1  0.55083100  0.88172200  0.83642400  1
  O  O11  1  0.44309400  0.87218500  0.64365900  1
  O  O12  1  0.59260800  0.93130200  0.60461900  1
  O  O13  1  0.44735500  0.18866000  0.75278300  1
  O  O14  1  0.35460800  0.99166400  0.80600700  1
  O  O15  1  0.48996200  0.09871500  0.62076300  1
  O  O16  1  0.28148600  0.00083900  0.65369200  1
