# generated using pymatgen
data_Fe2H3C34N2Cl9O16
_symmetry_space_group_name_H-M   'P 1'
_cell_length_a   15.74301000
_cell_length_b   9.50462400
_cell_length_c   17.81336800
_cell_angle_alpha   90.15067800
_cell_angle_beta   100.42290000
_cell_angle_gamma   97.28398500
_symmetry_Int_Tables_number   1
_chemical_formula_structural   Fe2H3C34N2Cl9O16
_chemical_formula_sum   'Fe2 H3 C34 N2 Cl9 O16'
_cell_volume   2599.40874256
_cell_formula_units_Z   1
loop_
 _symmetry_equiv_pos_site_id
 _symmetry_equiv_pos_as_xyz
  1  'x, y, z'
loop_
 _atom_site_type_symbol
 _atom_site_label
 _atom_site_symmetry_multiplicity
 _atom_site_fract_x
 _atom_site_fract_y
 _atom_site_fract_z
 _atom_site_occupancy
  Fe  Fe1  1  0.49543300  0.99910700  0.83058100  1
  Fe  Fe2  1  0.49705300  0.99106800  0.16823600  1
  H  H1  1  0.81338000  0.95239700  0.91247600  1
  H  H2  1  0.77781700  0.00351000  0.17892700  1
  H  H3  1  0.49480000  0.73460200  0.62309300  1
  C  C1  1  0.20695700  0.01773500  0.87742800  1
  C  C2  1  0.12580900  0.01015100  0.89663200  1
  C  C3  1  0.11769900  0.01819100  0.97186200  1
  C  C4  1  0.19051400  0.03577000  0.02852400  1
  C  C5  1  0.27351300  0.04546700  0.01024200  1
  C  C6  1  0.28127400  0.03469100  0.93367800  1
  C  C7  1  0.03277800  0.00582500  0.99183300  1
  C  C8  1  0.96143700  0.99550900  0.00852500  1
  C  C9  1  0.80375900  0.96050600  0.97077700  1
  C  C10  1  0.72082200  0.95403800  0.98754300  1
  C  C11  1  0.71128500  0.96731400  0.06338500  1
  C  C12  1  0.78455900  0.99262400  0.11994800  1
  C  C13  1  0.86664500  0.00080100  0.10229300  1
  C  C14  1  0.87615900  0.98386100  0.02771800  1
  C  C15  1  0.47453600  0.21498500  0.72979000  1
  C  C16  1  0.36645500  0.04450500  0.91031100  1
  C  C17  1  0.64691000  0.94760000  0.92343800  1
  C  C18  1  0.49321200  0.73483900  0.77264300  1
  C  C19  1  0.51594900  0.25956000  0.23222600  1
  C  C20  1  0.35054900  0.05690300  0.07213400  1
  C  C21  1  0.62602100  0.95315800  0.08664100  1
  C  C22  1  0.52624300  0.77822900  0.26978500  1
  C  C23  1  0.49142600  0.60968600  0.72276700  1
  C  C24  1  0.49156500  0.62916800  0.64581100  1
  C  C25  1  0.48790500  0.51570600  0.59619300  1
  C  C26  1  0.48025300  0.37830900  0.62335800  1
  C  C27  1  0.48194400  0.35847400  0.70024600  1
  C  C28  1  0.48819200  0.47245100  0.75015300  1
  C  C29  1  0.52252800  0.36891000  0.36145500  1
  C  C30  1  0.51673300  0.38372000  0.28304900  1
  C  C31  1  0.51366100  0.51892500  0.25340500  1
  C  C32  1  0.52202900  0.63612300  0.30167400  1
  C  C33  1  0.52940400  0.62073700  0.37942600  1
  C  C34  1  0.52587300  0.48526500  0.40903500  1
  N  N1  1  0.48882800  0.54433600  0.51837100  1
  N  N2  1  0.52706700  0.46008800  0.48747400  1
  Cl  Cl1  1  0.21368500  0.01416500  0.78024300  1
  Cl  Cl2  1  0.54694200  0.77608000  0.43708900  1
  Cl  Cl3  1  0.48554500  0.43512300  0.84642700  1
  Cl  Cl4  1  0.50155800  0.54791500  0.15480400  1
  Cl  Cl5  1  0.03266500  0.98992400  0.82498600  1
  Cl  Cl6  1  0.17284600  0.03318900  0.12307500  1
  Cl  Cl7  1  0.95872200  0.03203500  0.17471700  1
  Cl  Cl8  1  0.46400300  0.22576400  0.56364800  1
  Cl  Cl9  1  0.52771900  0.20407900  0.40506400  1
  O  O1  1  0.53318500  0.18272400  0.78705400  1
  O  O2  1  0.42855300  0.14646400  0.93817500  1
  O  O3  1  0.40524900  0.12379200  0.70472500  1
  O  O4  1  0.37887200  0.95510300  0.85817600  1
  O  O5  1  0.57285600  0.98861200  0.93251100  1
  O  O6  1  0.65891000  0.92059100  0.85412500  1
  O  O7  1  0.50048400  0.86320600  0.74561000  1
  O  O8  1  0.48496700  0.72105500  0.84426000  1
  O  O9  1  0.48930800  0.12993500  0.25112700  1
  O  O10  1  0.54339400  0.27714200  0.16724900  1
  O  O11  1  0.41806300  0.99197200  0.06624500  1
  O  O12  1  0.34897600  0.12140600  0.13686800  1
  O  O13  1  0.59581500  0.87097900  0.29087900  1
  O  O14  1  0.61276500  0.03993900  0.13954600  1
  O  O15  1  0.46387800  0.80848800  0.21511100  1
  O  O16  1  0.56638500  0.84657100  0.06046800  1
