# generated using pymatgen
data_Zn3H28(C12O5)3
_symmetry_space_group_name_H-M   'P 1'
_cell_length_a   30.09890200
_cell_length_b   31.36662300
_cell_length_c   21.79724600
_cell_angle_alpha   90.00000000
_cell_angle_beta   133.65460500
_cell_angle_gamma   90.00000000
_symmetry_Int_Tables_number   1
_chemical_formula_structural   Zn3H28(C12O5)3
_chemical_formula_sum   'Zn12 H112 C144 O60'
_cell_volume   14889.05594191
_cell_formula_units_Z   4
loop_
 _symmetry_equiv_pos_site_id
 _symmetry_equiv_pos_as_xyz
  1  'x, y, z'
loop_
 _atom_site_type_symbol
 _atom_site_label
 _atom_site_symmetry_multiplicity
 _atom_site_fract_x
 _atom_site_fract_y
 _atom_site_fract_z
 _atom_site_occupancy
  Zn  Zn1  1  0.71529900  0.71907400  0.93086500  1
  Zn  Zn2  1  0.28470100  0.71907400  0.06913500  1
  Zn  Zn3  1  0.21529900  0.21907400  0.93086500  1
  Zn  Zn4  1  0.78470100  0.21907400  0.06913500  1
  Zn  Zn5  1  0.79019500  0.77974400  0.08023100  1
  Zn  Zn6  1  0.20980500  0.77974400  0.91976800  1
  Zn  Zn7  1  0.29019500  0.27974400  0.08023100  1
  Zn  Zn8  1  0.70980500  0.27974400  0.91976800  1
  Zn  Zn9  1  0.45575400  0.99640000  0.51137000  1
  Zn  Zn10  1  0.54424600  0.99640000  0.48863000  1
  Zn  Zn11  1  0.95575400  0.49640000  0.51137000  1
  Zn  Zn12  1  0.04424600  0.49640000  0.48863000  1
  H  H1  1  0.38394100  0.81511800  0.98700400  1
  H  H2  1  0.61605900  0.81511800  0.01299600  1
  H  H3  1  0.88394100  0.31511800  0.98700400  1
  H  H4  1  0.11605900  0.31511800  0.01299600  1
  H  H5  1  0.39046300  0.67953600  0.00041200  1
  H  H6  1  0.60953700  0.67953600  0.99958800  1
  H  H7  1  0.89046300  0.17953600  0.00041200  1
  H  H8  1  0.10953700  0.17953600  0.99958800  1
  H  H9  1  0.45942900  0.64123900  0.00014600  1
  H  H10  1  0.54057100  0.64123900  0.99985400  1
  H  H11  1  0.95942900  0.14123900  0.00014600  1
  H  H12  1  0.04057100  0.14123900  0.99985400  1
  H  H13  1  0.54325800  0.85340000  0.00543000  1
  H  H14  1  0.45674300  0.85340000  0.99457000  1
  H  H15  1  0.04325800  0.35340000  0.00543000  1
  H  H16  1  0.95674300  0.35340000  0.99457000  1
  H  H17  1  0.53363600  0.88703000  0.67737500  1
  H  H18  1  0.46636400  0.88703100  0.32262500  1
  H  H19  1  0.03363600  0.38703000  0.67737500  1
  H  H20  1  0.96636400  0.38703100  0.32262500  1
  H  H21  1  0.64621100  0.89489500  0.70180200  1
  H  H22  1  0.35378900  0.89489500  0.29819800  1
  H  H23  1  0.14621100  0.39489500  0.70180200  1
  H  H24  1  0.85378900  0.39489500  0.29819800  1
  H  H25  1  0.59211600  0.81504700  0.74541700  1
  H  H26  1  0.40788400  0.81504800  0.25458300  1
  H  H27  1  0.09211600  0.31504700  0.74541700  1
  H  H28  1  0.90788400  0.31504800  0.25458300  1
  H  H29  1  0.17697700  0.74873800  0.13163500  1
  H  H30  1  0.82302300  0.74873800  0.86836500  1
  H  H31  1  0.67697700  0.24873800  0.13163500  1
  H  H32  1  0.32302300  0.24873800  0.86836500  1
  H  H33  1  0.03994400  0.75500400  0.86253900  1
  H  H34  1  0.96005600  0.75500400  0.13746100  1
  H  H35  1  0.53994400  0.25500400  0.86253900  1
  H  H36  1  0.46005600  0.25500400  0.13746100  1
  H  H37  1  0.93400600  0.75345000  0.78852700  1
  H  H38  1  0.06599400  0.75345000  0.21147300  1
  H  H39  1  0.43400600  0.25345000  0.78852700  1
  H  H40  1  0.56599400  0.25345000  0.21147300  1
  H  H41  1  0.97188000  0.61458200  0.34521600  1
  H  H42  1  0.02812000  0.61458200  0.65478400  1
  H  H43  1  0.47188000  0.11458200  0.34521600  1
  H  H44  1  0.52812000  0.11458200  0.65478400  1
  H  H45  1  0.91028600  0.68374300  0.27126300  1
  H  H46  1  0.08971500  0.68374300  0.72873700  1
  H  H47  1  0.41028600  0.18374300  0.27126300  1
  H  H48  1  0.58971500  0.18374300  0.72873700  1
  H  H49  1  0.82097300  0.61571000  0.14052600  1
  H  H50  1  0.17902800  0.61571000  0.85947400  1
  H  H51  1  0.32097300  0.11571000  0.14052600  1
  H  H52  1  0.67902800  0.11571000  0.85947400  1
  H  H53  1  0.85875700  0.68565600  0.79948200  1
  H  H54  1  0.83744100  0.70389700  0.70318000  1
  H  H55  1  0.73201800  0.71919600  0.64045700  1
  H  H56  1  0.75275000  0.66380900  0.67124600  1
  H  H57  1  0.75359500  0.70022700  0.73646900  1
  H  H58  1  0.14124300  0.68565600  0.20051700  1
  H  H59  1  0.16255900  0.70389700  0.29682000  1
  H  H60  1  0.26798200  0.71919600  0.35954300  1
  H  H61  1  0.24725000  0.66380900  0.32875400  1
  H  H62  1  0.24640500  0.70022700  0.26353000  1
  H  H63  1  0.35875700  0.18565600  0.79948200  1
  H  H64  1  0.33744100  0.20389700  0.70318000  1
  H  H65  1  0.23201800  0.21919600  0.64045700  1
  H  H66  1  0.25275000  0.16380900  0.67124600  1
  H  H67  1  0.25359500  0.20022700  0.73646900  1
  H  H68  1  0.64124300  0.18565600  0.20051700  1
  H  H69  1  0.66255900  0.20389700  0.29682000  1
  H  H70  1  0.76798200  0.21919600  0.35954300  1
  H  H71  1  0.74725000  0.16380900  0.32875400  1
  H  H72  1  0.74640500  0.20022700  0.26353000  1
  H  H73  1  0.80839500  0.53099200  0.26211600  1
  H  H74  1  0.82295200  0.54834500  0.19807600  1
  H  H75  1  0.73114000  0.59599100  0.11709400  1
  H  H76  1  0.71175300  0.54069400  0.11230300  1
  H  H77  1  0.71765500  0.57747800  0.18164100  1
  H  H78  1  0.19160500  0.53099200  0.73788400  1
  H  H79  1  0.17704900  0.54834500  0.80192300  1
  H  H80  1  0.26886000  0.59599100  0.88290600  1
  H  H81  1  0.28824700  0.54069400  0.88769700  1
  H  H82  1  0.28234500  0.57747800  0.81835800  1
  H  H83  1  0.30839500  0.03099200  0.26211600  1
  H  H84  1  0.32295200  0.04834500  0.19807600  1
  H  H85  1  0.23114000  0.09599100  0.11709400  1
  H  H86  1  0.21175300  0.04069400  0.11230300  1
  H  H87  1  0.21765500  0.07747800  0.18164100  1
  H  H88  1  0.69160500  0.03099200  0.73788400  1
  H  H89  1  0.67704900  0.04834500  0.80192300  1
  H  H90  1  0.76886000  0.09599100  0.88290600  1
  H  H91  1  0.78824700  0.04069400  0.88769700  1
  H  H92  1  0.78234500  0.07747800  0.81835800  1
  H  H93  1  0.73953100  0.87232000  0.84044800  1
  H  H94  1  0.78591800  0.88177500  0.95221300  1
  H  H95  1  0.76459300  0.95878800  0.92580600  1
  H  H96  1  0.79863200  0.93944500  0.88780100  1
  H  H97  1  0.71716200  0.95048500  0.81361300  1
  H  H98  1  0.26047000  0.87232000  0.15955200  1
  H  H99  1  0.21408200  0.88177500  0.04778700  1
  H  H100  1  0.23540700  0.95878800  0.07419400  1
  H  H101  1  0.20136800  0.93944500  0.11219800  1
  H  H102  1  0.28283800  0.95048500  0.18638700  1
  H  H103  1  0.23953100  0.37232000  0.84044800  1
  H  H104  1  0.28591800  0.38177500  0.95221300  1
  H  H105  1  0.26459300  0.45878800  0.92580600  1
  H  H106  1  0.29863200  0.43944500  0.88780100  1
  H  H107  1  0.21716200  0.45048500  0.81361300  1
  H  H108  1  0.76047000  0.37232000  0.15955200  1
  H  H109  1  0.71408200  0.38177500  0.04778700  1
  H  H110  1  0.73540700  0.45878800  0.07419400  1
  H  H111  1  0.70136800  0.43944500  0.11219800  1
  H  H112  1  0.78283800  0.45048500  0.18638700  1
  C  C1  1  0.69926400  0.81496100  0.90277800  1
  C  C2  1  0.30073600  0.81496100  0.09722100  1
  C  C3  1  0.19926400  0.31496100  0.90277800  1
  C  C4  1  0.80073600  0.31496100  0.09722100  1
  C  C5  1  0.66646000  0.74735400  0.00674200  1
  C  C6  1  0.33354000  0.74735400  0.99325700  1
  C  C7  1  0.16646000  0.24735400  0.00674200  1
  C  C8  1  0.83354000  0.24735400  0.99325700  1
  C  C9  1  0.80662200  0.68388400  0.10826500  1
  C  C10  1  0.19337800  0.68388400  0.89173500  1
  C  C11  1  0.30662200  0.18388400  0.10826500  1
  C  C12  1  0.69337800  0.18388400  0.89173500  1
  C  C13  1  0.83896200  0.75151200  0.00419800  1
  C  C14  1  0.16103800  0.75151200  0.99580200  1
  C  C15  1  0.33896200  0.25151200  0.00419800  1
  C  C16  1  0.66103800  0.25151200  0.99580200  1
  C  C17  1  0.40335800  0.78532400  0.98987200  1
  C  C18  1  0.59664200  0.78532400  0.01012700  1
  C  C19  1  0.90335800  0.28532400  0.98987200  1
  C  C20  1  0.09664200  0.28532400  0.01012700  1
  C  C21  1  0.38195600  0.74731700  0.99306700  1
  C  C22  1  0.61804500  0.74731700  0.00693300  1
  C  C23  1  0.88195600  0.24731700  0.99306700  1
  C  C24  1  0.11804500  0.24731700  0.00693300  1
  C  C25  1  0.40761600  0.70931800  0.99862300  1
  C  C26  1  0.59238400  0.70931800  0.00137600  1
  C  C27  1  0.90761600  0.20931800  0.99862300  1
  C  C28  1  0.09238400  0.20931800  0.00137600  1
  C  C29  1  0.45362100  0.70926500  0.99893600  1
  C  C30  1  0.54637900  0.70926500  0.00106400  1
  C  C31  1  0.95362100  0.20926500  0.99893600  1
  C  C32  1  0.04637900  0.20926500  0.00106400  1
  C  C33  1  0.47630100  0.74732200  0.99841700  1
  C  C34  1  0.52369900  0.74732200  0.00158200  1
  C  C35  1  0.97630100  0.24732200  0.99841700  1
  C  C36  1  0.02369900  0.24732200  0.00158200  1
  C  C37  1  0.45165500  0.78537500  0.99488700  1
  C  C38  1  0.54834600  0.78537500  0.00511300  1
  C  C39  1  0.95165500  0.28537500  0.99488700  1
  C  C40  1  0.04834600  0.28537500  0.00511300  1
  C  C41  1  0.47714200  0.67119700  0.00007600  1
  C  C42  1  0.52285800  0.67119700  0.99992300  1
  C  C43  1  0.97714200  0.17119700  0.00007600  1
  C  C44  1  0.02285800  0.17119700  0.99992300  1
  C  C45  1  0.52439600  0.82344100  0.00310900  1
  C  C46  1  0.47560400  0.82344100  0.99689100  1
  C  C47  1  0.02439600  0.32344100  0.00310900  1
  C  C48  1  0.97560400  0.32344100  0.99689100  1
  C  C49  1  0.58022600  0.88171000  0.70612300  1
  C  C50  1  0.41977400  0.88171000  0.29387700  1
  C  C51  1  0.08022600  0.38171000  0.70612300  1
  C  C52  1  0.91977400  0.38171000  0.29387700  1
  C  C53  1  0.60234200  0.90359400  0.67966800  1
  C  C54  1  0.39765800  0.90359400  0.32033200  1
  C  C55  1  0.10234200  0.40359400  0.67966800  1
  C  C56  1  0.89765800  0.40359400  0.32033200  1
  C  C57  1  0.61470500  0.84578600  0.76492900  1
  C  C58  1  0.38529500  0.84578600  0.23507100  1
  C  C59  1  0.11470500  0.34578600  0.76492900  1
  C  C60  1  0.88529500  0.34578600  0.23507100  1
  C  C61  1  0.66915800  0.85128800  0.84402500  1
  C  C62  1  0.33084200  0.85128800  0.15597500  1
  C  C63  1  0.16915800  0.35128800  0.84402500  1
  C  C64  1  0.83084200  0.35128800  0.15597500  1
  C  C65  1  0.12901500  0.74971800  0.07345000  1
  C  C66  1  0.87098500  0.74971800  0.92654900  1
  C  C67  1  0.62901500  0.24971800  0.07345000  1
  C  C68  1  0.37098500  0.24971800  0.92654900  1
  C  C69  1  0.11326600  0.75185600  0.99724500  1
  C  C70  1  0.88673400  0.75185600  0.00275500  1
  C  C71  1  0.61326600  0.25185600  0.99724500  1
  C  C72  1  0.38673400  0.25185600  0.00275500  1
  C  C73  1  0.05235100  0.75395200  0.92235100  1
  C  C74  1  0.94764900  0.75395200  0.07764800  1
  C  C75  1  0.55235100  0.25395200  0.92235100  1
  C  C76  1  0.44764900  0.25395200  0.07764800  1
  C  C77  1  0.00714600  0.75271600  0.92348900  1
  C  C78  1  0.99285400  0.75271600  0.07651100  1
  C  C79  1  0.50714600  0.25271600  0.92348900  1
  C  C80  1  0.49285400  0.25271600  0.07651100  1
  C  C81  1  0.02276100  0.75154700  0.99965400  1
  C  C82  1  0.97723900  0.75154700  0.00034500  1
  C  C83  1  0.52276100  0.25154700  0.99965400  1
  C  C84  1  0.47723900  0.25154700  0.00034500  1
  C  C85  1  0.08384200  0.75053800  0.07500000  1
  C  C86  1  0.91615800  0.75053800  0.92500000  1
  C  C87  1  0.58384200  0.25053800  0.07500000  1
  C  C88  1  0.41615800  0.25053800  0.92500000  1
  C  C89  1  0.94625500  0.75249600  0.84824100  1
  C  C90  1  0.05374500  0.75249600  0.15175800  1
  C  C91  1  0.44625500  0.25249600  0.84824100  1
  C  C92  1  0.55374500  0.25249600  0.15175800  1
  C  C93  1  0.90070700  0.75034900  0.84864200  1
  C  C94  1  0.09929300  0.75034900  0.15135800  1
  C  C95  1  0.40070700  0.25034900  0.84864200  1
  C  C96  1  0.59929300  0.25034900  0.15135800  1
  C  C97  1  0.92259500  0.61579600  0.30482200  1
  C  C98  1  0.07740500  0.61579600  0.69517700  1
  C  C99  1  0.42259500  0.11579600  0.30482200  1
  C  C100  1  0.57740500  0.11579600  0.69517700  1
  C  C101  1  0.89589100  0.58794800  0.31737800  1
  C  C102  1  0.10410900  0.58794800  0.68262200  1
  C  C103  1  0.39589100  0.08794800  0.31737800  1
  C  C104  1  0.60410900  0.08794800  0.68262200  1
  C  C105  1  0.88921900  0.65254500  0.24769100  1
  C  C106  1  0.11078100  0.65254500  0.75230900  1
  C  C107  1  0.38921900  0.15254500  0.24769100  1
  C  C108  1  0.61078100  0.15254500  0.75230900  1
  C  C109  1  0.83801300  0.64743600  0.16614600  1
  C  C110  1  0.16198700  0.64743600  0.83385400  1
  C  C111  1  0.33801300  0.14743600  0.16614600  1
  C  C112  1  0.66198700  0.14743600  0.83385400  1
  C  C113  1  0.06660300  0.55534000  0.61641300  1
  C  C114  1  0.93339700  0.55534000  0.38358700  1
  C  C115  1  0.56660300  0.05534000  0.61641300  1
  C  C116  1  0.43339700  0.05534000  0.38358700  1
  C  C117  1  0.56630100  0.93727700  0.61592000  1
  C  C118  1  0.43369900  0.93727700  0.38408000  1
  C  C119  1  0.06630100  0.43727700  0.61592000  1
  C  C120  1  0.93369900  0.43727700  0.38408000  1
  C  C121  1  0.82877900  0.70772200  0.74476000  1
  C  C122  1  0.76234800  0.69703100  0.69491400  1
  C  C123  1  0.17122100  0.70772200  0.25524000  1
  C  C124  1  0.23765200  0.69703100  0.30508600  1
  C  C125  1  0.32877900  0.20772200  0.74476000  1
  C  C126  1  0.26234800  0.19703100  0.69491400  1
  C  C127  1  0.67122100  0.20772200  0.25524000  1
  C  C128  1  0.73765200  0.19703100  0.30508600  1
  C  C129  1  0.80417500  0.55791500  0.22541700  1
  C  C130  1  0.73673800  0.56877300  0.15436000  1
  C  C131  1  0.19582500  0.55791500  0.77458300  1
  C  C132  1  0.26326200  0.56877300  0.84564000  1
  C  C133  1  0.30417500  0.05791500  0.22541700  1
  C  C134  1  0.23673800  0.06877300  0.15436000  1
  C  C135  1  0.69582500  0.05791500  0.77458300  1
  C  C136  1  0.76326200  0.06877300  0.84564000  1
  C  C137  1  0.74562900  0.89289800  0.88716100  1
  C  C138  1  0.75721500  0.93839400  0.87787600  1
  C  C139  1  0.25437100  0.89289800  0.11283800  1
  C  C140  1  0.24278500  0.93839400  0.12212400  1
  C  C141  1  0.24562900  0.39289800  0.88716100  1
  C  C142  1  0.25721500  0.43839400  0.87787600  1
  C  C143  1  0.75437100  0.39289800  0.11283800  1
  C  C144  1  0.74278500  0.43839400  0.12212400  1
  O  O1  1  0.68222500  0.77624100  0.87122500  1
  O  O2  1  0.31777500  0.77624100  0.12877500  1
  O  O3  1  0.18222500  0.27624100  0.87122500  1
  O  O4  1  0.81777500  0.27624100  0.12877500  1
  O  O5  1  0.74226000  0.82279000  0.98439600  1
  O  O6  1  0.25774000  0.82279000  0.01560400  1
  O  O7  1  0.24226000  0.32279000  0.98439600  1
  O  O8  1  0.75774000  0.32279000  0.01560400  1
  O  O9  1  0.65912900  0.72324000  0.95119500  1
  O  O10  1  0.34087100  0.72324000  0.04880400  1
  O  O11  1  0.15912900  0.22324000  0.95119500  1
  O  O12  1  0.84087100  0.22324000  0.04880400  1
  O  O13  1  0.71448600  0.77195300  0.06096700  1
  O  O14  1  0.28551400  0.77195300  0.93903300  1
  O  O15  1  0.21448600  0.27195300  0.06096700  1
  O  O16  1  0.78551400  0.27195300  0.93903300  1
  O  O17  1  0.76420800  0.67601300  0.02665100  1
  O  O18  1  0.23579200  0.67601300  0.97334900  1
  O  O19  1  0.26420800  0.17601300  0.02665100  1
  O  O20  1  0.73579200  0.17601300  0.97334900  1
  O  O21  1  0.82252200  0.72257500  0.14002900  1
  O  O22  1  0.17747800  0.72257500  0.85997100  1
  O  O23  1  0.32252200  0.22257500  0.14002900  1
  O  O24  1  0.67747800  0.22257500  0.85997100  1
  O  O25  1  0.79029900  0.72764500  0.94874700  1
  O  O26  1  0.20970100  0.72764500  0.05125200  1
  O  O27  1  0.29029900  0.22764500  0.94874700  1
  O  O28  1  0.70970100  0.22764500  0.05125200  1
  O  O29  1  0.84708100  0.77482400  0.06122400  1
  O  O30  1  0.15291900  0.77482400  0.93877600  1
  O  O31  1  0.34708100  0.27482400  0.06122400  1
  O  O32  1  0.65291900  0.27482400  0.93877600  1
  O  O33  1  0.01611800  0.54207300  0.59519300  1
  O  O34  1  0.98388200  0.54207300  0.40480700  1
  O  O35  1  0.51611800  0.04207300  0.59519300  1
  O  O36  1  0.48388200  0.04207300  0.40480700  1
  O  O37  1  0.08571200  0.54060200  0.58170500  1
  O  O38  1  0.91428800  0.54060200  0.41829400  1
  O  O39  1  0.58571200  0.04060200  0.58170500  1
  O  O40  1  0.41428800  0.04060200  0.41829400  1
  O  O41  1  0.51614900  0.95075900  0.59527600  1
  O  O42  1  0.48385100  0.95075900  0.40472400  1
  O  O43  1  0.01614900  0.45075900  0.59527600  1
  O  O44  1  0.98385100  0.45075900  0.40472400  1
  O  O45  1  0.58569600  0.95215000  0.58160700  1
  O  O46  1  0.41430400  0.95215000  0.41839300  1
  O  O47  1  0.08569600  0.45215000  0.58160700  1
  O  O48  1  0.91430400  0.45215000  0.41839300  1
  O  O49  1  0.84049900  0.74982000  0.77327400  1
  O  O50  1  0.15950100  0.74982000  0.22672500  1
  O  O51  1  0.34049900  0.24982000  0.77327400  1
  O  O52  1  0.65950100  0.24982000  0.22672500  1
  O  O53  1  0.83588200  0.59349500  0.27791000  1
  O  O54  1  0.16411800  0.59349500  0.72209000  1
  O  O55  1  0.33588200  0.09349500  0.27791000  1
  O  O56  1  0.66411800  0.09349500  0.72209000  1
  O  O57  1  0.69295400  0.89157000  0.87359600  1
  O  O58  1  0.30704600  0.89157000  0.12640400  1
  O  O59  1  0.19295400  0.39157000  0.87359600  1
  O  O60  1  0.80704600  0.39157000  0.12640400  1
