# generated using pymatgen
data_Cu3H25C37(NO7)2
_symmetry_space_group_name_H-M   'P 1'
_cell_length_a   18.80713000
_cell_length_b   18.65003900
_cell_length_c   18.67921600
_cell_angle_alpha   109.26598800
_cell_angle_beta   109.61041500
_cell_angle_gamma   109.64057900
_symmetry_Int_Tables_number   1
_chemical_formula_structural   Cu3H25C37(NO7)2
_chemical_formula_sum   'Cu6 H50 C74 N4 O28'
_cell_volume   5037.09013306
_cell_formula_units_Z   2
loop_
 _symmetry_equiv_pos_site_id
 _symmetry_equiv_pos_as_xyz
  1  'x, y, z'
loop_
 _atom_site_type_symbol
 _atom_site_label
 _atom_site_symmetry_multiplicity
 _atom_site_fract_x
 _atom_site_fract_y
 _atom_site_fract_z
 _atom_site_occupancy
  Cu  Cu1  1  0.48750700  0.44039400  0.43431000  1
  Cu  Cu2  1  0.48628500  0.55856000  0.55574500  1
  Cu  Cu3  1  0.93066400  0.43229100  0.98943700  1
  Cu  Cu4  1  0.04604200  0.55629000  0.98710600  1
  Cu  Cu5  1  0.04544200  0.99257100  0.54373100  1
  Cu  Cu6  1  0.92270400  0.99215300  0.42565700  1
  H  H1  1  0.53868100  0.19659400  0.51842400  1
  H  H2  1  0.69761300  0.65938600  0.72426100  1
  H  H3  1  0.80997100  0.78962600  0.86125300  1
  H  H4  1  0.91877100  0.78435500  0.97318300  1
  H  H5  1  0.91439500  0.64833200  0.94822600  1
  H  H6  1  0.77474400  0.32778000  0.75684400  1
  H  H7  1  0.65464100  0.19388800  0.62542200  1
  H  H8  1  0.54171800  0.33188700  0.54206500  1
  H  H9  1  0.21894500  0.37179400  0.48515800  1
  H  H10  1  0.10316700  0.25534900  0.47960100  1
  H  H11  1  0.30222900  0.11858500  0.54513900  1
  H  H12  1  0.24275300  0.05712200  0.42141700  1
  H  H13  1  0.41517500  0.23290000  0.54844700  1
  H  H14  1  0.35741600  0.17141200  0.42469300  1
  H  H15  1  0.37279800  0.64597900  0.37131400  1
  H  H16  1  0.05523600  0.31160200  0.12849300  1
  H  H17  1  0.11212100  0.30484300  0.06250500  1
  H  H18  1  0.16799900  0.31154900  0.24041800  1
  H  H19  1  0.22488200  0.30453100  0.17430200  1
  H  H20  1  0.84592600  0.89967000  0.62618800  1
  H  H21  1  0.68235500  0.69958400  0.28750200  1
  H  H22  1  0.75798300  0.65674000  0.32142000  1
  H  H23  1  0.57241300  0.59101900  0.29396600  1
  H  H24  1  0.64808400  0.54807000  0.32760500  1
  H  H25  1  0.12777700  0.27164800  0.73113400  1
  H  H26  1  0.82237700  0.04602500  0.65421400  1
  H  H27  1  0.78977400  0.20215100  0.69967200  1
  H  H28  1  0.82675200  0.15728400  0.77199000  1
  H  H29  1  0.99640200  0.76236400  0.11518000  1
  H  H30  1  0.99248600  0.87395000  0.22568000  1
  H  H31  1  0.01907300  0.71526900  0.41114400  1
  H  H32  1  0.89686100  0.66225200  0.34356800  1
  H  H33  1  0.01573700  0.60032100  0.29818100  1
  H  H34  1  0.89382200  0.54791300  0.23020500  1
  H  H35  1  0.32756100  0.71469300  0.28403500  1
  H  H36  1  0.29842800  0.82742300  0.32281400  1
  H  H37  1  0.26963900  0.82103700  0.40463900  1
  H  H38  1  0.18798200  0.79536100  0.30026100  1
  H  H39  1  0.68463900  0.82310900  0.64798800  1
  H  H40  1  0.75936600  0.88503500  0.81861400  1
  H  H41  1  0.80582400  0.96747000  0.79179200  1
  H  H42  1  0.87633000  0.94506000  0.86343000  1
  H  H43  1  0.19000200  0.42814200  0.83714100  1
  H  H44  1  0.30520000  0.53969400  0.01465600  1
  H  H45  1  0.32768400  0.45831300  0.95759000  1
  H  H46  1  0.31954200  0.46570100  0.05333400  1
  H  H47  1  0.73177200  0.01580700  0.51296900  1
  H  H48  1  0.68124400  0.03696900  0.39818800  1
  H  H49  1  0.76683400  0.13035200  0.41098100  1
  H  H50  1  0.68069000  0.13921600  0.42878300  1
  C  C1  1  0.36699900  0.37927600  0.48922100  1
  C  C2  1  0.60143400  0.49616000  0.61171100  1
  C  C3  1  0.60602500  0.62013200  0.49996500  1
  C  C4  1  0.37332400  0.50333500  0.37850600  1
  C  C5  1  0.74221500  0.65217000  0.77151300  1
  C  C6  1  0.80703500  0.72777500  0.84925800  1
  C  C7  1  0.86792400  0.72486500  0.91197400  1
  C  C8  1  0.86482300  0.64641200  0.89671600  1
  C  C9  1  0.79957600  0.56902200  0.81878500  1
  C  C10  1  0.73600700  0.57141800  0.75630400  1
  C  C11  1  0.79735200  0.48987200  0.80387100  1
  C  C12  1  0.72933700  0.41244700  0.72733300  1
  C  C13  1  0.66462400  0.41429400  0.66544600  1
  C  C14  1  0.66823500  0.49394900  0.67916500  1
  C  C15  1  0.72557100  0.33265300  0.71164600  1
  C  C16  1  0.65759600  0.25575100  0.63679000  1
  C  C17  1  0.59264000  0.25719100  0.57675200  1
  C  C18  1  0.59569900  0.33552200  0.59082600  1
  C  C19  1  0.29865200  0.23624900  0.48250700  1
  C  C20  1  0.29671600  0.30984300  0.48494300  1
  C  C21  1  0.22472700  0.31574400  0.48399500  1
  C  C22  1  0.15837500  0.24901900  0.48017600  1
  C  C23  1  0.16451700  0.17685300  0.48020900  1
  C  C24  1  0.23694200  0.17425100  0.48179100  1
  C  C25  1  0.28008400  0.12085300  0.48332500  1
  C  C26  1  0.35308000  0.19417500  0.48511700  1
  C  C27  1  0.23540400  0.43044400  0.23953900  1
  C  C28  1  0.30815100  0.50576300  0.31096600  1
  C  C29  1  0.31647000  0.58443800  0.31638000  1
  C  C30  1  0.25308700  0.58544600  0.25140700  1
  C  C31  1  0.17926800  0.50651200  0.17997900  1
  C  C32  1  0.17383600  0.43082900  0.17877800  1
  C  C33  1  0.11733000  0.33377000  0.12752100  1
  C  C34  1  0.18967600  0.33350300  0.19928400  1
  C  C35  1  0.68113500  0.67338200  0.42720300  1
  C  C36  1  0.67467000  0.68934200  0.50139100  1
  C  C37  1  0.73585700  0.77297900  0.57509900  1
  C  C38  1  0.80040800  0.83391200  0.57088300  1
  C  C39  1  0.80385100  0.81363900  0.49431200  1
  C  C40  1  0.74085800  0.73256700  0.42339200  1
  C  C41  1  0.71001800  0.67517300  0.33003600  1
  C  C42  1  0.63947800  0.60545500  0.33417300  1
  C  C43  1  0.99381600  0.37893300  0.87412500  1
  C  C44  1  0.86674300  0.48852800  0.86935600  1
  C  C45  1  0.98375500  0.60913100  0.10335900  1
  C  C46  1  0.10981700  0.50210900  0.10922400  1
  C  C47  1  0.98899900  0.11154500  0.60407800  1
  C  C48  1  0.09802700  0.10817800  0.48050400  1
  C  C49  1  0.97934200  0.87319400  0.36549200  1
  C  C50  1  0.87016100  0.87760800  0.48972400  1
  C  C51  1  0.92386200  0.23056600  0.74788300  1
  C  C52  1  0.99706500  0.31168600  0.80831800  1
  C  C53  1  0.07218000  0.32548000  0.80181600  1
  C  C54  1  0.06921800  0.25997200  0.73501500  1
  C  C55  1  0.99238800  0.18076300  0.67340200  1
  C  C56  1  0.92102300  0.16989400  0.68265800  1
  C  C57  1  0.82914800  0.10433600  0.64710400  1
  C  C58  1  0.83156800  0.17568000  0.72238900  1
  C  C59  1  0.97040600  0.66781700  0.23551400  1
  C  C60  1  0.98045800  0.67588900  0.16863000  1
  C  C61  1  0.98877400  0.75195400  0.16633500  1
  C  C62  1  0.98612600  0.81554400  0.22909100  1
  C  C63  1  0.97870100  0.80572500  0.29712500  1
  C  C64  1  0.97184100  0.73028200  0.29740600  1
  C  C65  1  0.96044200  0.68232600  0.34579000  1
  C  C66  1  0.95858300  0.60880000  0.27305500  1
  C  C67  1  0.22230900  0.69684400  0.29669900  1
  C  C68  1  0.24635000  0.79106100  0.33333333  1
  C  C69  1  0.80288000  0.84737300  0.72800300  1
  C  C70  1  0.81161100  0.91550100  0.80538200  1
  C  C71  1  0.19833000  0.40807100  0.93748500  1
  C  C72  1  0.29376400  0.47201400  0.99430200  1
  C  C73  1  0.77658800  0.14058400  0.53141100  1
  C  C74  1  0.72292100  0.10951600  0.43645900  1
  N  N1  1  0.26478900  0.66731500  0.26014100  1
  N  N2  1  0.72755300  0.80006200  0.65058000  1
  N  N3  1  0.15237800  0.40478800  0.86218700  1
  N  N4  1  0.76895600  0.08140900  0.55968500  1
  O  O1  1  0.41519200  0.35872300  0.45794600  1
  O  O2  1  0.37875600  0.45948700  0.52401500  1
  O  O3  1  0.59180100  0.46572800  0.53227600  1
  O  O4  1  0.55362600  0.52782500  0.63294600  1
  O  O5  1  0.55948200  0.54075700  0.42985700  1
  O  O6  1  0.59386500  0.63897700  0.56807500  1
  O  O7  1  0.38305900  0.43374900  0.35548600  1
  O  O8  1  0.41929700  0.57069700  0.45938100  1
  O  O9  1  0.92542000  0.35446600  0.88515000  1
  O  O10  1  0.05808300  0.46121800  0.91809600  1
  O  O11  1  0.84737400  0.45341200  0.91600700  1
  O  O12  1  0.94612800  0.52481900  0.88044200  1
  O  O13  1  0.95407900  0.52942600  0.09353200  1
  O  O14  1  0.01609200  0.63196900  0.05663800  1
  O  O15  1  0.03192200  0.43069100  0.06274400  1
  O  O16  1  0.12786200  0.56871000  0.09427600  1
  O  O17  1  0.05777900  0.10091700  0.62323600  1
  O  O18  1  0.91775000  0.06317600  0.52564500  1
  O  O19  1  0.12050900  0.06004600  0.51146500  1
  O  O20  1  0.01887600  0.09826500  0.45088900  1
  O  O21  1  0.01359200  0.88415000  0.44541800  1
  O  O22  1  0.94727700  0.92119200  0.34457800  1
  O  O23  1  0.95082200  0.92523400  0.55724800  1
  O  O24  1  0.84600300  0.88612600  0.41927200  1
  O  O25  1  0.16415800  0.64657400  0.30040200  1
  O  O26  1  0.86313500  0.83339300  0.73549200  1
  O  O27  1  0.16215900  0.35872400  0.95921400  1
  O  O28  1  0.82435300  0.21936200  0.58215700  1
