# generated using pymatgen
data_Cu3H2C31(NO3)4
_symmetry_space_group_name_H-M   'P 1'
_cell_length_a   41.89167800
_cell_length_b   28.84748100
_cell_length_c   29.34518800
_cell_angle_alpha   90.00000000
_cell_angle_beta   45.26495900
_cell_angle_gamma   90.00000000
_symmetry_Int_Tables_number   1
_chemical_formula_structural   Cu3H2C31(NO3)4
_chemical_formula_sum   'Cu12 H8 C124 N16 O48'
_cell_volume   25191.65189408
_cell_formula_units_Z   4
loop_
 _symmetry_equiv_pos_site_id
 _symmetry_equiv_pos_as_xyz
  1  'x, y, z'
loop_
 _atom_site_type_symbol
 _atom_site_label
 _atom_site_symmetry_multiplicity
 _atom_site_fract_x
 _atom_site_fract_y
 _atom_site_fract_z
 _atom_site_occupancy
  Cu  Cu1  1  0.99176700  0.54598300  0.50959800  1
  Cu  Cu2  1  0.99239400  0.45359600  0.50893400  1
  Cu  Cu3  1  0.49149600  0.04582800  0.50986200  1
  Cu  Cu4  1  0.49268400  0.95344700  0.50869600  1
  Cu  Cu5  1  0.50873900  0.49970400  0.04662100  1
  Cu  Cu6  1  0.00874700  0.99948700  0.04661500  1
  Cu  Cu7  1  0.52298100  0.49963500  0.94255200  1
  Cu  Cu8  1  0.02297000  0.99946900  0.94256300  1
  Cu  Cu9  1  0.04276000  0.49954700  0.95916700  1
  Cu  Cu10  1  0.54275700  0.99990100  0.95917000  1
  Cu  Cu11  1  0.95329500  0.49939500  0.04745200  1
  Cu  Cu12  1  0.45329200  0.99946800  0.04751500  1
  H  H1  1  0.21433400  0.42625700  0.28497200  1
  H  H2  1  0.22279300  0.57572100  0.26165100  1
  H  H3  1  0.71437100  0.92704700  0.28462800  1
  H  H4  1  0.72268800  0.07660900  0.26202200  1
  H  H5  1  0.28651700  0.42574100  0.19705500  1
  H  H6  1  0.29521500  0.57521500  0.20305600  1
  H  H7  1  0.78658900  0.92647700  0.19714300  1
  H  H8  1  0.79516300  0.07602900  0.20291800  1
  C  C1  1  0.99682700  0.49978700  0.59253000  1
  C  C2  1  0.49677900  0.99972800  0.59260300  1
  C  C3  1  0.07756900  0.50041800  0.41734800  1
  C  C4  1  0.57757400  0.00082000  0.41740600  1
  C  C5  1  0.98768800  0.49979000  0.42554000  1
  C  C6  1  0.48775400  0.99955100  0.42549400  1
  C  C7  1  0.90657000  0.49916700  0.60047600  1
  C  C8  1  0.40658300  0.99846100  0.60042600  1
  C  C9  1  0.22993800  0.54648100  0.27774600  1
  C  C10  1  0.22967600  0.45816400  0.28362900  1
  C  C11  1  0.72994800  0.04725700  0.27784000  1
  C  C12  1  0.72962500  0.95891300  0.28355200  1
  C  C13  1  0.27975500  0.45498200  0.22724700  1
  C  C14  1  0.28011600  0.54328700  0.23251100  1
  C  C15  1  0.77971300  0.95578700  0.22732800  1
  C  C16  1  0.78014900  0.04411500  0.23242300  1
  C  C17  1  0.38450500  0.50043900  0.10547100  1
  C  C18  1  0.88449900  0.00070000  0.10549400  1
  C  C19  1  0.21300700  0.50091600  0.27419000  1
  C  C20  1  0.71300100  0.00175200  0.27417800  1
  C  C21  1  0.29639300  0.50054900  0.18965000  1
  C  C22  1  0.79638600  0.00131600  0.18965200  1
  C  C23  1  0.27982900  0.50345400  0.15684500  1
  C  C24  1  0.77984000  0.00419100  0.15682000  1
  C  C25  1  0.22884400  0.49803200  0.20852700  1
  C  C26  1  0.72883700  0.99897800  0.20850700  1
  C  C27  1  0.34465500  0.50045700  0.14205500  1
  C  C28  1  0.84465000  0.00105800  0.14206300  1
  C  C29  1  0.16475500  0.50095700  0.32408100  1
  C  C30  1  0.66475200  0.00177900  0.32407400  1
  C  C31  1  0.12482000  0.50075400  0.36653300  1
  C  C32  1  0.62481900  0.00144300  0.36654800  1
  C  C33  1  0.99860900  0.49976800  0.64075800  1
  C  C34  1  0.49853300  0.99976700  0.64085800  1
  C  C35  1  0.99949500  0.49973800  0.68160900  1
  C  C36  1  0.49940200  0.99979000  0.68172700  1
  C  C37  1  0.00011500  0.49970700  0.73020800  1
  C  C38  1  0.50000700  0.99980700  0.73033900  1
  C  C39  1  0.00040100  0.49969300  0.77167200  1
  C  C40  1  0.50028700  0.99982100  0.77180900  1
  C  C41  1  0.00047700  0.49968400  0.82082000  1
  C  C42  1  0.50036700  0.99983700  0.82095500  1
  C  C43  1  0.00027500  0.49967800  0.86277400  1
  C  C44  1  0.50018100  0.99984900  0.86289400  1
  C  C45  1  0.85966500  0.49885200  0.65492400  1
  C  C46  1  0.35967500  0.99786100  0.65482500  1
  C  C47  1  0.82017400  0.49868200  0.70134700  1
  C  C48  1  0.32018100  0.99755500  0.70122200  1
  C  C49  1  0.77394100  0.49858700  0.75471300  1
  C  C50  1  0.27394700  0.99746200  0.75458700  1
  C  C51  1  0.73405900  0.49858300  0.79844700  1
  C  C52  1  0.23406600  0.99758900  0.79833800  1
  C  C53  1  0.68734200  0.49866000  0.84609300  1
  C  C54  1  0.18734900  0.99793400  0.84601700  1
  C  C55  1  0.64739800  0.49878000  0.88344400  1
  C  C56  1  0.14740400  0.99833900  0.88339400  1
  C  C57  1  0.98824000  0.49980300  0.37494500  1
  C  C58  1  0.48833400  0.99955600  0.37486900  1
  C  C59  1  0.98929100  0.49979300  0.33215500  1
  C  C60  1  0.48940400  0.99958500  0.33206100  1
  C  C61  1  0.99090400  0.49976500  0.28134300  1
  C  C62  1  0.49102700  0.99963800  0.28124000  1
  C  C63  1  0.99236900  0.49973500  0.23814800  1
  C  C64  1  0.49248900  0.99969300  0.23804900  1
  C  C65  1  0.99404800  0.49969900  0.18727200  1
  C  C66  1  0.49415100  0.99976400  0.18719200  1
  C  C67  1  0.99529700  0.49967700  0.14428900  1
  C  C68  1  0.49538100  0.99982200  0.14423100  1
  C  C69  1  0.51509400  0.58856800  0.99547700  1
  C  C70  1  0.51394800  0.41079600  0.99591100  1
  C  C71  1  0.01513800  0.08837400  0.99482600  1
  C  C72  1  0.01390400  0.91060400  0.99656600  1
  C  C73  1  0.43133400  0.50033400  0.06553200  1
  C  C74  1  0.93132700  0.00012800  0.06555900  1
  C  C75  1  0.60045500  0.49897500  0.92359100  1
  C  C76  1  0.10046000  0.99887700  0.92356200  1
  C  C77  1  0.99953700  0.41049300  0.00165500  1
  C  C78  1  0.99860600  0.58846600  0.00257400  1
  C  C79  1  0.49979800  0.91071100  0.00146200  1
  C  C80  1  0.49833700  0.08868000  0.00283100  1
  C  C81  1  0.99959900  0.49967400  0.91350100  1
  C  C82  1  0.49953800  0.99985800  0.91359100  1
  C  C83  1  0.99637600  0.49966600  0.09317200  1
  C  C84  1  0.49643000  0.99987900  0.09314600  1
  C  C85  1  0.51263500  0.63824400  0.99731700  1
  C  C86  1  0.51098300  0.36115200  0.99831100  1
  C  C87  1  0.01253200  0.13804000  0.99688400  1
  C  C88  1  0.01108200  0.86094900  0.99875900  1
  C  C89  1  0.51013100  0.67992900  0.99880700  1
  C  C90  1  0.50819100  0.31948600  0.00014600  1
  C  C91  1  0.00988600  0.17971500  0.99857300  1
  C  C92  1  0.00843000  0.81927400  0.00039600  1
  C  C93  1  0.50701000  0.72875400  0.00033500  1
  C  C94  1  0.50487800  0.27067200  0.00195900  1
  C  C95  1  0.00662500  0.22852900  0.00031700  1
  C  C96  1  0.00525900  0.77045000  0.00197500  1
  C  C97  1  0.00402400  0.27019400  0.00148200  1
  C  C98  1  0.00275200  0.72877900  0.00296600  1
  C  C99  1  0.50447400  0.77042200  0.00135200  1
  C  C100  1  0.50230200  0.22900300  0.00311500  1
  C  C101  1  0.00147300  0.31904900  0.00234600  1
  C  C102  1  0.00032900  0.67991800  0.00360800  1
  C  C103  1  0.50192400  0.81927500  0.00211500  1
  C  C104  1  0.49987200  0.18013900  0.00387600  1
  C  C105  1  0.00002700  0.36077500  0.00247600  1
  C  C106  1  0.99898800  0.63818800  0.00356400  1
  C  C107  1  0.50041800  0.86099700  0.00222800  1
  C  C108  1  0.49858900  0.13840400  0.00386200  1
  C  C109  1  0.29310200  0.54285900  0.26765000  1
  C  C110  1  0.30252700  0.44293500  0.24706400  1
  C  C111  1  0.79327500  0.04386300  0.26738100  1
  C  C112  1  0.80235400  0.94388900  0.24738500  1
  C  C113  1  0.20787700  0.55851100  0.34299300  1
  C  C114  1  0.21745900  0.45854500  0.34429500  1
  C  C115  1  0.70800700  0.05904000  0.34308900  1
  C  C116  1  0.71723300  0.95902400  0.34434900  1
  C  C117  1  0.20768800  0.53445100  0.20230300  1
  C  C118  1  0.21588100  0.45358100  0.20119100  1
  C  C119  1  0.70784400  0.03558000  0.20223600  1
  C  C120  1  0.71569400  0.95465700  0.20118900  1
  C  C121  1  0.29247700  0.54792100  0.12359600  1
  C  C122  1  0.30055300  0.46703900  0.10821300  1
  C  C123  1  0.79268600  0.04854800  0.12327400  1
  C  C124  1  0.80041900  0.96762500  0.10842200  1
  N  N1  1  0.30357000  0.54287000  0.29512400  1
  N  N2  1  0.32073800  0.43312800  0.26226400  1
  N  N3  1  0.80384700  0.04403000  0.29471900  1
  N  N4  1  0.82046300  0.93420600  0.26277700  1
  N  N5  1  0.19024300  0.56830100  0.39452800  1
  N  N6  1  0.20760500  0.45849600  0.39235600  1
  N  N7  1  0.69046800  0.06862300  0.39463500  1
  N  N8  1  0.70723600  0.95873700  0.39251500  1
  N  N9  1  0.19068400  0.56301100  0.19770100  1
  N  N10  1  0.20530900  0.41859900  0.19574100  1
  N  N11  1  0.69097700  0.06430000  0.19759400  1
  N  N12  1  0.70497600  0.91978600  0.19574900  1
  N  N13  1  0.30281000  0.58291100  0.09699700  1
  N  N14  1  0.31722800  0.43847500  0.06951800  1
  N  N15  1  0.80318900  0.08344100  0.09641200  1
  N  N16  1  0.81697900  0.93893200  0.06991700  1
  O  O1  1  0.99732000  0.53976200  0.57017800  1
  O  O2  1  0.99786900  0.45984400  0.56959500  1
  O  O3  1  0.49704700  0.03968900  0.57045200  1
  O  O4  1  0.49808100  0.95977600  0.56943600  1
  O  O5  1  0.05714100  0.54032400  0.44175200  1
  O  O6  1  0.05768300  0.46021400  0.44116900  1
  O  O7  1  0.55690500  0.04059500  0.44202300  1
  O  O8  1  0.55793200  0.96049000  0.44100700  1
  O  O9  1  0.98984500  0.53966000  0.44517000  1
  O  O10  1  0.99037900  0.45994000  0.44460500  1
  O  O11  1  0.48965500  0.03944700  0.44535700  1
  O  O12  1  0.49067100  0.95973100  0.44435900  1
  O  O13  1  0.92688600  0.53924600  0.58037200  1
  O  O14  1  0.92742600  0.45938200  0.57980800  1
  O  O15  1  0.42665600  0.03867100  0.58055800  1
  O  O16  1  0.42767900  0.95881300  0.57956400  1
  O  O17  1  0.50796800  0.56705400  0.04134900  1
  O  O18  1  0.50713600  0.43243200  0.04147400  1
  O  O19  1  0.00805700  0.06678400  0.04063300  1
  O  O20  1  0.00705900  0.93216300  0.04218300  1
  O  O21  1  0.52029800  0.56692700  0.95130300  1
  O  O22  1  0.51944000  0.43233200  0.95144600  1
  O  O23  1  0.02034500  0.06681000  0.95062300  1
  O  O24  1  0.01937400  0.93221500  0.95214700  1
  O  O25  1  0.44535300  0.50210200  0.09362700  1
  O  O26  1  0.94533000  0.99803600  0.09366300  1
  O  O27  1  0.45761000  0.49821600  0.00350500  1
  O  O28  1  0.95762400  0.00184800  0.00350800  1
  O  O29  1  0.57412500  0.50113200  0.98556800  1
  O  O30  1  0.07410900  0.99710100  0.98556700  1
  O  O31  1  0.58634300  0.49722300  0.89567000  1
  O  O32  1  0.08636200  0.00093500  0.89563500  1
  O  O33  1  0.03811500  0.43214000  0.96547800  1
  O  O34  1  0.03723300  0.56689200  0.96628400  1
  O  O35  1  0.53831400  0.93248000  0.96530700  1
  O  O36  1  0.53702900  0.06722900  0.96646700  1
  O  O37  1  0.96069000  0.43198000  0.04183600  1
  O  O38  1  0.95982400  0.56689500  0.04276800  1
  O  O39  1  0.46089000  0.93207800  0.04171700  1
  O  O40  1  0.45961900  0.06699000  0.04300600  1
  O  O41  1  0.03783600  0.49761500  0.89764100  1
  O  O42  1  0.53779600  0.99792800  0.89768600  1
  O  O43  1  0.96063700  0.50136800  0.97384900  1
  O  O44  1  0.46058500  0.00143900  0.97395600  1
  O  O45  1  0.03547000  0.49767700  0.03274600  1
  O  O46  1  0.53551700  0.99803000  0.03270400  1
  O  O47  1  0.95808100  0.50129400  0.10911000  1
  O  O48  1  0.45811600  0.00140200  0.10913100  1
