# generated using pymatgen
data_Zn3H28C56(O3F)4
_symmetry_space_group_name_H-M   'P 1'
_cell_length_a   30.19568400
_cell_length_b   30.19564600
_cell_length_c   18.60415800
_cell_angle_alpha   90.00000000
_cell_angle_beta   90.00000000
_cell_angle_gamma   90.00000000
_symmetry_Int_Tables_number   1
_chemical_formula_structural   Zn3H28C56(O3F)4
_chemical_formula_sum   'Zn12 H112 C224 O48 F16'
_cell_volume   16962.86541082
_cell_formula_units_Z   4
loop_
 _symmetry_equiv_pos_site_id
 _symmetry_equiv_pos_as_xyz
  1  'x, y, z'
loop_
 _atom_site_type_symbol
 _atom_site_label
 _atom_site_symmetry_multiplicity
 _atom_site_fract_x
 _atom_site_fract_y
 _atom_site_fract_z
 _atom_site_occupancy
  Zn  Zn1  1  0.50010700  0.05015100  0.49993400  1
  Zn  Zn2  1  0.94981800  0.50009000  0.50021100  1
  Zn  Zn3  1  0.49995000  0.94985000  0.49981700  1
  Zn  Zn4  1  0.05012100  0.49993300  0.50027600  1
  Zn  Zn5  1  0.00000100  0.55014000  0.00018400  1
  Zn  Zn6  1  0.44988000  0.99999700  0.99987700  1
  Zn  Zn7  1  0.99994300  0.44983700  0.00030700  1
  Zn  Zn8  1  0.55018300  0.00005200  0.99986500  1
  Zn  Zn9  1  0.00000200  0.99989400  0.43040600  1
  Zn  Zn10  1  0.00000800  0.00008400  0.56946500  1
  Zn  Zn11  1  0.49995300  0.50009700  0.93052100  1
  Zn  Zn12  1  0.50003700  0.49990700  0.06958100  1
  H  H1  1  0.27883000  0.92997100  0.50535800  1
  H  H2  1  0.07002800  0.27882800  0.50490100  1
  H  H3  1  0.72125300  0.07006400  0.50351500  1
  H  H4  1  0.92992300  0.72125000  0.50436300  1
  H  H5  1  0.72161300  0.92856100  0.49672200  1
  H  H6  1  0.92860200  0.27843500  0.49388200  1
  H  H7  1  0.27846100  0.07138700  0.49405100  1
  H  H8  1  0.07141800  0.72158800  0.49729000  1
  H  H9  1  0.77880800  0.42969700  0.00302500  1
  H  H10  1  0.57119100  0.77839300  0.00608800  1
  H  H11  1  0.22111600  0.57022900  0.00637600  1
  H  H12  1  0.42879400  0.22165700  0.00283800  1
  H  H13  1  0.22159400  0.42881300  0.99507900  1
  H  H14  1  0.42976000  0.77889500  0.99522800  1
  H  H15  1  0.77832600  0.57119800  0.99622100  1
  H  H16  1  0.57028600  0.22120800  0.99560700  1
  H  H17  1  0.35897800  0.93011200  0.50609300  1
  H  H18  1  0.06986900  0.35896900  0.50593400  1
  H  H19  1  0.64107500  0.06995200  0.50427500  1
  H  H20  1  0.93002400  0.64106500  0.50504700  1
  H  H21  1  0.64143500  0.92826500  0.49609200  1
  H  H22  1  0.92831100  0.35858400  0.49321700  1
  H  H23  1  0.35860700  0.07166100  0.49310600  1
  H  H24  1  0.07170500  0.64141100  0.49660300  1
  H  H25  1  0.85899000  0.42988200  0.00374300  1
  H  H26  1  0.57154800  0.85853700  0.00678300  1
  H  H27  1  0.14096500  0.57001800  0.00732100  1
  H  H28  1  0.42844300  0.14148300  0.00355200  1
  H  H29  1  0.14145200  0.42846900  0.99434600  1
  H  H30  1  0.42998500  0.85904000  0.99422400  1
  H  H31  1  0.85850000  0.57156800  0.99554900  1
  H  H32  1  0.57012000  0.14101900  0.99495200  1
  H  H33  1  0.21840700  0.05062400  0.41891500  1
  H  H34  1  0.94929400  0.21839200  0.41866600  1
  H  H35  1  0.78149900  0.94891200  0.41994600  1
  H  H36  1  0.05099400  0.78142100  0.42044400  1
  H  H37  1  0.78131400  0.05003200  0.58011800  1
  H  H38  1  0.04967600  0.21871200  0.58012200  1
  H  H39  1  0.21873600  0.95043000  0.58067500  1
  H  H40  1  0.95006000  0.78135300  0.58091900  1
  H  H41  1  0.71843400  0.55080600  0.91955000  1
  H  H42  1  0.45002700  0.71872200  0.92004000  1
  H  H43  1  0.28145300  0.44964200  0.91957400  1
  H  H44  1  0.55016100  0.28136800  0.91911600  1
  H  H45  1  0.28140300  0.54983800  0.08133200  1
  H  H46  1  0.55048600  0.71840600  0.08137100  1
  H  H47  1  0.71875200  0.44968900  0.07972500  1
  H  H48  1  0.44930600  0.28143000  0.07972000  1
  H  H49  1  0.10444500  0.00827100  0.33938200  1
  H  H50  1  0.06557500  0.06054100  0.26075000  1
  H  H51  1  0.11968600  0.16846400  0.37909100  1
  H  H52  1  0.15879300  0.11608200  0.45763200  1
  H  H53  1  0.99155000  0.10422800  0.33918700  1
  H  H54  1  0.93918100  0.06524700  0.26088400  1
  H  H55  1  0.83140600  0.11973200  0.37912600  1
  H  H56  1  0.88388700  0.15893600  0.45736200  1
  H  H57  1  0.89557400  0.99112500  0.33971400  1
  H  H58  1  0.93446000  0.93860300  0.26155300  1
  H  H59  1  0.88013200  0.83105700  0.38053100  1
  H  H60  1  0.84101700  0.88368800  0.45861700  1
  H  H61  1  0.00871200  0.89531700  0.33998500  1
  H  H62  1  0.06116000  0.93406200  0.26150300  1
  H  H63  1  0.16881800  0.88005500  0.38060000  1
  H  H64  1  0.11626100  0.84106800  0.45899000  1
  H  H65  1  0.89551900  0.00844500  0.66027700  1
  H  H66  1  0.93413100  0.06120200  0.73838600  1
  H  H67  1  0.87947000  0.16841100  0.61900800  1
  H  H68  1  0.84061400  0.11554400  0.54099600  1
  H  H69  1  0.00802200  0.10467100  0.66011700  1
  H  H70  1  0.06059400  0.06613800  0.73865700  1
  H  H71  1  0.16808000  0.12057100  0.61965900  1
  H  H72  1  0.11539400  0.15934500  0.54121500  1
  H  H73  1  0.10447400  0.99220800  0.66033800  1
  H  H74  1  0.06583200  0.93974200  0.73891300  1
  H  H75  1  0.12067800  0.83209600  0.62080100  1
  H  H76  1  0.15954500  0.88467600  0.54229800  1
  H  H77  1  0.99179900  0.89575600  0.66057600  1
  H  H78  1  0.93917100  0.93450700  0.73872600  1
  H  H79  1  0.83176600  0.87948700  0.62025200  1
  H  H80  1  0.88450400  0.84050500  0.54218100  1
  H  H81  1  0.60435800  0.50864600  0.83952300  1
  H  H82  1  0.56552600  0.56120100  0.76133900  1
  H  H83  1  0.61984700  0.66870400  0.88043000  1
  H  H84  1  0.65892700  0.61604100  0.95850800  1
  H  H85  1  0.49163500  0.60471100  0.83993700  1
  H  H86  1  0.43901700  0.56613000  0.76154100  1
  H  H87  1  0.33160700  0.62046600  0.88083300  1
  H  H88  1  0.38433800  0.65927900  0.95914800  1
  H  H89  1  0.39548400  0.49203800  0.83975700  1
  H  H90  1  0.43427500  0.43979700  0.76098100  1
  H  H91  1  0.37993000  0.33182600  0.87892100  1
  H  H92  1  0.34090700  0.38418000  0.95761600  1
  H  H93  1  0.50838700  0.39575300  0.83946900  1
  H  H94  1  0.56098300  0.43454900  0.76132400  1
  H  H95  1  0.66843100  0.37960100  0.87978200  1
  H  H96  1  0.61572500  0.34058200  0.95786200  1
  H  H97  1  0.39559500  0.50810200  0.16071300  1
  H  H98  1  0.43431700  0.56059600  0.23914400  1
  H  H99  1  0.37970800  0.66819600  0.12062900  1
  H  H100  1  0.34075500  0.61558800  0.04227900  1
  H  H101  1  0.50826200  0.60422700  0.16085900  1
  H  H102  1  0.56066000  0.56529200  0.23917300  1
  H  H103  1  0.66839500  0.61984200  0.12091500  1
  H  H104  1  0.61588500  0.65900800  0.04268300  1
  H  H105  1  0.60454900  0.49132900  0.16008700  1
  H  H106  1  0.56588500  0.43860600  0.23817800  1
  H  H107  1  0.62055300  0.33135200  0.11891800  1
  H  H108  1  0.65944200  0.38418600  0.04089300  1
  H  H109  1  0.49163200  0.39535600  0.16006900  1
  H  H110  1  0.43922900  0.43405300  0.23869600  1
  H  H111  1  0.33149600  0.37994600  0.11989700  1
  H  H112  1  0.38400800  0.34100000  0.04137600  1
  C  C1  1  0.22418300  0.00054100  0.49978700  1
  C  C2  1  0.99947000  0.22416600  0.49938600  1
  C  C3  1  0.77583900  0.99945100  0.50004900  1
  C  C4  1  0.00054200  0.77582200  0.50070200  1
  C  C5  1  0.72416100  0.50027000  0.99964100  1
  C  C6  1  0.50028500  0.72417900  0.00069300  1
  C  C7  1  0.27581700  0.49970300  0.00050600  1
  C  C8  1  0.49970400  0.27583400  0.99937700  1
  C  C9  1  0.41328700  0.00102900  0.49959600  1
  C  C10  1  0.99894000  0.41327000  0.49978100  1
  C  C11  1  0.58677000  0.99897000  0.50016000  1
  C  C12  1  0.00099900  0.58675300  0.50069900  1
  C  C13  1  0.91323000  0.50092100  0.99978500  1
  C  C14  1  0.50096500  0.91328200  0.00032900  1
  C  C15  1  0.08671400  0.49905400  0.00071000  1
  C  C16  1  0.49909700  0.08676700  0.99940900  1
  C  C17  1  0.50029700  0.00090100  0.35935800  1
  C  C18  1  0.99917800  0.50037500  0.35972500  1
  C  C19  1  0.49976000  0.99910000  0.64039000  1
  C  C20  1  0.00076100  0.49964300  0.64075900  1
  C  C21  1  0.00019700  0.49909000  0.85972700  1
  C  C22  1  0.49919500  0.99965600  0.85935600  1
  C  C23  1  0.99974700  0.50088900  0.14076000  1
  C  C24  1  0.50086700  0.00038800  0.14038900  1
  C  C25  1  0.00019600  0.91615500  0.50024600  1
  C  C26  1  0.08383700  0.00018400  0.49992600  1
  C  C27  1  0.99980600  0.08382100  0.49962800  1
  C  C28  1  0.91617200  0.99979100  0.49994000  1
  C  C29  1  0.49998500  0.41616800  0.99975800  1
  C  C30  1  0.58382900  0.50000900  0.99990700  1
  C  C31  1  0.50001300  0.58383400  0.00037400  1
  C  C32  1  0.41616200  0.49999100  0.00016500  1
  C  C33  1  0.50050200  0.00074300  0.28225300  1
  C  C34  1  0.99938800  0.50057700  0.28262200  1
  C  C35  1  0.49955700  0.99926500  0.71749400  1
  C  C36  1  0.00055200  0.49942300  0.71786300  1
  C  C37  1  0.00037900  0.49925400  0.78262300  1
  C  C38  1  0.49938500  0.99943400  0.78225300  1
  C  C39  1  0.99956400  0.50073000  0.21786300  1
  C  C40  1  0.50067600  0.00058900  0.21749300  1
  C  C41  1  0.29606400  0.96131500  0.50363400  1
  C  C42  1  0.03867800  0.29605300  0.50330000  1
  C  C43  1  0.70399200  0.03872000  0.50280300  1
  C  C44  1  0.96126300  0.70398100  0.50358000  1
  C  C45  1  0.70419100  0.95981700  0.49747400  1
  C  C46  1  0.95985400  0.29583600  0.49554100  1
  C  C47  1  0.29585700  0.04013300  0.49571900  1
  C  C48  1  0.04016200  0.70417000  0.49810000  1
  C  C49  1  0.79604300  0.46105500  0.00228200  1
  C  C50  1  0.53995100  0.79581700  0.00447200  1
  C  C51  1  0.20390700  0.53887000  0.00472000  1
  C  C52  1  0.46003700  0.20421400  0.00199900  1
  C  C53  1  0.20417300  0.46005200  0.99681100  1
  C  C54  1  0.46112400  0.79609700  0.99680100  1
  C  C55  1  0.79577400  0.53995800  0.99694700  1
  C  C56  1  0.53893400  0.20396300  0.99643100  1
  C  C57  1  0.34171300  0.96140300  0.50337800  1
  C  C58  1  0.03857800  0.34170100  0.50322000  1
  C  C59  1  0.65834300  0.03863400  0.50256300  1
  C  C60  1  0.96134200  0.65833100  0.50329500  1
  C  C61  1  0.65854300  0.95967000  0.49779400  1
  C  C62  1  0.95969700  0.34148600  0.49583200  1
  C  C63  1  0.34150600  0.04028000  0.49584700  1
  C  C64  1  0.04030300  0.65852200  0.49838600  1
  C  C65  1  0.84169300  0.46118300  0.00201200  1
  C  C66  1  0.54014600  0.84146600  0.00419800  1
  C  C67  1  0.15825700  0.53874200  0.00459400  1
  C  C68  1  0.45985800  0.15856800  0.00172900  1
  C  C69  1  0.15852600  0.45986500  0.99706900  1
  C  C70  1  0.46126100  0.84174500  0.99689800  1
  C  C71  1  0.84142100  0.54014700  0.99723600  1
  C  C72  1  0.53881700  0.15831200  0.99673400  1
  C  C73  1  0.36472400  0.00090200  0.49958500  1
  C  C74  1  0.99907300  0.36470800  0.49959700  1
  C  C75  1  0.63533000  0.99909300  0.50019200  1
  C  C76  1  0.00087800  0.63531400  0.50082000  1
  C  C77  1  0.86467000  0.50074600  0.99964100  1
  C  C78  1  0.50078800  0.86472000  0.00049200  1
  C  C79  1  0.13527600  0.49922400  0.00083500  1
  C  C80  1  0.49926300  0.13532700  0.99926700  1
  C  C81  1  0.27281500  0.00066400  0.49971500  1
  C  C82  1  0.99933100  0.27279800  0.49938500  1
  C  C83  1  0.72722300  0.99932700  0.50011000  1
  C  C84  1  0.00065700  0.72720700  0.50081700  1
  C  C85  1  0.77277700  0.50042700  0.99961900  1
  C  C86  1  0.50045400  0.77281100  0.00067200  1
  C  C87  1  0.22718600  0.49954200  0.00069900  1
  C  C88  1  0.49956000  0.22722000  0.99923800  1
  C  C89  1  0.20099700  0.02884500  0.45531200  1
  C  C90  1  0.97112000  0.20097900  0.45498300  1
  C  C91  1  0.79897300  0.97089500  0.45594200  1
  C  C92  1  0.02905200  0.79892100  0.45647300  1
  C  C93  1  0.79886500  0.02813100  0.54409000  1
  C  C94  1  0.02794600  0.20116300  0.54382500  1
  C  C95  1  0.20118000  0.97212300  0.54432700  1
  C  C96  1  0.97191900  0.79888200  0.54479400  1
  C  C97  1  0.70099200  0.52882500  0.95558800  1
  C  C98  1  0.47178000  0.70117400  0.95630200  1
  C  C99  1  0.29892900  0.47141600  0.95589700  1
  C  C100  1  0.52831400  0.29889600  0.95526100  1
  C  C101  1  0.29889400  0.52813900  0.04491100  1
  C  C102  1  0.52864800  0.70099200  0.04507300  1
  C  C103  1  0.70117000  0.47159100  0.04373800  1
  C  C104  1  0.47122300  0.29893200  0.04365500  1
  C  C105  1  0.15535200  0.02821000  0.45404100  1
  C  C106  1  0.97175900  0.15533000  0.45370300  1
  C  C107  1  0.84461900  0.97155800  0.45449300  1
  C  C108  1  0.02839100  0.84456300  0.45493600  1
  C  C109  1  0.84451200  0.02769900  0.54543300  1
  C  C110  1  0.02754700  0.15551800  0.54520000  1
  C  C111  1  0.15553100  0.97253200  0.54571600  1
  C  C112  1  0.97235900  0.84453300  0.54605400  1
  C  C113  1  0.65534800  0.52817800  0.95426200  1
  C  C114  1  0.47218500  0.65552800  0.95492300  1
  C  C115  1  0.34457200  0.47205500  0.95440700  1
  C  C116  1  0.52786600  0.34454900  0.95399700  1
  C  C117  1  0.34454400  0.52773400  0.04608200  1
  C  C118  1  0.52801700  0.65534500  0.04634800  1
  C  C119  1  0.65552100  0.47203800  0.04520300  1
  C  C120  1  0.47187800  0.34457200  0.04518700  1
  C  C121  1  0.13230200  0.00031200  0.49990200  1
  C  C122  1  0.99971100  0.13228500  0.49948700  1
  C  C123  1  0.86770500  0.99968300  0.49994900  1
  C  C124  1  0.00031600  0.86768800  0.50041700  1
  C  C125  1  0.63229500  0.50006500  0.99977600  1
  C  C126  1  0.50005700  0.63229800  0.00058100  1
  C  C127  1  0.36769800  0.49994000  0.00019300  1
  C  C128  1  0.49991600  0.36770100  0.99965200  1
  C  C129  1  0.13227200  0.05884900  0.40598900  1
  C  C130  1  0.10713500  0.04338000  0.34928200  1
  C  C131  1  0.08564700  0.07276100  0.30457300  1
  C  C132  1  0.08969400  0.11769500  0.31579800  1
  C  C133  1  0.11600100  0.13322800  0.37079900  1
  C  C134  1  0.13775800  0.10382600  0.41510200  1
  C  C135  1  0.94105500  0.13223900  0.40576300  1
  C  C136  1  0.95645200  0.10697600  0.34915000  1
  C  C137  1  0.92701500  0.08542500  0.30461900  1
  C  C138  1  0.88209500  0.08954000  0.31591400  1
  C  C139  1  0.86663200  0.11599000  0.37078700  1
  C  C140  1  0.89609100  0.13780500  0.41491600  1
  C  C141  1  0.86766300  0.94075600  0.40666000  1
  C  C142  1  0.89284800  0.95604500  0.34987600  1
  C  C143  1  0.91434200  0.92652200  0.30542200  1
  C  C144  1  0.91024600  0.88162400  0.31696600  1
  C  C145  1  0.88386500  0.86626700  0.37200300  1
  C  C146  1  0.86210300  0.89581000  0.41605200  1
  C  C147  1  0.05914400  0.86756300  0.40697300  1
  C  C148  1  0.04380100  0.89262800  0.35009000  1
  C  C149  1  0.07328200  0.91404300  0.30546200  1
  C  C150  1  0.11819100  0.90999400  0.31694400  1
  C  C151  1  0.13360100  0.88374600  0.37211000  1
  C  C152  1  0.10409900  0.86205900  0.41633000  1
  C  C153  1  0.86743700  0.05863700  0.59317700  1
  C  C154  1  0.89265300  0.04350400  0.65003100  1
  C  C155  1  0.91399500  0.07315800  0.69444900  1
  C  C156  1  0.90972500  0.11802900  0.68278100  1
  C  C157  1  0.88333200  0.13322600  0.62764300  1
  C  C158  1  0.86171700  0.10355100  0.58363600  1
  C  C159  1  0.05836700  0.13263800  0.59320000  1
  C  C160  1  0.04310200  0.10750600  0.65005900  1
  C  C161  1  0.07265200  0.08620800  0.69471300  1
  C  C162  1  0.11754900  0.09043900  0.68327800  1
  C  C163  1  0.13287500  0.11674200  0.62811900  1
  C  C164  1  0.10330300  0.13831000  0.58387100  1
  C  C165  1  0.13264100  0.94177300  0.59381700  1
  C  C166  1  0.10737500  0.95711300  0.65046700  1
  C  C167  1  0.08601500  0.92762400  0.69514900  1
  C  C168  1  0.09032400  0.88271100  0.68396500  1
  C  C169  1  0.11678200  0.86731300  0.62905400  1
  C  C170  1  0.13840600  0.89682600  0.58477400  1
  C  C171  1  0.94149600  0.86750000  0.59388100  1
  C  C172  1  0.95672200  0.89284500  0.65052200  1
  C  C173  1  0.92714200  0.91426400  0.69497000  1
  C  C174  1  0.88225200  0.90993800  0.68356200  1
  C  C175  1  0.86696500  0.88340000  0.62867200  1
  C  C176  1  0.89656800  0.86171200  0.58463100  1
  C  C177  1  0.63227700  0.55899500  0.90649700  1
  C  C178  1  0.60709500  0.54372400  0.84969800  1
  C  C179  1  0.58563200  0.57326500  0.80523500  1
  C  C180  1  0.58974800  0.61816100  0.81679800  1
  C  C181  1  0.61610400  0.63349800  0.87188000  1
  C  C182  1  0.63784100  0.60393700  0.91593000  1
  C  C183  1  0.44133600  0.63263800  0.90698500  1
  C  C184  1  0.45656300  0.60751900  0.85008500  1
  C  C185  1  0.42698700  0.58619200  0.80551400  1
  C  C186  1  0.38209800  0.59038100  0.81707500  1
  C  C187  1  0.36680700  0.61667300  0.87227300  1
  C  C188  1  0.39640400  0.63826700  0.91644200  1
  C  C189  1  0.36757000  0.44143100  0.90621600  1
  C  C190  1  0.39273400  0.45692300  0.84955500  1
  C  C191  1  0.41417500  0.42755900  0.80475700  1
  C  C192  1  0.41004500  0.38261900  0.81583300  1
  C  C193  1  0.38368900  0.36706600  0.87075600  1
  C  C194  1  0.36198200  0.39645300  0.91515000  1
  C  C195  1  0.55871000  0.36752500  0.90615200  1
  C  C196  1  0.54346500  0.39286300  0.84951600  1
  C  C197  1  0.57302800  0.41431000  0.80507200  1
  C  C198  1  0.61792100  0.41001800  0.81647900  1
  C  C199  1  0.63322800  0.38348500  0.87136100  1
  C  C200  1  0.60364300  0.36177200  0.91540100  1
  C  C201  1  0.36751700  0.55850800  0.09404300  1
  C  C202  1  0.39275500  0.54319000  0.15074000  1
  C  C203  1  0.41416200  0.57269700  0.19533300  1
  C  C204  1  0.40993700  0.61760400  0.18399800  1
  C  C205  1  0.38352900  0.63298200  0.12901000  1
  C  C206  1  0.36185500  0.60345400  0.08482100  1
  C  C207  1  0.55873700  0.63226300  0.09427100  1
  C  C208  1  0.54335800  0.60699500  0.15089100  1
  C  C209  1  0.57281100  0.58547100  0.19543000  1
  C  C210  1  0.61772900  0.58961900  0.18413500  1
  C  C211  1  0.63317200  0.61607200  0.12925200  1
  C  C212  1  0.60369700  0.63786100  0.08511900  1
  C  C213  1  0.63262400  0.44111600  0.09301600  1
  C  C214  1  0.60740500  0.45626800  0.14985600  1
  C  C215  1  0.58603200  0.42663300  0.19426800  1
  C  C216  1  0.59028300  0.38175900  0.18262200  1
  C  C217  1  0.61670100  0.36654100  0.12752900  1
  C  C218  1  0.63833900  0.39619800  0.08352000  1
  C  C219  1  0.44115400  0.36756200  0.09321300  1
  C  C220  1  0.45653500  0.39264000  0.15005500  1
  C  C221  1  0.42708000  0.41402500  0.19476800  1
  C  C222  1  0.38216300  0.40993400  0.18341100  1
  C  C223  1  0.36671900  0.38367400  0.12828500  1
  C  C224  1  0.39619400  0.36201400  0.08398600  1
  O  O1  1  0.43392500  0.03925600  0.49794900  1
  O  O2  1  0.96071400  0.43390900  0.49812500  1
  O  O3  1  0.56613300  0.96074100  0.50168500  1
  O  O4  1  0.03922700  0.56611500  0.50224000  1
  O  O5  1  0.56592600  0.03711300  0.49858300  1
  O  O6  1  0.03707800  0.43411400  0.50158200  1
  O  O7  1  0.43413200  0.96289000  0.50128500  1
  O  O8  1  0.96285700  0.56591100  0.49901700  1
  O  O9  1  0.93382400  0.53917100  0.00146200  1
  O  O10  1  0.46284800  0.93416400  0.99855800  1
  O  O11  1  0.06611800  0.46080900  0.99891000  1
  O  O12  1  0.53721800  0.06588700  0.00106800  1
  O  O13  1  0.06582800  0.53717500  0.00223100  1
  O  O14  1  0.53921200  0.93388300  0.00196000  1
  O  O15  1  0.93411400  0.46279900  0.99837500  1
  O  O16  1  0.46084800  0.06616700  0.99790000  1
  O  O17  1  0.49922800  0.03919800  0.39252400  1
  O  O18  1  0.96085900  0.49928800  0.39282200  1
  O  O19  1  0.50118600  0.96271700  0.39294800  1
  O  O20  1  0.03734000  0.50124500  0.39338300  1
  O  O21  1  0.49879100  0.03728200  0.60679900  1
  O  O22  1  0.03907800  0.50081600  0.60766200  1
  O  O23  1  0.50091100  0.96080400  0.60722500  1
  O  O24  1  0.96260100  0.49869800  0.60710100  1
  O  O25  1  0.99914500  0.53727300  0.89330600  1
  O  O26  1  0.46088800  0.00086600  0.89248100  1
  O  O27  1  0.00117400  0.46079400  0.89290700  1
  O  O28  1  0.53736300  0.99867400  0.89298600  1
  O  O29  1  0.99868800  0.53918200  0.10758100  1
  O  O30  1  0.53917600  0.99926300  0.10726300  1
  O  O31  1  0.00087700  0.46270600  0.10718300  1
  O  O32  1  0.46269800  0.00129500  0.10675900  1
  O  O33  1  0.97826100  0.93753500  0.45027500  1
  O  O34  1  0.06238800  0.97818000  0.45011500  1
  O  O35  1  0.02174500  0.06230600  0.44981700  1
  O  O36  1  0.93761800  0.02166400  0.44997500  1
  O  O37  1  0.02204000  0.93777400  0.55004800  1
  O  O38  1  0.93772300  0.97802500  0.54991200  1
  O  O39  1  0.97797600  0.06234000  0.54960400  1
  O  O40  1  0.06229000  0.02209000  0.54973900  1
  O  O41  1  0.47807400  0.43773700  0.94997300  1
  O  O42  1  0.56229900  0.47818100  0.94998100  1
  O  O43  1  0.52185300  0.56240300  0.95035200  1
  O  O44  1  0.43763100  0.52196000  0.95033600  1
  O  O45  1  0.52191000  0.43759800  0.04968200  1
  O  O46  1  0.43769000  0.47805000  0.04996000  1
  O  O47  1  0.47814000  0.56226900  0.05020400  1
  O  O48  1  0.56236000  0.52182000  0.04991800  1
  F  F1  1  0.06833300  0.14657800  0.27216200  1
  F  F2  1  0.85315600  0.06811200  0.27246300  1
  F  F3  1  0.93162100  0.85260200  0.27359200  1
  F  F4  1  0.14717100  0.93128800  0.27339300  1
  F  F5  1  0.93094800  0.14718000  0.72612400  1
  F  F6  1  0.14659800  0.06926300  0.72686000  1
  F  F7  1  0.06908200  0.85372000  0.72756300  1
  F  F8  1  0.85317200  0.93124000  0.72692800  1
  F  F9  1  0.56841100  0.64720000  0.77340500  1
  F  F10  1  0.35302300  0.56917300  0.77357900  1
  F  F11  1  0.43136100  0.35375200  0.77211300  1
  F  F12  1  0.64698400  0.43135100  0.77312400  1
  F  F13  1  0.43122400  0.64661000  0.22751200  1
  F  F14  1  0.64668300  0.56822200  0.22759800  1
  F  F15  1  0.56902300  0.35262600  0.22594800  1
  F  F16  1  0.35320800  0.43119500  0.22704900  1
