# generated using pymatgen
data_Cu3H24C58N2(O4F)4
_symmetry_space_group_name_H-M   'P 1'
_cell_length_a   21.20618000
_cell_length_b   21.20618000
_cell_length_c   54.93959300
_cell_angle_alpha   90.00000000
_cell_angle_beta   90.00000000
_cell_angle_gamma   90.00000000
_symmetry_Int_Tables_number   1
_chemical_formula_structural   Cu3H24C58N2(O4F)4
_chemical_formula_sum   'Cu12 H96 C232 N8 O64 F16'
_cell_volume   24706.44870763
_cell_formula_units_Z   4
loop_
 _symmetry_equiv_pos_site_id
 _symmetry_equiv_pos_as_xyz
  1  'x, y, z'
loop_
 _atom_site_type_symbol
 _atom_site_label
 _atom_site_symmetry_multiplicity
 _atom_site_fract_x
 _atom_site_fract_y
 _atom_site_fract_z
 _atom_site_occupancy
  Cu  Cu1  1  0.00000000  0.00000100  0.47586700  1
  Cu  Cu2  1  0.50000000  0.49999900  0.97586700  1
  Cu  Cu3  1  0.00000100  0.00000100  0.52351800  1
  Cu  Cu4  1  0.49999900  0.49999900  0.02351800  1
  Cu  Cu5  1  0.93838400  0.50026600  0.50026000  1
  Cu  Cu6  1  0.49973500  0.93838500  0.50026000  1
  Cu  Cu7  1  0.06161500  0.49973600  0.50026100  1
  Cu  Cu8  1  0.50026500  0.06161500  0.50026000  1
  Cu  Cu9  1  0.43838500  0.00026500  0.00026100  1
  Cu  Cu10  1  0.99973400  0.43838600  0.00026100  1
  Cu  Cu11  1  0.56161600  0.99973300  0.00026000  1
  Cu  Cu12  1  0.00026600  0.56161600  0.00026000  1
  H  H1  1  0.89943100  0.50473500  0.62041100  1
  H  H2  1  0.49526700  0.89943200  0.62041100  1
  H  H3  1  0.10056800  0.49526600  0.62041100  1
  H  H4  1  0.50473600  0.10056900  0.62041100  1
  H  H5  1  0.39943300  0.00473500  0.12041100  1
  H  H6  1  0.99526400  0.39943200  0.12041100  1
  H  H7  1  0.60057000  0.99526600  0.12041100  1
  H  H8  1  0.00473400  0.60056900  0.12041100  1
  H  H9  1  0.89922400  0.50292500  0.57614800  1
  H  H10  1  0.49707600  0.89922400  0.57614800  1
  H  H11  1  0.10077500  0.49707600  0.57614800  1
  H  H12  1  0.50292500  0.10077600  0.57614800  1
  H  H13  1  0.39922500  0.00292500  0.07614800  1
  H  H14  1  0.99707500  0.39922500  0.07614800  1
  H  H15  1  0.60077700  0.99707500  0.07614800  1
  H  H16  1  0.00292500  0.60077700  0.07614800  1
  H  H17  1  0.37503200  0.90318500  0.26757400  1
  H  H18  1  0.09681300  0.37503100  0.26757400  1
  H  H19  1  0.62496900  0.09681500  0.26757400  1
  H  H20  1  0.90318300  0.62496800  0.26757400  1
  H  H21  1  0.87503100  0.40318500  0.76757400  1
  H  H22  1  0.59681700  0.87503200  0.76757400  1
  H  H23  1  0.12496900  0.59681500  0.76757400  1
  H  H24  1  0.40318700  0.12497000  0.76757400  1
  H  H25  1  0.98675400  0.28847600  0.54128100  1
  H  H26  1  0.71152500  0.98673900  0.54128000  1
  H  H27  1  0.01329400  0.71152600  0.54127800  1
  H  H28  1  0.28847500  0.01328100  0.54127900  1
  H  H29  1  0.48674500  0.78847400  0.04128100  1
  H  H30  1  0.21152500  0.48674200  0.04128000  1
  H  H31  1  0.51318100  0.21152400  0.04128300  1
  H  H32  1  0.78847600  0.51318300  0.04128400  1
  H  H33  1  0.08537400  0.21010600  0.52467200  1
  H  H34  1  0.78989500  0.08536400  0.52467800  1
  H  H35  1  0.91465600  0.78989600  0.52468800  1
  H  H36  1  0.21010500  0.91464800  0.52468300  1
  H  H37  1  0.58536600  0.71010400  0.02467500  1
  H  H38  1  0.28989600  0.58536500  0.02467500  1
  H  H39  1  0.41458800  0.28989300  0.02465100  1
  H  H40  1  0.71010600  0.41459000  0.02465300  1
  H  H41  1  0.09878600  0.28921400  0.48373800  1
  H  H42  1  0.71078800  0.09879200  0.48374400  1
  H  H43  1  0.90119400  0.71078800  0.48375600  1
  H  H44  1  0.28921300  0.90119900  0.48375100  1
  H  H45  1  0.59878700  0.78921100  0.98374100  1
  H  H46  1  0.21078700  0.59878800  0.98374100  1
  H  H47  1  0.40124400  0.21078500  0.98371300  1
  H  H48  1  0.78921400  0.40124300  0.98371500  1
  H  H49  1  0.01179700  0.21205000  0.45829500  1
  H  H50  1  0.78795100  0.01181300  0.45829600  1
  H  H51  1  0.98815400  0.78795100  0.45829800  1
  H  H52  1  0.21205100  0.98816700  0.45829700  1
  H  H53  1  0.51180100  0.71204800  0.95829600  1
  H  H54  1  0.28795000  0.51180400  0.95829600  1
  H  H55  1  0.48827500  0.28795000  0.95829200  1
  H  H56  1  0.71204800  0.48827200  0.95829300  1
  H  H57  1  0.89980300  0.21067800  0.51584400  1
  H  H58  1  0.78932300  0.89979700  0.51583900  1
  H  H59  1  0.10021600  0.78932300  0.51582700  1
  H  H60  1  0.21067800  0.10021100  0.51583100  1
  H  H61  1  0.39979700  0.71067700  0.01584200  1
  H  H62  1  0.28932200  0.39979600  0.01584000  1
  H  H63  1  0.60017300  0.28932200  0.01586900  1
  H  H64  1  0.71067600  0.60017400  0.01586900  1
  H  H65  1  0.50251300  0.89921400  0.42437800  1
  H  H66  1  0.10078600  0.50251300  0.42437800  1
  H  H67  1  0.49748800  0.10078600  0.42437800  1
  H  H68  1  0.89921300  0.49748700  0.42437800  1
  H  H69  1  0.00251100  0.39921300  0.92437800  1
  H  H70  1  0.60078600  0.00251000  0.92437800  1
  H  H71  1  0.99748700  0.60078600  0.92437800  1
  H  H72  1  0.39921400  0.99748700  0.92437800  1
  H  H73  1  0.09862800  0.62379600  0.73269400  1
  H  H74  1  0.37620600  0.09863000  0.73269400  1
  H  H75  1  0.90137100  0.37620500  0.73269400  1
  H  H76  1  0.62379700  0.90137200  0.73269400  1
  H  H77  1  0.59862900  0.12379600  0.23269400  1
  H  H78  1  0.87620300  0.59862800  0.23269400  1
  H  H79  1  0.40137200  0.87620500  0.23269400  1
  H  H80  1  0.12379400  0.40137100  0.23269400  1
  H  H81  1  0.09604300  0.62362200  0.68988400  1
  H  H82  1  0.37638100  0.09604400  0.68988400  1
  H  H83  1  0.90395700  0.37637900  0.68988400  1
  H  H84  1  0.62362300  0.90395800  0.68988400  1
  H  H85  1  0.59604400  0.12362100  0.18988400  1
  H  H86  1  0.87637700  0.59604300  0.18988400  1
  H  H87  1  0.40395800  0.87637900  0.18988300  1
  H  H88  1  0.12362000  0.40395700  0.18988400  1
  H  H89  1  0.50428600  0.89942500  0.38009900  1
  H  H90  1  0.10057500  0.50428600  0.38009800  1
  H  H91  1  0.49571400  0.10057500  0.38009900  1
  H  H92  1  0.89942400  0.49571400  0.38009900  1
  H  H93  1  0.00428500  0.39942400  0.88009900  1
  H  H94  1  0.60057600  0.00428400  0.88009900  1
  H  H95  1  0.99571400  0.60057500  0.88009900  1
  H  H96  1  0.39942500  0.99571400  0.88009800  1
  C  C1  1  0.11938600  0.00039200  0.49968500  1
  C  C2  1  0.99960800  0.11938600  0.49968600  1
  C  C3  1  0.88061500  0.99960800  0.49968600  1
  C  C4  1  0.00039300  0.88061500  0.49968600  1
  C  C5  1  0.61938500  0.50039300  0.99968700  1
  C  C6  1  0.49960600  0.61938500  0.99968600  1
  C  C7  1  0.38061400  0.49960500  0.99968600  1
  C  C8  1  0.50039400  0.38061300  0.99968600  1
  C  C9  1  0.50000100  0.00000000  0.42748700  1
  C  C10  1  0.00000000  0.50000000  0.42748700  1
  C  C11  1  0.99999900  0.50000000  0.92748700  1
  C  C12  1  0.50000000  0.99999800  0.92748700  1
  C  C13  1  0.94379400  0.50204400  0.61077700  1
  C  C14  1  0.49795700  0.94379500  0.61077700  1
  C  C15  1  0.05620500  0.49795700  0.61077700  1
  C  C16  1  0.50204500  0.05620600  0.61077700  1
  C  C17  1  0.44379600  0.00204400  0.11077700  1
  C  C18  1  0.99795500  0.44379500  0.11077700  1
  C  C19  1  0.55620700  0.99795600  0.11077700  1
  C  C20  1  0.00204300  0.55620600  0.11077700  1
  C  C21  1  0.00000000  0.50000000  0.57303400  1
  C  C22  1  0.50000100  0.00000000  0.57303400  1
  C  C23  1  0.50000100  0.00000000  0.07303400  1
  C  C24  1  0.00000000  0.50000100  0.07303400  1
  C  C25  1  0.04634600  0.22915400  0.51343000  1
  C  C26  1  0.77084700  0.04634100  0.51343300  1
  C  C27  1  0.95367000  0.77084800  0.51343900  1
  C  C28  1  0.22915300  0.95366600  0.51343600  1
  C  C29  1  0.54634100  0.72915200  0.01343200  1
  C  C30  1  0.27084700  0.54634000  0.01343200  1
  C  C31  1  0.45363400  0.27084500  0.01341900  1
  C  C32  1  0.72915400  0.45363500  0.01342000  1
  C  C33  1  0.99234300  0.27018300  0.52249700  1
  C  C34  1  0.72981800  0.99233500  0.52249700  1
  C  C35  1  0.00768300  0.72981800  0.52249500  1
  C  C36  1  0.27018200  0.00767600  0.52249600  1
  C  C37  1  0.49233700  0.77018100  0.02249700  1
  C  C38  1  0.22981800  0.49233500  0.02249600  1
  C  C39  1  0.50762300  0.22981700  0.02249800  1
  C  C40  1  0.77018200  0.50762400  0.02249900  1
  C  C41  1  0.99963500  0.31068600  0.50006500  1
  C  C42  1  0.68931500  0.99963500  0.50006500  1
  C  C43  1  0.00036400  0.68931600  0.50006500  1
  C  C44  1  0.31068500  0.00036400  0.50006500  1
  C  C45  1  0.49963300  0.81068400  0.00006600  1
  C  C46  1  0.18931500  0.49963300  0.00006500  1
  C  C47  1  0.50036800  0.18931400  0.00006400  1
  C  C48  1  0.81068500  0.50036800  0.00006500  1
  C  C49  1  0.05364400  0.27067800  0.49098500  1
  C  C50  1  0.72932300  0.05364700  0.49098900  1
  C  C51  1  0.94634500  0.72932400  0.49099500  1
  C  C52  1  0.27067700  0.94634800  0.49099200  1
  C  C53  1  0.55364300  0.77067600  0.99098800  1
  C  C54  1  0.22932300  0.55364400  0.99098700  1
  C  C55  1  0.44637400  0.22932200  0.99097200  1
  C  C56  1  0.77067700  0.44637400  0.99097300  1
  C  C57  1  0.00670900  0.22963800  0.47720000  1
  C  C58  1  0.77036300  0.00671700  0.47720100  1
  C  C59  1  0.99326500  0.77036300  0.47720200  1
  C  C60  1  0.22963800  0.99327200  0.47720100  1
  C  C61  1  0.50671000  0.72963700  0.97720100  1
  C  C62  1  0.27036200  0.50671200  0.97720000  1
  C  C63  1  0.49333200  0.27036200  0.97719800  1
  C  C64  1  0.72963700  0.49333000  0.97720000  1
  C  C65  1  0.95340800  0.27031600  0.48656000  1
  C  C66  1  0.72968400  0.95341400  0.48655800  1
  C  C67  1  0.04657600  0.72968400  0.48655200  1
  C  C68  1  0.27031700  0.04658000  0.48655400  1
  C  C69  1  0.45340800  0.77031500  0.98656000  1
  C  C70  1  0.22968300  0.45340900  0.98655800  1
  C  C71  1  0.54661700  0.22968400  0.98657100  1
  C  C72  1  0.77031500  0.54661600  0.98657200  1
  C  C73  1  0.94517800  0.22912900  0.50877700  1
  C  C74  1  0.77087200  0.94517500  0.50877500  1
  C  C75  1  0.05483300  0.77087200  0.50876800  1
  C  C76  1  0.22912900  0.05483000  0.50877000  1
  C  C77  1  0.44517400  0.72912800  0.00877700  1
  C  C78  1  0.27087100  0.44517300  0.00877500  1
  C  C79  1  0.55481000  0.27087100  0.00879000  1
  C  C80  1  0.72912800  0.55481100  0.00879100  1
  C  C81  1  0.99935000  0.18935700  0.49968900  1
  C  C82  1  0.81064400  0.99935000  0.49968900  1
  C  C83  1  0.00065000  0.81064400  0.49968900  1
  C  C84  1  0.18935700  0.00065000  0.49968900  1
  C  C85  1  0.49934700  0.68935600  0.99969000  1
  C  C86  1  0.31064300  0.49934700  0.99968900  1
  C  C87  1  0.50065300  0.31064200  0.99968900  1
  C  C88  1  0.68935700  0.50065300  0.99969000  1
  C  C89  1  0.50000000  0.00000000  0.37704500  1
  C  C90  1  0.99999900  0.50000000  0.37704500  1
  C  C91  1  0.00000000  0.50000000  0.87704500  1
  C  C92  1  0.50000000  0.99999900  0.87704500  1
  C  C93  1  0.50183400  0.94378400  0.38974500  1
  C  C94  1  0.05621500  0.50183300  0.38974500  1
  C  C95  1  0.49816700  0.05621600  0.38974500  1
  C  C96  1  0.94378400  0.49816600  0.38974500  1
  C  C97  1  0.00183300  0.44378400  0.88974500  1
  C  C98  1  0.55621600  0.00183200  0.88974500  1
  C  C99  1  0.99816600  0.55621500  0.88974500  1
  C  C100  1  0.44378500  0.99816600  0.88974500  1
  C  C101  1  0.00000000  0.50000100  0.62348100  1
  C  C102  1  0.50000100  0.00000100  0.62348100  1
  C  C103  1  0.50000100  0.00000000  0.12348100  1
  C  C104  1  0.99999900  0.50000100  0.12348100  1
  C  C105  1  0.94374200  0.50121300  0.58569200  1
  C  C106  1  0.49878800  0.94374300  0.58569200  1
  C  C107  1  0.05625700  0.49878800  0.58569200  1
  C  C108  1  0.50121300  0.05625800  0.58569200  1
  C  C109  1  0.44374400  0.00121300  0.08569200  1
  C  C110  1  0.99878700  0.44374300  0.08569200  1
  C  C111  1  0.55625900  0.99878700  0.08569200  1
  C  C112  1  0.00121200  0.55625900  0.08569200  1
  C  C113  1  0.00000000  0.50000000  0.54639600  1
  C  C114  1  0.50000000  0.00000000  0.54639600  1
  C  C115  1  0.50000100  0.00000000  0.04639600  1
  C  C116  1  0.00000000  0.50000100  0.04639600  1
  C  C117  1  0.99964000  0.38071100  0.50017200  1
  C  C118  1  0.61929000  0.99964000  0.50017200  1
  C  C119  1  0.00035900  0.61929000  0.50017200  1
  C  C120  1  0.38071100  0.00035900  0.50017200  1
  C  C121  1  0.49963900  0.88070900  0.00017200  1
  C  C122  1  0.11929000  0.49963900  0.00017200  1
  C  C123  1  0.50036200  0.11928900  0.00017100  1
  C  C124  1  0.88071000  0.50036200  0.00017200  1
  C  C125  1  0.00000000  0.50000100  0.45412500  1
  C  C126  1  0.50000100  0.00000000  0.45412500  1
  C  C127  1  0.50000000  0.99999800  0.95412500  1
  C  C128  1  0.99999900  0.50000000  0.95412500  1
  C  C129  1  0.03839600  0.54164900  0.73753600  1
  C  C130  1  0.45835300  0.03839700  0.73753600  1
  C  C131  1  0.96160300  0.45835100  0.73753600  1
  C  C132  1  0.54165100  0.96160400  0.73753600  1
  C  C133  1  0.53839700  0.04164900  0.23753600  1
  C  C134  1  0.95834900  0.53839600  0.23753600  1
  C  C135  1  0.46160400  0.95835100  0.23753600  1
  C  C136  1  0.04164700  0.46160300  0.23753600  1
  C  C137  1  0.00000000  0.50000000  0.72498200  1
  C  C138  1  0.50000200  0.00000100  0.72498200  1
  C  C139  1  0.50000100  0.00000000  0.22498200  1
  C  C140  1  0.99999800  0.50000000  0.22498200  1
  C  C141  1  0.07180400  0.58661800  0.72433100  1
  C  C142  1  0.41338400  0.07180500  0.72433100  1
  C  C143  1  0.92819600  0.41338200  0.72433000  1
  C  C144  1  0.58662000  0.92819700  0.72433000  1
  C  C145  1  0.57180500  0.08661800  0.22433100  1
  C  C146  1  0.91338000  0.57180400  0.22433000  1
  C  C147  1  0.42819600  0.91338200  0.22433000  1
  C  C148  1  0.08661600  0.42819500  0.22433000  1
  C  C149  1  0.06950400  0.58775400  0.69936700  1
  C  C150  1  0.41224800  0.06950600  0.69936700  1
  C  C151  1  0.93049500  0.41224700  0.69936700  1
  C  C152  1  0.58775500  0.93049600  0.69936700  1
  C  C153  1  0.56950500  0.08775400  0.19936700  1
  C  C154  1  0.91224500  0.56950400  0.19936700  1
  C  C155  1  0.43049600  0.91224700  0.19936700  1
  C  C156  1  0.08775200  0.43049500  0.19936700  1
  C  C157  1  0.03459700  0.54368400  0.68692300  1
  C  C158  1  0.45631800  0.03459800  0.68692300  1
  C  C159  1  0.96540300  0.45631700  0.68692300  1
  C  C160  1  0.54368500  0.96540400  0.68692300  1
  C  C161  1  0.53459800  0.04368300  0.18692300  1
  C  C162  1  0.95631500  0.53459700  0.18692300  1
  C  C163  1  0.46540400  0.95631700  0.18692300  1
  C  C164  1  0.04368200  0.46540300  0.18692300  1
  C  C165  1  0.00000000  0.50000000  0.69970000  1
  C  C166  1  0.50000200  0.00000100  0.69970000  1
  C  C167  1  0.50000100  0.00000000  0.19970000  1
  C  C168  1  0.99999800  0.50000000  0.19970000  1
  C  C169  1  0.50099000  0.94373500  0.41483000  1
  C  C170  1  0.05626500  0.50098900  0.41483000  1
  C  C171  1  0.49901100  0.05626500  0.41483000  1
  C  C172  1  0.94373400  0.49901100  0.41483000  1
  C  C173  1  0.00098800  0.44373400  0.91483000  1
  C  C174  1  0.55626600  0.00098700  0.91483000  1
  C  C175  1  0.99901100  0.55626500  0.91483000  1
  C  C176  1  0.44373500  0.99901000  0.91483000  1
  C  C177  1  0.03325800  0.54397100  0.66175400  1
  C  C178  1  0.45603100  0.03325900  0.66175400  1
  C  C179  1  0.96674100  0.45602900  0.66175400  1
  C  C180  1  0.54397200  0.96674200  0.66175400  1
  C  C181  1  0.53325900  0.04397100  0.16175400  1
  C  C182  1  0.95602800  0.53325900  0.16175400  1
  C  C183  1  0.46674300  0.95602900  0.16175400  1
  C  C184  1  0.04397000  0.46674200  0.16175400  1
  C  C185  1  0.54208400  0.03784800  0.26290100  1
  C  C186  1  0.96215100  0.54208300  0.26290100  1
  C  C187  1  0.45791700  0.96215300  0.26290100  1
  C  C188  1  0.03784600  0.45791500  0.26290100  1
  C  C189  1  0.04208400  0.53784800  0.76290100  1
  C  C190  1  0.46215400  0.04208500  0.76290100  1
  C  C191  1  0.95791600  0.46215200  0.76290100  1
  C  C192  1  0.53784900  0.95791700  0.76290100  1
  C  C193  1  0.50000000  0.00000000  0.27550300  1
  C  C194  1  0.99999800  0.49999900  0.27550400  1
  C  C195  1  0.00000000  0.50000000  0.77550400  1
  C  C196  1  0.50000200  0.00000100  0.77550400  1
  C  C197  1  0.41246900  0.92945800  0.27601800  1
  C  C198  1  0.07054000  0.41246800  0.27601800  1
  C  C199  1  0.58753100  0.07054200  0.27601800  1
  C  C200  1  0.92945600  0.58753000  0.27601800  1
  C  C201  1  0.91246900  0.42945800  0.77601800  1
  C  C202  1  0.57054400  0.91247000  0.77601800  1
  C  C203  1  0.08753100  0.57054200  0.77601800  1
  C  C204  1  0.42946000  0.08753200  0.77601800  1
  C  C205  1  0.41085500  0.93169200  0.30095200  1
  C  C206  1  0.06830700  0.41085400  0.30095200  1
  C  C207  1  0.58914500  0.06830800  0.30095200  1
  C  C208  1  0.93169000  0.58914400  0.30095200  1
  C  C209  1  0.91085500  0.43169200  0.80095200  1
  C  C210  1  0.56830900  0.91085500  0.80095200  1
  C  C211  1  0.08914500  0.56830800  0.80095200  1
  C  C212  1  0.43169400  0.08914500  0.80095200  1
  C  C213  1  0.45543300  0.96603700  0.31361700  1
  C  C214  1  0.03396100  0.45543200  0.31361700  1
  C  C215  1  0.54456700  0.03396300  0.31361700  1
  C  C216  1  0.96603600  0.54456600  0.31361700  1
  C  C217  1  0.95543300  0.46603700  0.81361700  1
  C  C218  1  0.53396400  0.95543300  0.81361700  1
  C  C219  1  0.04456700  0.53396200  0.81361700  1
  C  C220  1  0.46603900  0.04456700  0.81361700  1
  C  C221  1  0.50000000  0.00000000  0.30084100  1
  C  C222  1  0.99999800  0.49999900  0.30084100  1
  C  C223  1  0.00000000  0.50000000  0.80084100  1
  C  C224  1  0.50000100  0.00000000  0.80084100  1
  C  C225  1  0.54475500  0.03228300  0.33887000  1
  C  C226  1  0.96771600  0.54475400  0.33887000  1
  C  C227  1  0.45524600  0.96771700  0.33887000  1
  C  C228  1  0.03228200  0.45524500  0.33887000  1
  C  C229  1  0.04475400  0.53228200  0.83887000  1
  C  C230  1  0.46771800  0.04475400  0.83887000  1
  C  C231  1  0.95524500  0.46771700  0.83887000  1
  C  C232  1  0.53228300  0.95524500  0.83887000  1
  N  N1  1  0.50000000  0.00000000  0.35102300  1
  N  N2  1  0.99999900  0.49999900  0.35102300  1
  N  N3  1  0.00000000  0.50000000  0.85102300  1
  N  N4  1  0.50000100  0.00000000  0.85102300  1
  N  N5  1  0.00000000  0.50000000  0.64950400  1
  N  N6  1  0.50000100  0.00000100  0.64950400  1
  N  N7  1  0.50000100  0.00000000  0.14950400  1
  N  N8  1  0.99999900  0.50000100  0.14950400  1
  O  O1  1  0.09008200  0.98333300  0.47954500  1
  O  O2  1  0.01666800  0.09008300  0.47954500  1
  O  O3  1  0.90991800  0.01666800  0.47954600  1
  O  O4  1  0.98333200  0.90991800  0.47954500  1
  O  O5  1  0.59008300  0.48333400  0.97954600  1
  O  O6  1  0.51666600  0.59008200  0.97954600  1
  O  O7  1  0.40991800  0.51666500  0.97954500  1
  O  O8  1  0.48333500  0.40991700  0.97954500  1
  O  O9  1  0.08998500  0.01720700  0.51983700  1
  O  O10  1  0.98279400  0.08998400  0.51983800  1
  O  O11  1  0.91001700  0.98279400  0.51983800  1
  O  O12  1  0.01720800  0.91001700  0.51983800  1
  O  O13  1  0.58998300  0.51720600  0.01983900  1
  O  O14  1  0.48279200  0.58998200  0.01983800  1
  O  O15  1  0.41001500  0.48279100  0.01983800  1
  O  O16  1  0.51720600  0.41001500  0.01983800  1
  O  O17  1  0.59035400  0.06173100  0.35148300  1
  O  O18  1  0.93826800  0.59035300  0.35148300  1
  O  O19  1  0.40964600  0.93826900  0.35148200  1
  O  O20  1  0.06173000  0.40964600  0.35148200  1
  O  O21  1  0.09035400  0.56173000  0.85148300  1
  O  O22  1  0.43827000  0.09035400  0.85148300  1
  O  O23  1  0.90964600  0.43826900  0.85148200  1
  O  O24  1  0.56173100  0.90964500  0.85148200  1
  O  O25  1  0.94788100  0.48291300  0.53498400  1
  O  O26  1  0.51708800  0.94788100  0.53498400  1
  O  O27  1  0.05211800  0.51708800  0.53498400  1
  O  O28  1  0.48291200  0.05211900  0.53498400  1
  O  O29  1  0.44788200  0.98291200  0.03498400  1
  O  O30  1  0.01708800  0.44788200  0.03498400  1
  O  O31  1  0.55212000  0.01708700  0.03498400  1
  O  O32  1  0.98291300  0.55212000  0.03498400  1
  O  O33  1  0.94764000  0.41029300  0.49353000  1
  O  O34  1  0.58970800  0.94764000  0.49353000  1
  O  O35  1  0.05235900  0.58970900  0.49353000  1
  O  O36  1  0.41029300  0.05236000  0.49353000  1
  O  O37  1  0.44763900  0.91029200  0.99353000  1
  O  O38  1  0.08970700  0.44764000  0.99353000  1
  O  O39  1  0.55236100  0.08970600  0.99353000  1
  O  O40  1  0.91029300  0.55236200  0.99353000  1
  O  O41  1  0.05172900  0.40991000  0.50696100  1
  O  O42  1  0.59009100  0.05172900  0.50696100  1
  O  O43  1  0.94827100  0.59009100  0.50696100  1
  O  O44  1  0.40990900  0.94827100  0.50696100  1
  O  O45  1  0.55172800  0.90990700  0.00696200  1
  O  O46  1  0.09009200  0.55172800  0.00696100  1
  O  O47  1  0.44827300  0.09009100  0.00696100  1
  O  O48  1  0.90990800  0.44827300  0.00696200  1
  O  O49  1  0.94803600  0.51754200  0.46553700  1
  O  O50  1  0.48245900  0.94803600  0.46553700  1
  O  O51  1  0.05196300  0.48245900  0.46553700  1
  O  O52  1  0.51754200  0.05196300  0.46553700  1
  O  O53  1  0.44803700  0.01754100  0.96553700  1
  O  O54  1  0.98245700  0.44803700  0.96553800  1
  O  O55  1  0.55196300  0.98245600  0.96553700  1
  O  O56  1  0.01754200  0.55196300  0.96553700  1
  O  O57  1  0.06420800  0.58916300  0.64944800  1
  O  O58  1  0.41083900  0.06420900  0.64944800  1
  O  O59  1  0.93579200  0.41083800  0.64944800  1
  O  O60  1  0.58916400  0.93579300  0.64944800  1
  O  O61  1  0.56420900  0.08916200  0.14944800  1
  O  O62  1  0.91083700  0.56420800  0.14944800  1
  O  O63  1  0.43579300  0.91083800  0.14944800  1
  O  O64  1  0.08916100  0.43579300  0.14944800  1
  F  F1  1  0.36494600  0.89873300  0.31247200  1
  F  F2  1  0.10126600  0.36494500  0.31247200  1
  F  F3  1  0.63505500  0.10126700  0.31247200  1
  F  F4  1  0.89873100  0.63505300  0.31247200  1
  F  F5  1  0.86494500  0.39873300  0.81247200  1
  F  F6  1  0.60126800  0.86494600  0.81247200  1
  F  F7  1  0.13505400  0.60126700  0.81247200  1
  F  F8  1  0.39873500  0.13505500  0.81247200  1
  F  F9  1  0.90457600  0.29306300  0.47240200  1
  F  F10  1  0.70693800  0.90458700  0.47239700  1
  F  F11  1  0.09539000  0.70693600  0.47238500  1
  F  F12  1  0.29306400  0.09539900  0.47238900  1
  F  F13  1  0.40457900  0.79306200  0.97240000  1
  F  F14  1  0.20693600  0.40458100  0.97239800  1
  F  F15  1  0.59547300  0.20693800  0.97242500  1
  F  F16  1  0.79306000  0.59547100  0.97242500  1
