# generated using pymatgen
data_Zn3H28C49O13
_symmetry_space_group_name_H-M   'P 1'
_cell_length_a   41.12033700
_cell_length_b   35.55219900
_cell_length_c   21.48295600
_cell_angle_alpha   90.00000000
_cell_angle_beta   59.89227600
_cell_angle_gamma   90.00000000
_symmetry_Int_Tables_number   1
_chemical_formula_structural   Zn3H28C49O13
_chemical_formula_sum   'Zn12 H112 C196 O52'
_cell_volume   27169.10635663
_cell_formula_units_Z   4
loop_
 _symmetry_equiv_pos_site_id
 _symmetry_equiv_pos_as_xyz
  1  'x, y, z'
loop_
 _atom_site_type_symbol
 _atom_site_label
 _atom_site_symmetry_multiplicity
 _atom_site_fract_x
 _atom_site_fract_y
 _atom_site_fract_z
 _atom_site_occupancy
  Zn  Zn1  1  0.99957400  0.45317800  0.00044400  1
  Zn  Zn2  1  0.49957400  0.95317800  0.00044400  1
  Zn  Zn3  1  0.00070100  0.53835100  0.99923900  1
  Zn  Zn4  1  0.50070100  0.03835100  0.99923900  1
  Zn  Zn5  1  0.04250800  0.49711500  0.45975100  1
  Zn  Zn6  1  0.95735900  0.49594900  0.54032600  1
  Zn  Zn7  1  0.54250800  0.99711500  0.45975100  1
  Zn  Zn8  1  0.45735900  0.99594900  0.54032600  1
  Zn  Zn9  1  0.50121100  0.49661700  0.56973700  1
  Zn  Zn10  1  0.49900300  0.49652300  0.43095700  1
  Zn  Zn11  1  0.00121100  0.99661700  0.56973700  1
  Zn  Zn12  1  0.99900300  0.99652300  0.43095700  1
  H  H1  1  0.01783400  0.55867700  0.27155000  1
  H  H2  1  0.01513500  0.55763700  0.69739200  1
  H  H3  1  0.51783400  0.05867700  0.27155000  1
  H  H4  1  0.51513500  0.05763700  0.69739200  1
  H  H5  1  0.95600700  0.54174100  0.25310300  1
  H  H6  1  0.06050200  0.51176500  0.73080300  1
  H  H7  1  0.45600700  0.04174100  0.25310300  1
  H  H8  1  0.56050200  0.01176500  0.73080300  1
  H  H9  1  0.93944300  0.47981900  0.34642000  1
  H  H10  1  0.04371300  0.45024800  0.66831700  1
  H  H11  1  0.43944300  0.97982000  0.34642000  1
  H  H12  1  0.54371300  0.95024800  0.66831700  1
  H  H13  1  0.98505500  0.43440000  0.22617100  1
  H  H14  1  0.98181600  0.43321900  0.80497200  1
  H  H15  1  0.48505500  0.93440000  0.22617100  1
  H  H16  1  0.48181600  0.93321900  0.80497200  1
  H  H17  1  0.04690500  0.45140800  0.24410200  1
  H  H18  1  0.93638300  0.47914200  0.77260500  1
  H  H19  1  0.54690500  0.95140800  0.24410200  1
  H  H20  1  0.43638300  0.97914200  0.77260500  1
  H  H21  1  0.06339100  0.51331400  0.15027100  1
  H  H22  1  0.95325700  0.54068800  0.83453000  1
  H  H23  1  0.56339100  0.01331400  0.15027100  1
  H  H24  1  0.45325700  0.04068800  0.83453000  1
  H  H25  1  0.68730300  0.50799400  0.21538500  1
  H  H26  1  0.31270600  0.50165000  0.78618200  1
  H  H27  1  0.18730300  0.00799400  0.21538500  1
  H  H28  1  0.81270600  0.00165000  0.78618200  1
  H  H29  1  0.61871600  0.50768200  0.28290600  1
  H  H30  1  0.38128800  0.50278700  0.71878500  1
  H  H31  1  0.11871600  0.00768200  0.28290600  1
  H  H32  1  0.88128800  0.00278700  0.71878500  1
  H  H33  1  0.62124900  0.48519000  0.47629200  1
  H  H34  1  0.37921100  0.48673200  0.52320300  1
  H  H35  1  0.12124900  0.98519000  0.47629200  1
  H  H36  1  0.87921100  0.98673200  0.52320300  1
  H  H37  1  0.68981000  0.48586400  0.40763000  1
  H  H38  1  0.31065700  0.48592800  0.59178000  1
  H  H39  1  0.18981000  0.98586400  0.40763000  1
  H  H40  1  0.81065700  0.98592800  0.59178000  1
  H  H41  1  0.81221200  0.55692500  0.19051300  1
  H  H42  1  0.18944800  0.55395100  0.81372900  1
  H  H43  1  0.31221200  0.05692500  0.19051300  1
  H  H44  1  0.68944800  0.05395100  0.81372900  1
  H  H45  1  0.88081400  0.55666400  0.12143500  1
  H  H46  1  0.12095800  0.55523300  0.88250900  1
  H  H47  1  0.38081400  0.05666400  0.12143500  1
  H  H48  1  0.62095800  0.05523300  0.88250900  1
  H  H49  1  0.87946200  0.43620400  0.11715800  1
  H  H50  1  0.11928700  0.43477600  0.87850600  1
  H  H51  1  0.37946200  0.93620400  0.11715800  1
  H  H52  1  0.61928700  0.93477600  0.87850600  1
  H  H53  1  0.81099200  0.43728100  0.18615300  1
  H  H54  1  0.18787000  0.43431200  0.80967400  1
  H  H55  1  0.31099200  0.93728100  0.18615300  1
  H  H56  1  0.68787000  0.93431200  0.80967400  1
  H  H57  1  0.49878200  0.30787400  0.60157100  1
  H  H58  1  0.49917900  0.30810700  0.40310500  1
  H  H59  1  0.99878200  0.80787400  0.60157100  1
  H  H60  1  0.99917900  0.80810700  0.40310500  1
  H  H61  1  0.49975300  0.37645600  0.60156000  1
  H  H62  1  0.50015200  0.37670400  0.40170700  1
  H  H63  1  0.99975300  0.87645600  0.60156000  1
  H  H64  1  0.00015200  0.87670400  0.40170700  1
  H  H65  1  0.93873800  0.68454700  0.56191900  1
  H  H66  1  0.05833700  0.68567500  0.44304100  1
  H  H67  1  0.43873800  0.18454700  0.56191900  1
  H  H68  1  0.55833700  0.18567500  0.44304100  1
  H  H69  1  0.93899100  0.61588300  0.56146400  1
  H  H70  1  0.05942800  0.61715700  0.44175100  1
  H  H71  1  0.43899100  0.11588300  0.56146400  1
  H  H72  1  0.55942800  0.11715700  0.44175100  1
  H  H73  1  0.45318800  0.68568800  0.48476000  1
  H  H74  1  0.55015200  0.68469800  0.50729200  1
  H  H75  1  0.95318800  0.18568800  0.48476000  1
  H  H76  1  0.05015200  0.18469800  0.50729200  1
  H  H77  1  0.94190200  0.30721400  0.55556200  1
  H  H78  1  0.06150100  0.30878900  0.43701300  1
  H  H79  1  0.44190200  0.80721400  0.55556200  1
  H  H80  1  0.56150100  0.80878900  0.43701300  1
  H  H81  1  0.94056500  0.37575100  0.55770500  1
  H  H82  1  0.06100300  0.37742600  0.43830900  1
  H  H83  1  0.44056500  0.87575100  0.55770500  1
  H  H84  1  0.56100300  0.87742600  0.43830900  1
  H  H85  1  0.41373600  0.60092100  0.60388400  1
  H  H86  1  0.35881800  0.57292900  0.60566800  1
  H  H87  1  0.31822700  0.54376300  0.45587000  1
  H  H88  1  0.36838800  0.53991400  0.39804700  1
  H  H89  1  0.34519700  0.58549300  0.41361200  1
  H  H90  1  0.41000800  0.59250500  0.37902000  1
  H  H91  1  0.46312200  0.62175800  0.37936000  1
  H  H92  1  0.59142600  0.60669900  0.39251800  1
  H  H93  1  0.64458400  0.57677300  0.39468200  1
  H  H94  1  0.67675400  0.53647600  0.55137400  1
  H  H95  1  0.62651400  0.53013800  0.60089100  1
  H  H96  1  0.64711400  0.57574400  0.59982500  1
  H  H97  1  0.58375800  0.58235600  0.62490100  1
  H  H98  1  0.53215900  0.61303600  0.62113700  1
  H  H99  1  0.91373600  0.10092100  0.60388400  1
  H  H100  1  0.85881800  0.07292900  0.60566800  1
  H  H101  1  0.81822700  0.04376300  0.45587000  1
  H  H102  1  0.86838800  0.03991400  0.39804700  1
  H  H103  1  0.84519700  0.08549300  0.41361200  1
  H  H104  1  0.91000800  0.09250500  0.37902000  1
  H  H105  1  0.96312200  0.12175800  0.37936000  1
  H  H106  1  0.09142600  0.10669900  0.39251800  1
  H  H107  1  0.14458400  0.07677300  0.39468200  1
  H  H108  1  0.17675400  0.03647600  0.55137400  1
  H  H109  1  0.12651400  0.03013800  0.60089100  1
  H  H110  1  0.14711400  0.07574400  0.59982500  1
  H  H111  1  0.08375800  0.08235600  0.62490100  1
  H  H112  1  0.03215900  0.11303600  0.62113700  1
  C  C1  1  0.92647500  0.49584200  0.07282900  1
  C  C2  1  0.07379600  0.49568700  0.92686700  1
  C  C3  1  0.42647500  0.99584200  0.07282900  1
  C  C4  1  0.57379600  0.99568700  0.92686700  1
  C  C5  1  0.00136600  0.49657300  0.12021200  1
  C  C6  1  0.99889500  0.49497200  0.87948400  1
  C  C7  1  0.50136600  0.99657300  0.12021200  1
  C  C8  1  0.49889500  0.99497200  0.87948400  1
  C  C9  1  0.97662900  0.52126800  0.25201700  1
  C  C10  1  0.03239000  0.50440900  0.73910700  1
  C  C11  1  0.47662900  0.02126800  0.25201700  1
  C  C12  1  0.53239000  0.00440900  0.73910700  1
  C  C13  1  0.01043900  0.53053100  0.26008800  1
  C  C14  1  0.00761000  0.52945600  0.72288800  1
  C  C15  1  0.51043900  0.03053100  0.26008800  1
  C  C16  1  0.50761000  0.02945600  0.72288800  1
  C  C17  1  0.00141300  0.49669600  0.30817200  1
  C  C18  1  0.99842000  0.49581700  0.69194000  1
  C  C19  1  0.50141300  0.99669600  0.30817200  1
  C  C20  1  0.49842000  0.99581700  0.69194000  1
  C  C21  1  0.96762000  0.48745400  0.30126500  1
  C  C22  1  0.02320500  0.47075200  0.70696800  1
  C  C23  1  0.46762000  0.98745400  0.30126500  1
  C  C24  1  0.52320500  0.97075200  0.70696800  1
  C  C25  1  0.99252800  0.46264700  0.23704800  1
  C  C26  1  0.98941400  0.46149500  0.77989700  1
  C  C27  1  0.49252800  0.96264700  0.23704800  1
  C  C28  1  0.48941400  0.96149500  0.77989700  1
  C  C29  1  0.02630100  0.47189600  0.24516200  1
  C  C30  1  0.96459500  0.48657500  0.76370200  1
  C  C31  1  0.52630100  0.97189600  0.24516200  1
  C  C32  1  0.46459500  0.98657500  0.76370200  1
  C  C33  1  0.03532100  0.50575700  0.19585700  1
  C  C34  1  0.97377500  0.52019500  0.79586600  1
  C  C35  1  0.53532100  0.00575700  0.19585700  1
  C  C36  1  0.47377500  0.02019500  0.79586600  1
  C  C37  1  0.00152700  0.49648900  0.18898000  1
  C  C38  1  0.99858100  0.49514500  0.81086400  1
  C  C39  1  0.50152700  0.99648900  0.18898000  1
  C  C40  1  0.49858100  0.99514500  0.81086400  1
  C  C41  1  0.67265500  0.50297300  0.27273600  1
  C  C42  1  0.32745900  0.49828900  0.72838800  1
  C  C43  1  0.17265500  0.00297300  0.27273600  1
  C  C44  1  0.82745900  0.99828900  0.72838800  1
  C  C45  1  0.63388900  0.50264600  0.31109600  1
  C  C46  1  0.36622100  0.49883000  0.69008000  1
  C  C47  1  0.13388900  0.00264600  0.31109600  1
  C  C48  1  0.86622100  0.99883000  0.69008000  1
  C  C49  1  0.61497000  0.49642600  0.38457300  1
  C  C50  1  0.38526100  0.49488800  0.61603400  1
  C  C51  1  0.11497000  0.99642600  0.38457300  1
  C  C52  1  0.88526100  0.99488800  0.61603400  1
  C  C53  1  0.63530500  0.49021300  0.41899500  1
  C  C54  1  0.36506100  0.48996900  0.58096600  1
  C  C55  1  0.13530500  0.99021300  0.41899500  1
  C  C56  1  0.86506100  0.98996900  0.58096600  1
  C  C57  1  0.67407300  0.49056600  0.38041000  1
  C  C58  1  0.32629600  0.48946600  0.61950200  1
  C  C59  1  0.17407300  0.99056600  0.38041000  1
  C  C60  1  0.82629600  0.98946600  0.61950200  1
  C  C61  1  0.69277200  0.49701500  0.30732000  1
  C  C62  1  0.30747400  0.49369500  0.69317900  1
  C  C63  1  0.19277200  0.99701500  0.30732000  1
  C  C64  1  0.80747400  0.99369500  0.69317900  1
  C  C65  1  0.73313900  0.49729700  0.26712800  1
  C  C66  1  0.26711000  0.49359100  0.73322400  1
  C  C67  1  0.23313900  0.99729700  0.26712800  1
  C  C68  1  0.76711000  0.99359100  0.73322400  1
  C  C69  1  0.76702600  0.49736300  0.23319500  1
  C  C70  1  0.23322400  0.49369500  0.76702500  1
  C  C71  1  0.26702600  0.99736300  0.23319500  1
  C  C72  1  0.73322400  0.99369500  0.76702500  1
  C  C73  1  0.82714200  0.53047200  0.17424700  1
  C  C74  1  0.17390200  0.52783200  0.82808700  1
  C  C75  1  0.32714200  0.03047200  0.17424700  1
  C  C76  1  0.67390200  0.02783200  0.82808700  1
  C  C77  1  0.86592700  0.53017800  0.13516200  1
  C  C78  1  0.13515300  0.52839300  0.86701200  1
  C  C79  1  0.36592700  0.03017800  0.13516200  1
  C  C80  1  0.63515300  0.02839300  0.86701200  1
  C  C81  1  0.88521100  0.49639700  0.11416300  1
  C  C82  1  0.11505300  0.49506200  0.88561800  1
  C  C83  1  0.38521100  0.99639700  0.11416300  1
  C  C84  1  0.61505300  0.99506200  0.88561800  1
  C  C85  1  0.86520100  0.46300800  0.13275300  1
  C  C86  1  0.13424100  0.46122400  0.86476500  1
  C  C87  1  0.36520100  0.96300800  0.13275300  1
  C  C88  1  0.63424100  0.96122400  0.86476500  1
  C  C89  1  0.82645600  0.46345000  0.17180800  1
  C  C90  1  0.17301800  0.46081100  0.82581700  1
  C  C91  1  0.32645600  0.96345000  0.17180800  1
  C  C92  1  0.67301800  0.96081100  0.82581700  1
  C  C93  1  0.80739100  0.49712800  0.19261000  1
  C  C94  1  0.19286400  0.49408900  0.80744600  1
  C  C95  1  0.30739100  0.99712800  0.19261000  1
  C  C96  1  0.69286400  0.99408900  0.80744600  1
  C  C97  1  0.99981000  0.57023600  0.50076200  1
  C  C98  1  0.49981000  0.07023600  0.50076200  1
  C  C99  1  0.00129600  0.49679100  0.37720700  1
  C  C100  1  0.99855100  0.49618800  0.62289100  1
  C  C101  1  0.50129600  0.99679100  0.37720700  1
  C  C102  1  0.49855100  0.99618800  0.62289100  1
  C  C103  1  0.00007200  0.42286200  0.49926600  1
  C  C104  1  0.50007200  0.92286200  0.49926600  1
  C  C105  1  0.49986500  0.57024400  0.49927800  1
  C  C106  1  0.99986500  0.07024400  0.49927800  1
  C  C107  1  0.57373600  0.49669900  0.42569500  1
  C  C108  1  0.42647700  0.49606000  0.57502100  1
  C  C109  1  0.07373600  0.99669900  0.42569500  1
  C  C110  1  0.92647700  0.99606000  0.57502100  1
  C  C111  1  0.50036600  0.42286400  0.50141600  1
  C  C112  1  0.00036600  0.92286400  0.50141600  1
  C  C113  1  0.49906700  0.32315100  0.55780100  1
  C  C114  1  0.49928900  0.32328200  0.44659500  1
  C  C115  1  0.99906700  0.82315100  0.55780100  1
  C  C116  1  0.99928900  0.82328200  0.44659500  1
  C  C117  1  0.49964900  0.36192300  0.55749500  1
  C  C118  1  0.49987000  0.36205900  0.44603800  1
  C  C119  1  0.99964900  0.86192300  0.55749500  1
  C  C120  1  0.99987000  0.86205900  0.44603800  1
  C  C121  1  0.50004500  0.38161700  0.50155900  1
  C  C122  1  0.00004500  0.88161700  0.50155900  1
  C  C123  1  0.49885700  0.30383600  0.50244500  1
  C  C124  1  0.99885700  0.80383600  0.50244500  1
  C  C125  1  0.49844100  0.26349300  0.50273200  1
  C  C126  1  0.99844100  0.76349300  0.50273200  1
  C  C127  1  0.99830400  0.72961100  0.50279300  1
  C  C128  1  0.49830400  0.22961100  0.50279300  1
  C  C129  1  0.96517200  0.66956700  0.53560700  1
  C  C130  1  0.03218700  0.67020100  0.46899700  1
  C  C131  1  0.46517200  0.16956700  0.53560700  1
  C  C132  1  0.53218700  0.17020100  0.46899700  1
  C  C133  1  0.96546500  0.63076800  0.53520300  1
  C  C134  1  0.03263200  0.63144600  0.46844300  1
  C  C135  1  0.46546500  0.13076800  0.53520300  1
  C  C136  1  0.53263200  0.13144600  0.46844300  1
  C  C137  1  0.99924600  0.61147900  0.50155600  1
  C  C138  1  0.49924600  0.11147900  0.50155600  1
  C  C139  1  0.99851400  0.68926700  0.50250800  1
  C  C140  1  0.49851400  0.18926700  0.50250800  1
  C  C141  1  0.47447400  0.67020100  0.48947100  1
  C  C142  1  0.52838500  0.66967700  0.50340200  1
  C  C143  1  0.97447400  0.17020100  0.48947100  1
  C  C144  1  0.02838500  0.16967700  0.50340200  1
  C  C145  1  0.47345300  0.63145000  0.49146600  1
  C  C146  1  0.52779600  0.63091700  0.50482800  1
  C  C147  1  0.97345300  0.13145000  0.49146600  1
  C  C148  1  0.02779600  0.13091700  0.50482800  1
  C  C149  1  0.50019300  0.61149200  0.49909500  1
  C  C150  1  0.00019300  0.11149200  0.49909500  1
  C  C151  1  0.50176900  0.68930400  0.49576900  1
  C  C152  1  0.00176900  0.18930400  0.49576900  1
  C  C153  1  0.50213200  0.72963800  0.49534500  1
  C  C154  1  0.00213200  0.22963800  0.49534500  1
  C  C155  1  0.00213200  0.26351600  0.49546900  1
  C  C156  1  0.50213200  0.76351600  0.49546900  1
  C  C157  1  0.96799400  0.32278900  0.52985300  1
  C  C158  1  0.03501100  0.32367000  0.46342300  1
  C  C159  1  0.46799400  0.82278900  0.52985300  1
  C  C160  1  0.53501100  0.82367000  0.46342300  1
  C  C161  1  0.96740500  0.36154500  0.53091400  1
  C  C162  1  0.03457400  0.36245800  0.46432500  1
  C  C163  1  0.46740500  0.86154500  0.53091400  1
  C  C164  1  0.53457400  0.86245800  0.46432500  1
  C  C165  1  0.00072300  0.38162500  0.49813600  1
  C  C166  1  0.50072300  0.88162500  0.49813600  1
  C  C167  1  0.00174400  0.30385300  0.49616100  1
  C  C168  1  0.50174400  0.80385300  0.49616100  1
  C  C169  1  0.44209800  0.61243500  0.49122100  1
  C  C170  1  0.41283900  0.59871800  0.55458700  1
  C  C171  1  0.38197700  0.58306600  0.55554500  1
  C  C172  1  0.38044000  0.58005000  0.49306600  1
  C  C173  1  0.34546400  0.55807800  0.43801500  1
  C  C174  1  0.40999400  0.59387700  0.42923700  1
  C  C175  1  0.44039700  0.61048800  0.42887900  1
  C  C176  1  0.55834800  0.61117100  0.50676500  1
  C  C177  1  0.58990300  0.60108300  0.44336000  1
  C  C178  1  0.61976400  0.58438700  0.44464900  1
  C  C179  1  0.61817100  0.57706500  0.50918100  1
  C  C180  1  0.64941100  0.55027900  0.56802100  1
  C  C181  1  0.58630100  0.58725400  0.57304300  1
  C  C182  1  0.55674800  0.60464100  0.57144500  1
  C  C183  1  0.94209800  0.11243500  0.49122100  1
  C  C184  1  0.91283900  0.09871800  0.55458700  1
  C  C185  1  0.88197700  0.08306600  0.55554500  1
  C  C186  1  0.88044000  0.08005000  0.49306600  1
  C  C187  1  0.84546400  0.05807800  0.43801500  1
  C  C188  1  0.90999400  0.09387700  0.42923700  1
  C  C189  1  0.94039700  0.11048800  0.42887900  1
  C  C190  1  0.05834800  0.11117100  0.50676500  1
  C  C191  1  0.08990300  0.10108300  0.44336000  1
  C  C192  1  0.11976400  0.08438700  0.44464900  1
  C  C193  1  0.11817100  0.07706500  0.50918100  1
  C  C194  1  0.14941100  0.05027900  0.56802100  1
  C  C195  1  0.08630100  0.08725400  0.57304300  1
  C  C196  1  0.05674800  0.10464100  0.57144500  1
  O  O1  1  0.94351100  0.46313600  0.05443700  1
  O  O2  1  0.05556600  0.46355800  0.94356300  1
  O  O3  1  0.44351100  0.96313600  0.05443700  1
  O  O4  1  0.55556600  0.96355800  0.94356300  1
  O  O5  1  0.94470300  0.52798100  0.05613800  1
  O  O6  1  0.05676800  0.52840200  0.94524500  1
  O  O7  1  0.44470300  0.02798100  0.05613800  1
  O  O8  1  0.55676800  0.02840200  0.94524500  1
  O  O9  1  0.99962200  0.46415000  0.09297000  1
  O  O10  1  0.99765900  0.46244900  0.90928200  1
  O  O11  1  0.49962200  0.96415000  0.09297000  1
  O  O12  1  0.49765900  0.96244900  0.90928200  1
  O  O13  1  0.00261800  0.52909500  0.09040200  1
  O  O14  1  0.00066100  0.52739200  0.90670000  1
  O  O15  1  0.50261800  0.02909500  0.09040200  1
  O  O16  1  0.50066100  0.02739200  0.90670000  1
  O  O17  1  0.03251200  0.55321800  0.46813200  1
  O  O18  1  0.96768800  0.55202500  0.53248600  1
  O  O19  1  0.53251200  0.05321800  0.46813200  1
  O  O20  1  0.46768800  0.05202500  0.53248600  1
  O  O21  1  0.03368400  0.49827300  0.37506600  1
  O  O22  1  0.96617500  0.49474900  0.62500900  1
  O  O23  1  0.53368400  0.99827300  0.37506600  1
  O  O24  1  0.46617500  0.99474900  0.62500900  1
  O  O25  1  0.96877200  0.49526400  0.43700300  1
  O  O26  1  0.03108500  0.49775200  0.56309200  1
  O  O27  1  0.46877200  0.99526400  0.43700300  1
  O  O28  1  0.53108500  0.99775200  0.56309200  1
  O  O29  1  0.03218700  0.44107200  0.46757800  1
  O  O30  1  0.96735300  0.43987000  0.53192700  1
  O  O31  1  0.53218700  0.94107200  0.46757800  1
  O  O32  1  0.46735300  0.93987000  0.53192700  1
  O  O33  1  0.50017900  0.55253600  0.55257000  1
  O  O34  1  0.49955000  0.55273800  0.44582900  1
  O  O35  1  0.00017900  0.05253600  0.55257000  1
  O  O36  1  0.99955000  0.05273800  0.44582900  1
  O  O37  1  0.55685600  0.49568700  0.49620500  1
  O  O38  1  0.44335600  0.49693200  0.50450800  1
  O  O39  1  0.05685600  0.99568700  0.49620500  1
  O  O40  1  0.94335600  0.99693200  0.50450800  1
  O  O41  1  0.55538400  0.49773900  0.39034600  1
  O  O42  1  0.44482200  0.49562300  0.61040800  1
  O  O43  1  0.05538400  0.99773900  0.39034600  1
  O  O44  1  0.94482200  0.99562300  0.61040800  1
  O  O45  1  0.50024300  0.44038800  0.55526400  1
  O  O46  1  0.50040900  0.44058700  0.44777900  1
  O  O47  1  0.00024300  0.94038800  0.55526400  1
  O  O48  1  0.00040900  0.94058700  0.44777900  1
  O  O49  1  0.34994500  0.56369400  0.49648400  1
  O  O50  1  0.64794900  0.56014100  0.50770500  1
  O  O51  1  0.84994500  0.06369400  0.49648400  1
  O  O52  1  0.14794900  0.06014100  0.50770500  1
