# generated using pymatgen
data_ZnH11C18NO7
_symmetry_space_group_name_H-M   'P 1'
_cell_length_a   12.28036800
_cell_length_b   14.16299700
_cell_length_c   6.58916700
_cell_angle_alpha   90.00000000
_cell_angle_beta   80.24521000
_cell_angle_gamma   90.00000000
_symmetry_Int_Tables_number   1
_chemical_formula_structural   ZnH11C18NO7
_chemical_formula_sum   'Zn2 H22 C36 N2 O14'
_cell_volume   1129.46337094
_cell_formula_units_Z   2
loop_
 _symmetry_equiv_pos_site_id
 _symmetry_equiv_pos_as_xyz
  1  'x, y, z'
loop_
 _atom_site_type_symbol
 _atom_site_label
 _atom_site_symmetry_multiplicity
 _atom_site_fract_x
 _atom_site_fract_y
 _atom_site_fract_z
 _atom_site_occupancy
  Zn  Zn1  1  0.50467900  0.11068200  0.52635300  1
  Zn  Zn2  1  0.49337800  0.90095500  0.47077500  1
  H  H1  1  0.14884000  0.08961400  0.44658500  1
  H  H2  1  0.91974300  0.99609700  0.45000400  1
  H  H3  1  0.95912600  0.11687500  0.48584100  1
  H  H4  1  0.77659200  0.09635100  0.35707600  1
  H  H5  1  0.87774700  0.16813800  0.19535200  1
  H  H6  1  0.02773900  0.81313300  0.69916800  1
  H  H7  1  0.04164100  0.90468500  0.50936900  1
  H  H8  1  0.83718300  0.89221500  0.58364500  1
  H  H9  1  0.65731400  0.45308500  0.60966300  1
  H  H10  1  0.62417700  0.61113100  0.64777600  1
  H  H11  1  0.33372700  0.40754900  0.47068400  1
  H  H12  1  0.34518100  0.55885700  0.35355500  1
  H  H13  1  0.35139500  0.44287800  0.72732500  1
  H  H14  1  0.32423800  0.59262400  0.62291400  1
  H  H15  1  0.50031000  0.41324300  0.19960000  1
  H  H16  1  0.52932000  0.57093500  0.14011500  1
  H  H17  1  0.24264600  0.81342100  0.89127000  1
  H  H18  1  0.21872100  0.94657300  0.40089000  1
  H  H19  1  0.72437700  0.56551400  0.38647500  1
  H  H20  1  0.73286600  0.42989200  0.32933600  1
  H  H21  1  0.44859000  0.43720100  0.94668400  1
  H  H22  1  0.48948800  0.65771700  0.93889200  1
  C  C1  1  0.24814400  0.03638100  0.17256900  1
  C  C2  1  0.14981600  0.06182800  0.29374000  1
  C  C3  1  0.05128500  0.04607700  0.22691900  1
  C  C4  1  0.94623600  0.06291200  0.37026900  1
  C  C5  1  0.85768100  0.09558100  0.25312700  1
  C  C6  1  0.24648400  0.99446800  0.98317900  1
  C  C7  1  0.14723500  0.97256900  0.92326100  1
  C  C8  1  0.05002700  0.00236500  0.04077500  1
  C  C9  1  0.94626700  0.99145800  0.96701600  1
  C  C10  1  0.85195800  0.03251300  0.07463800  1
  C  C11  1  0.75141900  0.01730100  0.01448600  1
  C  C12  1  0.15093000  0.91785800  0.72913400  1
  C  C13  1  0.03914200  0.89025600  0.67548700  1
  C  C14  1  0.94093700  0.93901200  0.79326900  1
  C  C15  1  0.84152900  0.93071500  0.72377500  1
  C  C16  1  0.74774200  0.97278400  0.82945800  1
  C  C17  1  0.34518000  0.02688100  0.27308000  1
  C  C18  1  0.34468600  0.99534900  0.82326700  1
  C  C19  1  0.65240000  0.98432700  0.72534500  1
  C  C20  1  0.65384800  0.01644400  0.17554000  1
  C  C21  1  0.55441300  0.44281200  0.30124700  1
  C  C22  1  0.56181700  0.54930100  0.27979400  1
  C  C23  1  0.56800300  0.46674000  0.66089300  1
  C  C24  1  0.54551900  0.57170700  0.65600600  1
  C  C25  1  0.50317700  0.41788800  0.51789600  1
  C  C26  1  0.49385400  0.59404900  0.46854500  1
  C  C27  1  0.37844200  0.55339500  0.49944400  1
  C  C28  1  0.38398200  0.45071100  0.56064000  1
  C  C29  1  0.48971500  0.69667600  0.44583800  1
  C  C30  1  0.50754900  0.31534000  0.54201000  1
  C  C31  1  0.21302600  0.82898400  0.74901000  1
  C  C32  1  0.21363300  0.97285700  0.55631000  1
  C  C33  1  0.67906300  0.57983300  0.26227900  1
  C  C34  1  0.66747000  0.40097000  0.25642300  1
  C  C35  1  0.53336900  0.42839600  0.87023500  1
  C  C36  1  0.46769900  0.60045500  0.84424200  1
  N  N1  1  0.48781900  0.77823500  0.43720100  1
  N  N2  1  0.50972200  0.23383800  0.55257700  1
  O  O1  1  0.37820000  0.94085900  0.30429500  1
  O  O2  1  0.38499100  0.10180300  0.35239800  1
  O  O3  1  0.38660400  0.07846800  0.76761300  1
  O  O4  1  0.37514600  0.91736600  0.72095200  1
  O  O5  1  0.61987900  0.07066800  0.69373100  1
  O  O6  1  0.61267600  0.90972000  0.64589800  1
  O  O7  1  0.61178600  0.93319500  0.23073100  1
  O  O8  1  0.62301800  0.09441600  0.27703700  1
  O  O9  1  0.23069000  0.77378700  0.60524400  1
  O  O10  1  0.26413700  0.04355100  0.59087100  1
  O  O11  1  0.72397800  0.62128700  0.10851800  1
  O  O12  1  0.68549200  0.33158200  0.14643000  1
  O  O13  1  0.59829100  0.38088300  0.94710900  1
  O  O14  1  0.37829000  0.56153500  0.88849300  1
