# generated using pymatgen
data_Zn3H18C38(ClO6)2
_symmetry_space_group_name_H-M   'P 1'
_cell_length_a   39.58982500
_cell_length_b   23.76337400
_cell_length_c   23.81286300
_cell_angle_alpha   90.00000000
_cell_angle_beta   53.81229900
_cell_angle_gamma   90.00000000
_symmetry_Int_Tables_number   1
_chemical_formula_structural   Zn3H18C38(ClO6)2
_chemical_formula_sum   'Zn12 H72 C152 Cl8 O48'
_cell_volume   18081.05175577
_cell_formula_units_Z   4
loop_
 _symmetry_equiv_pos_site_id
 _symmetry_equiv_pos_as_xyz
  1  'x, y, z'
loop_
 _atom_site_type_symbol
 _atom_site_label
 _atom_site_symmetry_multiplicity
 _atom_site_fract_x
 _atom_site_fract_y
 _atom_site_fract_z
 _atom_site_occupancy
  Zn  Zn1  1  0.00140900  0.93621300  0.99789900  1
  Zn  Zn2  1  0.99913000  0.06379800  0.00033300  1
  Zn  Zn3  1  0.50140900  0.43621300  0.99789900  1
  Zn  Zn4  1  0.49913000  0.56379800  0.00033300  1
  Zn  Zn5  1  0.49838400  0.00003500  0.43753800  1
  Zn  Zn6  1  0.50215400  0.99985700  0.56075500  1
  Zn  Zn7  1  0.99838400  0.50003500  0.43753800  1
  Zn  Zn8  1  0.00215400  0.49985700  0.56075500  1
  Zn  Zn9  1  0.04688000  0.00011600  0.45294700  1
  Zn  Zn10  1  0.95367500  0.99978000  0.54527100  1
  Zn  Zn11  1  0.54688000  0.50011600  0.45294700  1
  Zn  Zn12  1  0.45367500  0.49978000  0.54527100  1
  H  H1  1  0.28371700  0.94099600  0.65763100  1
  H  H2  1  0.71683800  0.05656900  0.34284800  1
  H  H3  1  0.71913000  0.95676700  0.35450900  1
  H  H4  1  0.28141200  0.04022300  0.64232700  1
  H  H5  1  0.78371700  0.44099600  0.65763100  1
  H  H6  1  0.21683800  0.55656900  0.34284800  1
  H  H7  1  0.21913000  0.45676700  0.35450900  1
  H  H8  1  0.78141200  0.54022300  0.64232700  1
  H  H9  1  0.21447100  0.95117700  0.72425200  1
  H  H10  1  0.78608100  0.04631600  0.27584800  1
  H  H11  1  0.78853800  0.94597500  0.27697100  1
  H  H12  1  0.21200200  0.05131400  0.71944400  1
  H  H13  1  0.71447100  0.45117700  0.72425200  1
  H  H14  1  0.28608100  0.54631600  0.27584800  1
  H  H15  1  0.28853800  0.44597500  0.27697100  1
  H  H16  1  0.71200200  0.55131400  0.71944400  1
  H  H17  1  0.21948100  0.09615200  0.77132800  1
  H  H18  1  0.78103700  0.90336600  0.22349400  1
  H  H19  1  0.78892200  0.08576500  0.20953100  1
  H  H20  1  0.21163400  0.91410600  0.79197600  1
  H  H21  1  0.71948100  0.59615200  0.77132800  1
  H  H22  1  0.28103700  0.40336600  0.22349400  1
  H  H23  1  0.28892200  0.58576500  0.20953100  1
  H  H24  1  0.71163400  0.41410600  0.79197600  1
  H  H25  1  0.28833100  0.09070100  0.69129900  1
  H  H26  1  0.71219000  0.90837900  0.30374700  1
  H  H27  1  0.71710600  0.08699500  0.27396700  1
  H  H28  1  0.28345000  0.91312500  0.72758400  1
  H  H29  1  0.78833100  0.59070100  0.69129900  1
  H  H30  1  0.21219000  0.40837900  0.30374700  1
  H  H31  1  0.21710600  0.58699500  0.27396700  1
  H  H32  1  0.78345000  0.41312500  0.72758400  1
  H  H33  1  0.29474100  0.99235500  0.80198400  1
  H  H34  1  0.70578700  0.01095500  0.19673800  1
  H  H35  1  0.71668000  0.94180000  0.20656800  1
  H  H36  1  0.28385100  0.06071200  0.78963200  1
  H  H37  1  0.79474100  0.49235500  0.80198400  1
  H  H38  1  0.20578700  0.51095500  0.19673800  1
  H  H39  1  0.21668000  0.44180000  0.20656800  1
  H  H40  1  0.78385100  0.56071200  0.78963200  1
  H  H41  1  0.27223400  0.90900700  0.82995000  1
  H  H42  1  0.24701100  0.83180700  0.90890100  1
  H  H43  1  0.12898400  0.91143400  0.04430800  1
  H  H44  1  0.15275000  0.99090600  0.96697700  1
  H  H45  1  0.84777300  0.01337000  0.03180300  1
  H  H46  1  0.87152800  0.09478800  0.95744200  1
  H  H47  1  0.75349600  0.17361800  0.09578400  1
  H  H48  1  0.72828400  0.09446500  0.17184900  1
  H  H49  1  0.83119400  0.90115300  0.11176100  1
  H  H50  1  0.84730200  0.82887400  0.02999400  1
  H  H51  1  0.76319200  0.89957000  0.99390800  1
  H  H52  1  0.74545200  0.97379600  0.07687600  1
  H  H53  1  0.16932500  0.10066600  0.88293400  1
  H  H54  1  0.15321000  0.17534200  0.96199300  1
  H  H55  1  0.23732300  0.10910600  0.00060900  1
  H  H56  1  0.25507000  0.03250200  0.92042100  1
  H  H57  1  0.77223400  0.40900700  0.82995000  1
  H  H58  1  0.74701100  0.33180700  0.90890100  1
  H  H59  1  0.62898400  0.41143400  0.04430800  1
  H  H60  1  0.65275000  0.49090600  0.96697700  1
  H  H61  1  0.34777300  0.51337000  0.03180300  1
  H  H62  1  0.37152800  0.59478800  0.95744200  1
  H  H63  1  0.25349600  0.67361800  0.09578400  1
  H  H64  1  0.22828400  0.59446500  0.17184900  1
  H  H65  1  0.33119400  0.40115300  0.11176100  1
  H  H66  1  0.34730200  0.32887400  0.02999400  1
  H  H67  1  0.26319200  0.39957000  0.99390800  1
  H  H68  1  0.24545200  0.47379600  0.07687600  1
  H  H69  1  0.66932500  0.60066600  0.88293400  1
  H  H70  1  0.65321000  0.67534200  0.96199300  1
  H  H71  1  0.73732300  0.60910600  0.00060900  1
  H  H72  1  0.75507000  0.53250200  0.92042100  1
  C  C1  1  0.00118500  0.00130700  0.88854700  1
  C  C2  1  0.99935600  0.99870200  0.10968400  1
  C  C3  1  0.50118500  0.50130700  0.88854700  1
  C  C4  1  0.49935600  0.49870200  0.10968400  1
  C  C5  1  0.08202800  0.00157100  0.92019600  1
  C  C6  1  0.91851100  0.99844200  0.07803500  1
  C  C7  1  0.58202800  0.50157100  0.92019600  1
  C  C8  1  0.41851100  0.49844200  0.07803500  1
  C  C9  1  0.22522600  0.95164700  0.75795600  1
  C  C10  1  0.77532400  0.04748800  0.24216000  1
  C  C11  1  0.77380500  0.94466600  0.24930000  1
  C  C12  1  0.22672600  0.05419100  0.74705000  1
  C  C13  1  0.72522600  0.45164700  0.75795600  1
  C  C14  1  0.27532400  0.54748800  0.24216000  1
  C  C15  1  0.27380500  0.44466600  0.24930000  1
  C  C16  1  0.72672600  0.55419100  0.74705000  1
  C  C17  1  0.27368800  0.04997300  0.69424800  1
  C  C18  1  0.72684400  0.94865200  0.30226700  1
  C  C19  1  0.72805800  0.05069400  0.28816900  1
  C  C20  1  0.27249300  0.94847500  0.71206700  1
  C  C21  1  0.77368800  0.54997300  0.69424800  1
  C  C22  1  0.22684400  0.44865200  0.30226700  1
  C  C23  1  0.22805800  0.55069400  0.28816900  1
  C  C24  1  0.77249300  0.44847500  0.71206700  1
  C  C25  1  0.37322000  0.00173900  0.63042800  1
  C  C26  1  0.62731800  0.99816700  0.36786300  1
  C  C27  1  0.87322000  0.50173900  0.63042800  1
  C  C28  1  0.12731800  0.49816700  0.36786300  1
  C  C29  1  0.21048300  0.00611800  0.79991700  1
  C  C30  1  0.79005400  0.99406700  0.19822000  1
  C  C31  1  0.71048300  0.50611800  0.79991700  1
  C  C32  1  0.29005400  0.49406700  0.19822000  1
  C  C33  1  0.28975700  0.00376400  0.71625500  1
  C  C34  1  0.71078100  0.99622900  0.28197900  1
  C  C35  1  0.78975700  0.50376400  0.71625500  1
  C  C36  1  0.21078100  0.49622900  0.28197900  1
  C  C37  1  0.27582400  0.01599200  0.78979500  1
  C  C38  1  0.72470800  0.98620600  0.20803600  1
  C  C39  1  0.77582400  0.51599200  0.78979500  1
  C  C40  1  0.22470800  0.48620600  0.20803600  1
  C  C41  1  0.22818900  0.00977500  0.84350000  1
  C  C42  1  0.77234100  0.99267500  0.15455500  1
  C  C43  1  0.72818900  0.50977500  0.84350000  1
  C  C44  1  0.27234100  0.49267500  0.15455500  1
  C  C45  1  0.33551800  0.00256200  0.66907800  1
  C  C46  1  0.66502000  0.99737200  0.32919700  1
  C  C47  1  0.83551800  0.50256200  0.66907800  1
  C  C48  1  0.16502000  0.49737200  0.32919700  1
  C  C49  1  0.16461200  0.00470200  0.84268100  1
  C  C50  1  0.83592600  0.99538800  0.15549500  1
  C  C51  1  0.66461200  0.50470200  0.84268100  1
  C  C52  1  0.33592600  0.49538800  0.15549500  1
  C  C53  1  0.12691300  0.00327500  0.87770100  1
  C  C54  1  0.87362600  0.99675300  0.12050600  1
  C  C55  1  0.62691300  0.50327500  0.87770100  1
  C  C56  1  0.37362600  0.49675300  0.12050600  1
  C  C57  1  0.00147600  0.00114200  0.82813700  1
  C  C58  1  0.99907100  0.99886100  0.17008900  1
  C  C59  1  0.50147600  0.50114200  0.82813700  1
  C  C60  1  0.49907100  0.49886100  0.17008900  1
  C  C61  1  0.00163700  0.00095400  0.77745100  1
  C  C62  1  0.99891400  0.99902900  0.22077100  1
  C  C63  1  0.50163700  0.50095400  0.77745100  1
  C  C64  1  0.49891400  0.49902900  0.22077100  1
  C  C65  1  0.00175500  0.00069400  0.71815800  1
  C  C66  1  0.99879900  0.99925700  0.28006100  1
  C  C67  1  0.50175500  0.50069400  0.71815800  1
  C  C68  1  0.49879900  0.49925700  0.28006100  1
  C  C69  1  0.00180500  0.00046200  0.66758000  1
  C  C70  1  0.99875100  0.99946200  0.33063700  1
  C  C71  1  0.50180500  0.50046200  0.66758000  1
  C  C72  1  0.49875100  0.49946200  0.33063700  1
  C  C73  1  0.49967600  0.89013200  0.50077800  1
  C  C74  1  0.50086300  0.10976100  0.49751500  1
  C  C75  1  0.99967600  0.39013200  0.50077800  1
  C  C76  1  0.00086300  0.60976100  0.49751500  1
  C  C77  1  0.41814000  0.00093200  0.58457700  1
  C  C78  1  0.58239900  0.99895900  0.41371700  1
  C  C79  1  0.91814000  0.50093200  0.58457700  1
  C  C80  1  0.08239900  0.49895900  0.41371700  1
  C  C81  1  0.99894600  0.10861000  0.50037600  1
  C  C82  1  0.00160900  0.89128600  0.49784400  1
  C  C83  1  0.49894600  0.60861000  0.50037600  1
  C  C84  1  0.50160900  0.39128600  0.49784400  1
  C  C85  1  0.00180500  0.00020100  0.60745300  1
  C  C86  1  0.99875000  0.99969700  0.39076500  1
  C  C87  1  0.50180500  0.50020100  0.60745300  1
  C  C88  1  0.49875000  0.49969700  0.39076500  1
  C  C89  1  0.49944700  0.82977100  0.50068700  1
  C  C90  1  0.50109600  0.17012200  0.49759900  1
  C  C91  1  0.99944700  0.32977100  0.50068700  1
  C  C92  1  0.00109600  0.67012200  0.49759900  1
  C  C93  1  0.49929200  0.77907300  0.50059600  1
  C  C94  1  0.50125500  0.22082100  0.49767600  1
  C  C95  1  0.99929200  0.27907300  0.50059600  1
  C  C96  1  0.00125500  0.72082100  0.49767600  1
  C  C97  1  0.99914600  0.21966900  0.50049100  1
  C  C98  1  0.00140500  0.78022500  0.49776000  1
  C  C99  1  0.49914600  0.71966900  0.50049100  1
  C  C100  1  0.50140500  0.28022500  0.49776000  1
  C  C101  1  0.99904500  0.16897000  0.50042000  1
  C  C102  1  0.00150900  0.83092400  0.49781500  1
  C  C103  1  0.49904500  0.66897000  0.50042000  1
  C  C104  1  0.50150900  0.33092400  0.49781500  1
  C  C105  1  0.21468000  0.95789000  0.89026100  1
  C  C106  1  0.24067300  0.91207500  0.87606300  1
  C  C107  1  0.22646400  0.86705100  0.92113400  1
  C  C108  1  0.18643300  0.86657200  0.98137200  1
  C  C109  1  0.16047100  0.91145800  0.99680900  1
  C  C110  1  0.17438600  0.95662100  0.95208900  1
  C  C111  1  0.78584400  0.04576700  0.10973400  1
  C  C112  1  0.82613500  0.04786400  0.04796400  1
  C  C113  1  0.84004400  0.09414700  0.00493300  1
  C  C114  1  0.81407600  0.13936900  0.02203500  1
  C  C115  1  0.77404800  0.13811000  0.08224500  1
  C  C116  1  0.75984500  0.09196400  0.12563200  1
  C  C117  1  0.78537000  0.94377600  0.10410300  1
  C  C118  1  0.81475100  0.90247400  0.08864500  1
  C  C119  1  0.82459300  0.86065700  0.04108000  1
  C  C120  1  0.80596800  0.85922200  0.00739400  1
  C  C121  1  0.77763000  0.90015300  0.02077800  1
  C  C122  1  0.76763100  0.94206500  0.06820900  1
  C  C123  1  0.21515400  0.06003500  0.89212500  1
  C  C124  1  0.18576900  0.10080700  0.90607100  1
  C  C125  1  0.17592200  0.14399900  0.95206900  1
  C  C126  1  0.19454700  0.14736400  0.98566800  1
  C  C127  1  0.22288700  0.10700000  0.97378600  1
  C  C128  1  0.23289000  0.06372300  0.92792400  1
  C  C129  1  0.71468000  0.45789000  0.89026100  1
  C  C130  1  0.74067300  0.41207500  0.87606300  1
  C  C131  1  0.72646400  0.36705100  0.92113400  1
  C  C132  1  0.68643300  0.36657200  0.98137200  1
  C  C133  1  0.66047100  0.41145800  0.99680900  1
  C  C134  1  0.67438600  0.45662100  0.95208900  1
  C  C135  1  0.28584400  0.54576700  0.10973400  1
  C  C136  1  0.32613500  0.54786400  0.04796400  1
  C  C137  1  0.34004400  0.59414700  0.00493300  1
  C  C138  1  0.31407600  0.63936900  0.02203500  1
  C  C139  1  0.27404800  0.63811000  0.08224500  1
  C  C140  1  0.25984500  0.59196400  0.12563200  1
  C  C141  1  0.28537000  0.44377600  0.10410300  1
  C  C142  1  0.31475100  0.40247400  0.08864500  1
  C  C143  1  0.32459300  0.36065700  0.04108000  1
  C  C144  1  0.30596800  0.35922200  0.00739400  1
  C  C145  1  0.27763000  0.40015300  0.02077800  1
  C  C146  1  0.26763100  0.44206500  0.06820900  1
  C  C147  1  0.71515400  0.56003500  0.89212500  1
  C  C148  1  0.68576900  0.60080700  0.90607100  1
  C  C149  1  0.67592200  0.64399900  0.95206900  1
  C  C150  1  0.69454700  0.64736400  0.98566800  1
  C  C151  1  0.72288700  0.60700000  0.97378600  1
  C  C152  1  0.73289000  0.56372300  0.92792400  1
  Cl  Cl1  1  0.16868900  0.80917400  0.03825100  1
  Cl  Cl2  1  0.83181100  0.19818700  0.96729800  1
  Cl  Cl3  1  0.81868600  0.80593400  0.94709600  1
  Cl  Cl4  1  0.18182300  0.20238600  0.04397300  1
  Cl  Cl5  1  0.66868900  0.30917400  0.03825100  1
  Cl  Cl6  1  0.33181100  0.69818700  0.96729800  1
  Cl  Cl7  1  0.31868600  0.30593400  0.94709600  1
  Cl  Cl8  1  0.68182300  0.70238600  0.04397300  1
  O  O1  1  0.00280300  0.95277100  0.91309900  1
  O  O2  1  0.99773700  0.04723900  0.08513300  1
  O  O3  1  0.00144100  0.95007600  0.08178600  1
  O  O4  1  0.99909900  0.04993500  0.91644500  1
  O  O5  1  0.50280300  0.45277100  0.91309900  1
  O  O6  1  0.49773700  0.54723900  0.08513300  1
  O  O7  1  0.50144100  0.45007600  0.08178600  1
  O  O8  1  0.49909900  0.54993500  0.91644500  1
  O  O9  1  0.06359100  0.95225400  0.93924900  1
  O  O10  1  0.93694900  0.04775700  0.05898200  1
  O  O11  1  0.93895600  0.95055900  0.05950000  1
  O  O12  1  0.06158300  0.04945200  0.93873200  1
  O  O13  1  0.56359100  0.45225400  0.93924900  1
  O  O14  1  0.43694900  0.54775700  0.05898200  1
  O  O15  1  0.43895600  0.45055900  0.05950000  1
  O  O16  1  0.56158300  0.54945200  0.93873200  1
  O  O17  1  0.50004200  0.91649800  0.45196500  1
  O  O18  1  0.50049700  0.08339500  0.54632700  1
  O  O19  1  0.49953100  0.91597200  0.54962200  1
  O  O20  1  0.50100800  0.08392000  0.44867100  1
  O  O21  1  0.00004200  0.41649800  0.45196500  1
  O  O22  1  0.00049700  0.58339500  0.54632700  1
  O  O23  1  0.99953100  0.41597200  0.54962200  1
  O  O24  1  0.00100800  0.58392000  0.44867100  1
  O  O25  1  0.43659900  0.00216400  0.51727200  1
  O  O26  1  0.56394000  0.99772800  0.48102200  1
  O  O27  1  0.93659900  0.50216400  0.51727200  1
  O  O28  1  0.06394000  0.49772800  0.48102200  1
  O  O29  1  0.43862500  0.99914700  0.61213200  1
  O  O30  1  0.56191300  0.00074600  0.38616100  1
  O  O31  1  0.93862500  0.49914700  0.61213200  1
  O  O32  1  0.06191300  0.50074600  0.38616100  1
  O  O33  1  0.03524500  0.08243700  0.46612800  1
  O  O34  1  0.96531000  0.91745800  0.53209100  1
  O  O35  1  0.96259000  0.08267100  0.53459900  1
  O  O36  1  0.03796500  0.91722400  0.46362000  1
  O  O37  1  0.53524500  0.58243700  0.46612800  1
  O  O38  1  0.46531000  0.41745800  0.53209100  1
  O  O39  1  0.46259000  0.58267100  0.53459900  1
  O  O40  1  0.53796500  0.41722400  0.46362000  1
  O  O41  1  0.03774700  0.99839300  0.54604500  1
  O  O42  1  0.96280900  0.00150300  0.45217400  1
  O  O43  1  0.53774700  0.49839300  0.54604500  1
  O  O44  1  0.46280900  0.50150300  0.45217400  1
  O  O45  1  0.96582900  0.00176600  0.61663200  1
  O  O46  1  0.03472600  0.99813100  0.38158700  1
  O  O47  1  0.46582900  0.50176600  0.61663200  1
  O  O48  1  0.53472600  0.49813100  0.38158700  1
