# generated using pymatgen
data_CuH12(C5O)4
_symmetry_space_group_name_H-M   'P 1'
_cell_length_a   21.53098700
_cell_length_b   21.53098700
_cell_length_c   38.57151800
_cell_angle_alpha   90.00000000
_cell_angle_beta   90.00000000
_cell_angle_gamma   90.00000000
_symmetry_Int_Tables_number   1
_chemical_formula_structural   CuH12(C5O)4
_chemical_formula_sum   'Cu12 H144 C240 O48'
_cell_volume   17881.11550366
_cell_formula_units_Z   12
loop_
 _symmetry_equiv_pos_site_id
 _symmetry_equiv_pos_as_xyz
  1  'x, y, z'
loop_
 _atom_site_type_symbol
 _atom_site_label
 _atom_site_symmetry_multiplicity
 _atom_site_fract_x
 _atom_site_fract_y
 _atom_site_fract_z
 _atom_site_occupancy
  Cu  Cu1  1  0.50000000  0.06060800  0.50000000  1
  Cu  Cu2  1  0.93939200  0.50000000  0.50000000  1
  Cu  Cu3  1  0.50000000  0.93939200  0.50000000  1
  Cu  Cu4  1  0.06060800  0.50000000  0.50000000  1
  Cu  Cu5  1  0.00000000  0.56060800  0.00000000  1
  Cu  Cu6  1  0.43939200  0.00000000  0.00000000  1
  Cu  Cu7  1  0.00000000  0.43939200  0.00000000  1
  Cu  Cu8  1  0.56060800  0.00000000  0.00000000  1
  Cu  Cu9  1  0.00000000  0.00000000  0.46638900  1
  Cu  Cu10  1  0.00000000  0.00000000  0.53361100  1
  Cu  Cu11  1  0.50000000  0.50000000  0.96638900  1
  Cu  Cu12  1  0.50000000  0.50000000  0.03361100  1
  H  H1  1  0.59819400  0.98495300  0.89166000  1
  H  H2  1  0.01504700  0.59819400  0.89166000  1
  H  H3  1  0.40180600  0.01504700  0.89166000  1
  H  H4  1  0.98495300  0.40180600  0.89166000  1
  H  H5  1  0.59819400  0.01504700  0.10834000  1
  H  H6  1  0.01504700  0.40180600  0.10834000  1
  H  H7  1  0.40180600  0.98495300  0.10834000  1
  H  H8  1  0.98495300  0.59819400  0.10834000  1
  H  H9  1  0.09819400  0.48495300  0.39166000  1
  H  H10  1  0.51504700  0.09819400  0.39166000  1
  H  H11  1  0.90180600  0.51504700  0.39166000  1
  H  H12  1  0.48495300  0.90180600  0.39166000  1
  H  H13  1  0.09819400  0.51504700  0.60834000  1
  H  H14  1  0.51504700  0.90180600  0.60834000  1
  H  H15  1  0.90180600  0.48495300  0.60834000  1
  H  H16  1  0.48495300  0.09819400  0.60834000  1
  H  H17  1  0.59848400  0.98648700  0.82904400  1
  H  H18  1  0.01351300  0.59848400  0.82904400  1
  H  H19  1  0.40151600  0.01351300  0.82904400  1
  H  H20  1  0.98648700  0.40151600  0.82904400  1
  H  H21  1  0.59848400  0.01351300  0.17095600  1
  H  H22  1  0.01351300  0.40151600  0.17095600  1
  H  H23  1  0.40151600  0.98648700  0.17095600  1
  H  H24  1  0.98648700  0.59848400  0.17095600  1
  H  H25  1  0.09848400  0.48648700  0.32904400  1
  H  H26  1  0.51351300  0.09848400  0.32904400  1
  H  H27  1  0.90151600  0.51351300  0.32904400  1
  H  H28  1  0.48648700  0.90151600  0.32904400  1
  H  H29  1  0.09848400  0.51351300  0.67095600  1
  H  H30  1  0.51351300  0.90151600  0.67095600  1
  H  H31  1  0.90151600  0.48648700  0.67095600  1
  H  H32  1  0.48648700  0.09848400  0.67095600  1
  H  H33  1  0.43072300  0.07124800  0.78124700  1
  H  H34  1  0.92875200  0.43072300  0.78124700  1
  H  H35  1  0.56927700  0.92875200  0.78124700  1
  H  H36  1  0.07124800  0.56927700  0.78124700  1
  H  H37  1  0.43072300  0.92875200  0.21875300  1
  H  H38  1  0.92875200  0.56927700  0.21875300  1
  H  H39  1  0.56927700  0.07124800  0.21875300  1
  H  H40  1  0.07124800  0.43072300  0.21875300  1
  H  H41  1  0.93072300  0.57124800  0.28124700  1
  H  H42  1  0.42875200  0.93072300  0.28124700  1
  H  H43  1  0.06927700  0.42875200  0.28124700  1
  H  H44  1  0.57124800  0.06927700  0.28124700  1
  H  H45  1  0.93072300  0.42875200  0.71875300  1
  H  H46  1  0.42875200  0.06927700  0.71875300  1
  H  H47  1  0.06927700  0.57124800  0.71875300  1
  H  H48  1  0.57124800  0.93072300  0.71875300  1
  H  H49  1  0.69283600  0.93034400  0.46074200  1
  H  H50  1  0.06965600  0.69283600  0.46074200  1
  H  H51  1  0.30716400  0.06965600  0.46074200  1
  H  H52  1  0.93034400  0.30716400  0.46074200  1
  H  H53  1  0.69283600  0.06965600  0.53925800  1
  H  H54  1  0.06965600  0.30716400  0.53925800  1
  H  H55  1  0.30716400  0.93034400  0.53925800  1
  H  H56  1  0.93034400  0.69283600  0.53925800  1
  H  H57  1  0.19283600  0.43034400  0.96074200  1
  H  H58  1  0.56965600  0.19283600  0.96074200  1
  H  H59  1  0.80716400  0.56965600  0.96074200  1
  H  H60  1  0.43034400  0.80716400  0.96074200  1
  H  H61  1  0.19283600  0.56965600  0.03925800  1
  H  H62  1  0.56965600  0.80716400  0.03925800  1
  H  H63  1  0.80716400  0.43034400  0.03925800  1
  H  H64  1  0.43034400  0.19283600  0.03925800  1
  H  H65  1  0.78159000  0.83939500  0.48044700  1
  H  H66  1  0.83612700  0.76625600  0.44211100  1
  H  H67  1  0.89541700  0.80552500  0.39219500  1
  H  H68  1  0.89866700  0.91772000  0.38028100  1
  H  H69  1  0.84458900  0.99050700  0.41879700  1
  H  H70  1  0.16060500  0.78159000  0.48044700  1
  H  H71  1  0.23374400  0.83612700  0.44211100  1
  H  H72  1  0.19447500  0.89541700  0.39219500  1
  H  H73  1  0.08228000  0.89866700  0.38028100  1
  H  H74  1  0.00949300  0.84458900  0.41879700  1
  H  H75  1  0.21841000  0.16060500  0.48044700  1
  H  H76  1  0.16387300  0.23374400  0.44211100  1
  H  H77  1  0.10458300  0.19447500  0.39219500  1
  H  H78  1  0.10133300  0.08228000  0.38028100  1
  H  H79  1  0.15541100  0.00949300  0.41879700  1
  H  H80  1  0.83939500  0.21841000  0.48044700  1
  H  H81  1  0.76625600  0.16387300  0.44211100  1
  H  H82  1  0.80552500  0.10458300  0.39219500  1
  H  H83  1  0.91772000  0.10133300  0.38028100  1
  H  H84  1  0.99050700  0.15541100  0.41879700  1
  H  H85  1  0.78159000  0.16060500  0.51955300  1
  H  H86  1  0.83612700  0.23374400  0.55788900  1
  H  H87  1  0.89541700  0.19447500  0.60780500  1
  H  H88  1  0.89866700  0.08228000  0.61971900  1
  H  H89  1  0.84458900  0.00949300  0.58120300  1
  H  H90  1  0.16060500  0.21841000  0.51955300  1
  H  H91  1  0.23374400  0.16387300  0.55788900  1
  H  H92  1  0.19447500  0.10458300  0.60780500  1
  H  H93  1  0.08228000  0.10133300  0.61971900  1
  H  H94  1  0.00949300  0.15541100  0.58120300  1
  H  H95  1  0.21841000  0.83939500  0.51955300  1
  H  H96  1  0.16387300  0.76625600  0.55788900  1
  H  H97  1  0.10458300  0.80552500  0.60780500  1
  H  H98  1  0.10133300  0.91772000  0.61971900  1
  H  H99  1  0.15541100  0.99050700  0.58120300  1
  H  H100  1  0.83939500  0.78159000  0.51955300  1
  H  H101  1  0.76625600  0.83612700  0.55788900  1
  H  H102  1  0.80552500  0.89541700  0.60780500  1
  H  H103  1  0.91772000  0.89866700  0.61971900  1
  H  H104  1  0.99050700  0.84458900  0.58120300  1
  H  H105  1  0.28159000  0.33939500  0.98044700  1
  H  H106  1  0.33612700  0.26625600  0.94211100  1
  H  H107  1  0.39541700  0.30552500  0.89219500  1
  H  H108  1  0.39866700  0.41772000  0.88028100  1
  H  H109  1  0.34458900  0.49050700  0.91879700  1
  H  H110  1  0.66060500  0.28159000  0.98044700  1
  H  H111  1  0.73374400  0.33612700  0.94211100  1
  H  H112  1  0.69447500  0.39541700  0.89219500  1
  H  H113  1  0.58228000  0.39866700  0.88028100  1
  H  H114  1  0.50949300  0.34458900  0.91879700  1
  H  H115  1  0.71841000  0.66060500  0.98044700  1
  H  H116  1  0.66387300  0.73374400  0.94211100  1
  H  H117  1  0.60458300  0.69447500  0.89219500  1
  H  H118  1  0.60133300  0.58228000  0.88028100  1
  H  H119  1  0.65541100  0.50949300  0.91879700  1
  H  H120  1  0.33939500  0.71841000  0.98044700  1
  H  H121  1  0.26625600  0.66387300  0.94211100  1
  H  H122  1  0.30552500  0.60458300  0.89219500  1
  H  H123  1  0.41772000  0.60133300  0.88028100  1
  H  H124  1  0.49050700  0.65541100  0.91879700  1
  H  H125  1  0.28159000  0.66060500  0.01955300  1
  H  H126  1  0.33612700  0.73374400  0.05788900  1
  H  H127  1  0.39541700  0.69447500  0.10780500  1
  H  H128  1  0.39866700  0.58228000  0.11971900  1
  H  H129  1  0.34458900  0.50949300  0.08120300  1
  H  H130  1  0.66060500  0.71841000  0.01955300  1
  H  H131  1  0.73374400  0.66387300  0.05788900  1
  H  H132  1  0.69447500  0.60458300  0.10780500  1
  H  H133  1  0.58228000  0.60133300  0.11971900  1
  H  H134  1  0.50949300  0.65541100  0.08120300  1
  H  H135  1  0.71841000  0.33939500  0.01955300  1
  H  H136  1  0.66387300  0.26625600  0.05788900  1
  H  H137  1  0.60458300  0.30552500  0.10780500  1
  H  H138  1  0.60133300  0.41772000  0.11971900  1
  H  H139  1  0.65541100  0.49050700  0.08120300  1
  H  H140  1  0.33939500  0.28159000  0.01955300  1
  H  H141  1  0.26625600  0.33612700  0.05788900  1
  H  H142  1  0.30552500  0.39541700  0.10780500  1
  H  H143  1  0.41772000  0.39866700  0.11971900  1
  H  H144  1  0.49050700  0.34458900  0.08120300  1
  C  C1  1  0.61751400  0.00000000  0.50000000  1
  C  C2  1  0.00000000  0.61751400  0.50000000  1
  C  C3  1  0.38248600  0.00000000  0.50000000  1
  C  C4  1  0.00000000  0.38248600  0.50000000  1
  C  C5  1  0.11751400  0.50000000  0.00000000  1
  C  C6  1  0.50000000  0.11751400  0.00000000  1
  C  C7  1  0.88248600  0.50000000  0.00000000  1
  C  C8  1  0.50000000  0.88248600  0.00000000  1
  C  C9  1  0.50000000  0.00000000  0.56576200  1
  C  C10  1  0.00000000  0.50000000  0.56576200  1
  C  C11  1  0.50000000  0.00000000  0.43423800  1
  C  C12  1  0.00000000  0.50000000  0.43423800  1
  C  C13  1  0.00000000  0.50000000  0.06576200  1
  C  C14  1  0.50000000  0.00000000  0.06576200  1
  C  C15  1  0.00000000  0.50000000  0.93423800  1
  C  C16  1  0.50000000  0.00000000  0.93423800  1
  C  C17  1  0.55467200  0.99124300  0.87816900  1
  C  C18  1  0.00875700  0.55467200  0.87816900  1
  C  C19  1  0.44532800  0.00875700  0.87816900  1
  C  C20  1  0.99124300  0.44532800  0.87816900  1
  C  C21  1  0.55467200  0.00875700  0.12183100  1
  C  C22  1  0.00875700  0.44532800  0.12183100  1
  C  C23  1  0.44532800  0.99124300  0.12183100  1
  C  C24  1  0.99124300  0.55467200  0.12183100  1
  C  C25  1  0.05467200  0.49124300  0.37816900  1
  C  C26  1  0.50875700  0.05467200  0.37816900  1
  C  C27  1  0.94532800  0.50875700  0.37816900  1
  C  C28  1  0.49124300  0.94532800  0.37816900  1
  C  C29  1  0.05467200  0.50875700  0.62183100  1
  C  C30  1  0.50875700  0.94532800  0.62183100  1
  C  C31  1  0.94532800  0.49124300  0.62183100  1
  C  C32  1  0.49124300  0.05467200  0.62183100  1
  C  C33  1  0.55472300  0.99157700  0.84243600  1
  C  C34  1  0.00842300  0.55472300  0.84243600  1
  C  C35  1  0.44527700  0.00842300  0.84243600  1
  C  C36  1  0.99157700  0.44527700  0.84243600  1
  C  C37  1  0.55472300  0.00842300  0.15756400  1
  C  C38  1  0.00842300  0.44527700  0.15756400  1
  C  C39  1  0.44527700  0.99157700  0.15756400  1
  C  C40  1  0.99157700  0.55472300  0.15756400  1
  C  C41  1  0.05472300  0.49157700  0.34243600  1
  C  C42  1  0.50842300  0.05472300  0.34243600  1
  C  C43  1  0.94527700  0.50842300  0.34243600  1
  C  C44  1  0.49157700  0.94527700  0.34243600  1
  C  C45  1  0.05472300  0.50842300  0.65756400  1
  C  C46  1  0.50842300  0.94527700  0.65756400  1
  C  C47  1  0.94527700  0.49157700  0.65756400  1
  C  C48  1  0.49157700  0.05472300  0.65756400  1
  C  C49  1  0.50000000  0.00000000  0.82423700  1
  C  C50  1  0.00000000  0.50000000  0.82423700  1
  C  C51  1  0.50000000  0.00000000  0.17576300  1
  C  C52  1  0.00000000  0.50000000  0.17576300  1
  C  C53  1  0.00000000  0.50000000  0.32423700  1
  C  C54  1  0.50000000  0.00000000  0.32423700  1
  C  C55  1  0.00000000  0.50000000  0.67576300  1
  C  C56  1  0.50000000  0.00000000  0.67576300  1
  C  C57  1  0.50000000  0.00000000  0.89624800  1
  C  C58  1  0.00000000  0.50000000  0.89624800  1
  C  C59  1  0.50000000  0.00000000  0.10375200  1
  C  C60  1  0.00000000  0.50000000  0.10375200  1
  C  C61  1  0.00000000  0.50000000  0.39624800  1
  C  C62  1  0.50000000  0.00000000  0.39624800  1
  C  C63  1  0.00000000  0.50000000  0.60375200  1
  C  C64  1  0.50000000  0.00000000  0.60375200  1
  C  C65  1  0.46095600  0.03919200  0.76786500  1
  C  C66  1  0.96080800  0.46095600  0.76786500  1
  C  C67  1  0.53904400  0.96080800  0.76786500  1
  C  C68  1  0.03919200  0.53904400  0.76786500  1
  C  C69  1  0.46095600  0.96080800  0.23213500  1
  C  C70  1  0.96080800  0.53904400  0.23213500  1
  C  C71  1  0.53904400  0.03919200  0.23213500  1
  C  C72  1  0.03919200  0.46095600  0.23213500  1
  C  C73  1  0.96095600  0.53919200  0.26786500  1
  C  C74  1  0.46080800  0.96095600  0.26786500  1
  C  C75  1  0.03904400  0.46080800  0.26786500  1
  C  C76  1  0.53919200  0.03904400  0.26786500  1
  C  C77  1  0.96095600  0.46080800  0.73213500  1
  C  C78  1  0.46080800  0.03904400  0.73213500  1
  C  C79  1  0.03904400  0.53919200  0.73213500  1
  C  C80  1  0.53919200  0.96095600  0.73213500  1
  C  C81  1  0.50000000  0.00000000  0.71392800  1
  C  C82  1  0.00000000  0.50000000  0.71392800  1
  C  C83  1  0.50000000  0.00000000  0.28607200  1
  C  C84  1  0.00000000  0.50000000  0.28607200  1
  C  C85  1  0.00000000  0.50000000  0.21392800  1
  C  C86  1  0.50000000  0.00000000  0.21392800  1
  C  C87  1  0.00000000  0.50000000  0.78607200  1
  C  C88  1  0.50000000  0.00000000  0.78607200  1
  C  C89  1  0.71756600  0.96087200  0.47817800  1
  C  C90  1  0.03912800  0.71756600  0.47817800  1
  C  C91  1  0.28243400  0.03912800  0.47817800  1
  C  C92  1  0.96087200  0.28243400  0.47817800  1
  C  C93  1  0.71756600  0.03912800  0.52182200  1
  C  C94  1  0.03912800  0.28243400  0.52182200  1
  C  C95  1  0.28243400  0.96087200  0.52182200  1
  C  C96  1  0.96087200  0.71756600  0.52182200  1
  C  C97  1  0.21756600  0.46087200  0.97817800  1
  C  C98  1  0.53912800  0.21756600  0.97817800  1
  C  C99  1  0.78243400  0.53912800  0.97817800  1
  C  C100  1  0.46087200  0.78243400  0.97817800  1
  C  C101  1  0.21756600  0.53912800  0.02182200  1
  C  C102  1  0.53912800  0.78243400  0.02182200  1
  C  C103  1  0.78243400  0.46087200  0.02182200  1
  C  C104  1  0.46087200  0.21756600  0.02182200  1
  C  C105  1  0.78154500  0.96224700  0.47714900  1
  C  C106  1  0.03775300  0.78154500  0.47714900  1
  C  C107  1  0.21845500  0.03775300  0.47714900  1
  C  C108  1  0.96224700  0.21845500  0.47714900  1
  C  C109  1  0.78154500  0.03775300  0.52285100  1
  C  C110  1  0.03775300  0.21845500  0.52285100  1
  C  C111  1  0.21845500  0.96224700  0.52285100  1
  C  C112  1  0.96224700  0.78154500  0.52285100  1
  C  C113  1  0.28154500  0.46224700  0.97714900  1
  C  C114  1  0.53775300  0.28154500  0.97714900  1
  C  C115  1  0.71845500  0.53775300  0.97714900  1
  C  C116  1  0.46224700  0.71845500  0.97714900  1
  C  C117  1  0.28154500  0.53775300  0.02285100  1
  C  C118  1  0.53775300  0.71845500  0.02285100  1
  C  C119  1  0.71845500  0.46224700  0.02285100  1
  C  C120  1  0.46224700  0.28154500  0.02285100  1
  C  C121  1  0.81418500  0.00000000  0.50000000  1
  C  C122  1  0.00000000  0.81418500  0.50000000  1
  C  C123  1  0.18581500  0.00000000  0.50000000  1
  C  C124  1  0.00000000  0.18581500  0.50000000  1
  C  C125  1  0.31418500  0.50000000  0.00000000  1
  C  C126  1  0.50000000  0.31418500  0.00000000  1
  C  C127  1  0.68581500  0.50000000  0.00000000  1
  C  C128  1  0.50000000  0.68581500  0.00000000  1
  C  C129  1  0.68540300  0.00000000  0.50000000  1
  C  C130  1  0.00000000  0.68540300  0.50000000  1
  C  C131  1  0.31459700  0.00000000  0.50000000  1
  C  C132  1  0.00000000  0.31459700  0.50000000  1
  C  C133  1  0.18540300  0.50000000  0.00000000  1
  C  C134  1  0.50000000  0.18540300  0.00000000  1
  C  C135  1  0.81459700  0.50000000  0.00000000  1
  C  C136  1  0.50000000  0.81459700  0.00000000  1
  C  C137  1  0.00000000  0.11765400  0.50000000  1
  C  C138  1  0.88234600  0.00000000  0.50000000  1
  C  C139  1  0.00000000  0.88234600  0.50000000  1
  C  C140  1  0.11765400  0.00000000  0.50000000  1
  C  C141  1  0.50000000  0.61765400  0.00000000  1
  C  C142  1  0.38234600  0.50000000  0.00000000  1
  C  C143  1  0.50000000  0.38234600  0.00000000  1
  C  C144  1  0.61765400  0.50000000  0.00000000  1
  C  C145  1  0.81328900  0.91965700  0.45349800  1
  C  C146  1  0.80869400  0.85661200  0.45896600  1
  C  C147  1  0.83875200  0.81562600  0.43725700  1
  C  C148  1  0.87184000  0.83761500  0.40925700  1
  C  C149  1  0.87378300  0.90048700  0.40263500  1
  C  C150  1  0.84389500  0.94140300  0.42447600  1
  C  C151  1  0.08034300  0.81328900  0.45349800  1
  C  C152  1  0.14338800  0.80869400  0.45896600  1
  C  C153  1  0.18437400  0.83875200  0.43725700  1
  C  C154  1  0.16238500  0.87184000  0.40925700  1
  C  C155  1  0.09951300  0.87378300  0.40263500  1
  C  C156  1  0.05859700  0.84389500  0.42447600  1
  C  C157  1  0.18671200  0.08034300  0.45349800  1
  C  C158  1  0.19130600  0.14338800  0.45896600  1
  C  C159  1  0.16124800  0.18437400  0.43725700  1
  C  C160  1  0.12816000  0.16238500  0.40925700  1
  C  C161  1  0.12621700  0.09951300  0.40263500  1
  C  C162  1  0.15610500  0.05859700  0.42447600  1
  C  C163  1  0.91965700  0.18671200  0.45349800  1
  C  C164  1  0.85661200  0.19130600  0.45896600  1
  C  C165  1  0.81562600  0.16124800  0.43725700  1
  C  C166  1  0.83761500  0.12816000  0.40925700  1
  C  C167  1  0.90048700  0.12621700  0.40263500  1
  C  C168  1  0.94140300  0.15610500  0.42447600  1
  C  C169  1  0.81328900  0.08034300  0.54650200  1
  C  C170  1  0.80869400  0.14338800  0.54103400  1
  C  C171  1  0.83875200  0.18437400  0.56274300  1
  C  C172  1  0.87184000  0.16238500  0.59074300  1
  C  C173  1  0.87378300  0.09951300  0.59736500  1
  C  C174  1  0.84389500  0.05859700  0.57552400  1
  C  C175  1  0.08034300  0.18671200  0.54650200  1
  C  C176  1  0.14338800  0.19130600  0.54103400  1
  C  C177  1  0.18437400  0.16124800  0.56274300  1
  C  C178  1  0.16238500  0.12816000  0.59074300  1
  C  C179  1  0.09951300  0.12621700  0.59736500  1
  C  C180  1  0.05859700  0.15610500  0.57552400  1
  C  C181  1  0.18671200  0.91965700  0.54650200  1
  C  C182  1  0.19130600  0.85661200  0.54103400  1
  C  C183  1  0.16124800  0.81562600  0.56274300  1
  C  C184  1  0.12816000  0.83761500  0.59074300  1
  C  C185  1  0.12621700  0.90048700  0.59736500  1
  C  C186  1  0.15610500  0.94140300  0.57552400  1
  C  C187  1  0.91965700  0.81328900  0.54650200  1
  C  C188  1  0.85661200  0.80869400  0.54103400  1
  C  C189  1  0.81562600  0.83875200  0.56274300  1
  C  C190  1  0.83761500  0.87184000  0.59074300  1
  C  C191  1  0.90048700  0.87378300  0.59736500  1
  C  C192  1  0.94140300  0.84389500  0.57552400  1
  C  C193  1  0.31328900  0.41965700  0.95349800  1
  C  C194  1  0.30869400  0.35661200  0.95896600  1
  C  C195  1  0.33875200  0.31562600  0.93725700  1
  C  C196  1  0.37184000  0.33761500  0.90925700  1
  C  C197  1  0.37378300  0.40048700  0.90263500  1
  C  C198  1  0.34389500  0.44140300  0.92447600  1
  C  C199  1  0.58034300  0.31328900  0.95349800  1
  C  C200  1  0.64338800  0.30869400  0.95896600  1
  C  C201  1  0.68437400  0.33875200  0.93725700  1
  C  C202  1  0.66238500  0.37184000  0.90925700  1
  C  C203  1  0.59951300  0.37378300  0.90263500  1
  C  C204  1  0.55859700  0.34389500  0.92447600  1
  C  C205  1  0.68671200  0.58034300  0.95349800  1
  C  C206  1  0.69130600  0.64338800  0.95896600  1
  C  C207  1  0.66124800  0.68437400  0.93725700  1
  C  C208  1  0.62816000  0.66238500  0.90925700  1
  C  C209  1  0.62621700  0.59951300  0.90263500  1
  C  C210  1  0.65610500  0.55859700  0.92447600  1
  C  C211  1  0.41965700  0.68671200  0.95349800  1
  C  C212  1  0.35661200  0.69130600  0.95896600  1
  C  C213  1  0.31562600  0.66124800  0.93725700  1
  C  C214  1  0.33761500  0.62816000  0.90925700  1
  C  C215  1  0.40048700  0.62621700  0.90263500  1
  C  C216  1  0.44140300  0.65610500  0.92447600  1
  C  C217  1  0.31328900  0.58034300  0.04650200  1
  C  C218  1  0.30869400  0.64338800  0.04103400  1
  C  C219  1  0.33875200  0.68437400  0.06274300  1
  C  C220  1  0.37184000  0.66238500  0.09074300  1
  C  C221  1  0.37378300  0.59951300  0.09736500  1
  C  C222  1  0.34389500  0.55859700  0.07552400  1
  C  C223  1  0.58034300  0.68671200  0.04650200  1
  C  C224  1  0.64338800  0.69130600  0.04103400  1
  C  C225  1  0.68437400  0.66124800  0.06274300  1
  C  C226  1  0.66238500  0.62816000  0.09074300  1
  C  C227  1  0.59951300  0.62621700  0.09736500  1
  C  C228  1  0.55859700  0.65610500  0.07552400  1
  C  C229  1  0.68671200  0.41965700  0.04650200  1
  C  C230  1  0.69130600  0.35661200  0.04103400  1
  C  C231  1  0.66124800  0.31562600  0.06274300  1
  C  C232  1  0.62816000  0.33761500  0.09074300  1
  C  C233  1  0.62621700  0.40048700  0.09736500  1
  C  C234  1  0.65610500  0.44140300  0.07552400  1
  C  C235  1  0.41965700  0.31328900  0.04650200  1
  C  C236  1  0.35661200  0.30869400  0.04103400  1
  C  C237  1  0.31562600  0.33875200  0.06274300  1
  C  C238  1  0.33761500  0.37184000  0.09074300  1
  C  C239  1  0.40048700  0.37378300  0.09736500  1
  C  C240  1  0.44140300  0.34389500  0.07552400  1
  O  O1  1  0.58843200  0.05108900  0.50986900  1
  O  O2  1  0.94891100  0.58843200  0.50986900  1
  O  O3  1  0.41156800  0.94891100  0.50986900  1
  O  O4  1  0.05108900  0.41156800  0.50986900  1
  O  O5  1  0.58843200  0.94891100  0.49013100  1
  O  O6  1  0.94891100  0.41156800  0.49013100  1
  O  O7  1  0.41156800  0.05108900  0.49013100  1
  O  O8  1  0.05108900  0.58843200  0.49013100  1
  O  O9  1  0.08843200  0.55108900  0.00986900  1
  O  O10  1  0.44891100  0.08843200  0.00986900  1
  O  O11  1  0.91156800  0.44891100  0.00986900  1
  O  O12  1  0.55108900  0.91156800  0.00986900  1
  O  O13  1  0.08843200  0.44891100  0.99013100  1
  O  O14  1  0.44891100  0.91156800  0.99013100  1
  O  O15  1  0.91156800  0.55108900  0.99013100  1
  O  O16  1  0.55108900  0.08843200  0.99013100  1
  O  O17  1  0.48243300  0.05110700  0.54947900  1
  O  O18  1  0.94889300  0.48243300  0.54947900  1
  O  O19  1  0.51756700  0.94889300  0.54947900  1
  O  O20  1  0.05110700  0.51756700  0.54947900  1
  O  O21  1  0.48243300  0.94889300  0.45052100  1
  O  O22  1  0.94889300  0.51756700  0.45052100  1
  O  O23  1  0.51756700  0.05110700  0.45052100  1
  O  O24  1  0.05110700  0.48243300  0.45052100  1
  O  O25  1  0.98243300  0.55110700  0.04947900  1
  O  O26  1  0.44889300  0.98243300  0.04947900  1
  O  O27  1  0.01756700  0.44889300  0.04947900  1
  O  O28  1  0.55110700  0.01756700  0.04947900  1
  O  O29  1  0.98243300  0.44889300  0.95052100  1
  O  O30  1  0.44889300  0.01756700  0.95052100  1
  O  O31  1  0.01756700  0.55110700  0.95052100  1
  O  O32  1  0.55110700  0.98243300  0.95052100  1
  O  O33  1  0.01888400  0.08839900  0.47176800  1
  O  O34  1  0.91160100  0.01888400  0.47176800  1
  O  O35  1  0.98111600  0.91160100  0.47176800  1
  O  O36  1  0.08839900  0.98111600  0.47176800  1
  O  O37  1  0.01888400  0.91160100  0.52823200  1
  O  O38  1  0.91160100  0.98111600  0.52823200  1
  O  O39  1  0.98111600  0.08839900  0.52823200  1
  O  O40  1  0.08839900  0.01888400  0.52823200  1
  O  O41  1  0.51888400  0.58839900  0.97176800  1
  O  O42  1  0.41160100  0.51888400  0.97176800  1
  O  O43  1  0.48111600  0.41160100  0.97176800  1
  O  O44  1  0.58839900  0.48111600  0.97176800  1
  O  O45  1  0.51888400  0.41160100  0.02823200  1
  O  O46  1  0.41160100  0.48111600  0.02823200  1
  O  O47  1  0.48111600  0.58839900  0.02823200  1
  O  O48  1  0.58839900  0.51888400  0.02823200  1
