# generated using pymatgen
data_FeH11C30NO11
_symmetry_space_group_name_H-M   'P 1'
_cell_length_a   15.93460100
_cell_length_b   23.98432100
_cell_length_c   13.83605000
_cell_angle_alpha   85.43989900
_cell_angle_beta   97.50872000
_cell_angle_gamma   94.98223100
_symmetry_Int_Tables_number   1
_chemical_formula_structural   FeH11C30NO11
_chemical_formula_sum   'Fe2 H22 C60 N2 O22'
_cell_volume   5210.26845925
_cell_formula_units_Z   2
loop_
 _symmetry_equiv_pos_site_id
 _symmetry_equiv_pos_as_xyz
  1  'x, y, z'
loop_
 _atom_site_type_symbol
 _atom_site_label
 _atom_site_symmetry_multiplicity
 _atom_site_fract_x
 _atom_site_fract_y
 _atom_site_fract_z
 _atom_site_occupancy
  Fe  Fe1  1  0.51167300  0.00686100  0.79451000  1
  Fe  Fe2  1  0.50716700  0.99485900  0.21818000  1
  H  H1  1  0.23600800  0.98640000  0.78332100  1
  H  H2  1  0.09085800  0.98409900  0.82442500  1
  H  H3  1  0.18549000  0.00818500  0.12046000  1
  H  H4  1  0.83333600  0.99318900  0.89209300  1
  H  H5  1  0.78280500  0.01440500  0.22942000  1
  H  H6  1  0.92795200  0.01656600  0.18836500  1
  H  H7  1  0.51522100  0.79292300  0.68157500  1
  H  H8  1  0.48035900  0.19968800  0.63733300  1
  H  H9  1  0.30169400  0.35300900  0.53191300  1
  H  H10  1  0.30621000  0.45052800  0.54379000  1
  H  H11  1  0.33432900  0.52447400  0.61379100  1
  H  H12  1  0.53984000  0.80181600  0.37616700  1
  H  H13  1  0.71078300  0.65182100  0.44751000  1
  H  H14  1  0.71441100  0.46998400  0.46041300  1
  H  H15  1  0.70434700  0.37269400  0.44776000  1
  H  H16  1  0.51002500  0.20933100  0.33343200  1
  H  H17  1  0.70723100  0.55514300  0.43402500  1
  H  H18  1  0.55051600  0.95115700  0.52154800  1
  H  H19  1  0.46822200  0.05072700  0.49056600  1
  H  H20  1  0.33022500  0.70186600  0.83831500  1
  H  H21  1  0.26606600  0.63679000  0.82022500  1
  H  H22  1  0.24686200  0.69797300  0.73664100  1
  C  C1  1  0.22572000  0.99001800  0.85818000  1
  C  C2  1  0.14406200  0.98932800  0.88086900  1
  C  C3  1  0.13031200  0.99729800  0.97469400  1
  C  C4  1  0.19819100  0.00362200  0.04680600  1
  C  C5  1  0.28079600  0.00397800  0.02512800  1
  C  C6  1  0.29424600  0.99887800  0.92882000  1
  C  C7  1  0.04516400  0.99944700  0.99710600  1
  C  C8  1  0.97363900  0.00154000  0.01555100  1
  C  C9  1  0.82062800  0.99762100  0.96578800  1
  C  C10  1  0.73802500  0.99734100  0.98744300  1
  C  C11  1  0.72456700  0.00228100  0.08380300  1
  C  C12  1  0.79309900  0.01089700  0.15452900  1
  C  C13  1  0.87475300  0.01151100  0.13186500  1
  C  C14  1  0.88849900  0.00371400  0.03797200  1
  C  C15  1  0.46006100  0.08571500  0.65879600  1
  C  C16  1  0.37844400  0.00869200  0.89667500  1
  C  C17  1  0.66770200  0.99486800  0.90674400  1
  C  C18  1  0.52268800  0.90682500  0.69639400  1
  C  C19  1  0.49865600  0.09522300  0.31681800  1
  C  C20  1  0.35115400  0.00668800  0.10576500  1
  C  C21  1  0.64032500  0.99264200  0.11588500  1
  C  C22  1  0.55887200  0.91584600  0.35378600  1
  C  C23  1  0.45821600  0.69913100  0.55794200  1
  C  C24  1  0.59322200  0.70708000  0.50676800  1
  C  C25  1  0.53759600  0.82222300  0.44259800  1
  C  C26  1  0.54697900  0.87984100  0.44160600  1
  C  C27  1  0.53064200  0.87546100  0.61162700  1
  C  C28  1  0.52337200  0.81746200  0.61400400  1
  C  C29  1  0.52851200  0.79072600  0.52964000  1
  C  C30  1  0.52147500  0.61593900  0.52801800  1
  C  C31  1  0.45618200  0.64056400  0.56149800  1
  C  C32  1  0.38975900  0.60588500  0.59478900  1
  C  C33  1  0.59046800  0.64970700  0.50191800  1
  C  C34  1  0.54463600  0.90588500  0.52572100  1
  C  C35  1  0.47511100  0.09598200  0.48696900  1
  C  C36  1  0.44012700  0.46758300  0.52654000  1
  C  C37  1  0.58335300  0.47570700  0.48629300  1
  C  C38  1  0.50951600  0.44305100  0.50211900  1
  C  C39  1  0.36498500  0.43410600  0.53387800  1
  C  C40  1  0.36111500  0.37736600  0.52468300  1
  C  C41  1  0.43162000  0.35257800  0.50686300  1
  C  C42  1  0.50512800  0.38535100  0.49414500  1
  C  C43  1  0.57429700  0.35969000  0.47408300  1
  C  C44  1  0.56970800  0.30200900  0.46895200  1
  C  C45  1  0.42862600  0.29512100  0.50110600  1
  C  C46  1  0.48313800  0.17933200  0.57098100  1
  C  C47  1  0.47255700  0.12180400  0.57126700  1
  C  C48  1  0.49086100  0.12654100  0.40171700  1
  C  C49  1  0.50006000  0.18454100  0.40026100  1
  C  C50  1  0.49440200  0.21096600  0.48475900  1
  C  C51  1  0.44672300  0.52487300  0.54176300  1
  C  C52  1  0.51810800  0.55817400  0.52009500  1
  C  C53  1  0.58581000  0.53412300  0.48986200  1
  C  C54  1  0.38484400  0.54925500  0.58253400  1
  C  C55  1  0.65650400  0.62622000  0.46973900  1
  C  C56  1  0.65316100  0.44875400  0.46779400  1
  C  C57  1  0.64844500  0.39165200  0.46176200  1
  C  C58  1  0.65437100  0.56938400  0.46344400  1
  C  C59  1  0.32718500  0.62521100  0.65150000  1
  C  C60  1  0.29617500  0.67443200  0.78265600  1
  N  N1  1  0.52686600  0.73094500  0.53256000  1
  N  N2  1  0.49749300  0.27067000  0.48325700  1
  O  O1  1  0.52165400  0.08372000  0.73153700  1
  O  O2  1  0.42358700  0.05612200  0.91375600  1
  O  O3  1  0.40362100  0.04261300  0.65015300  1
  O  O4  1  0.40479700  0.97370500  0.84102800  1
  O  O5  1  0.59099000  0.00647200  0.91969100  1
  O  O6  1  0.68348300  0.98630100  0.81863900  1
  O  O7  1  0.53365700  0.96177800  0.68561700  1
  O  O8  1  0.50089100  0.88151100  0.77802100  1
  O  O9  1  0.48523800  0.04034900  0.32665600  1
  O  O10  1  0.52257000  0.12041100  0.23609600  1
  O  O11  1  0.42788400  0.99508500  0.09288400  1
  O  O12  1  0.33539000  0.01542500  0.19380300  1
  O  O13  1  0.61575800  0.95873100  0.36179500  1
  O  O14  1  0.61420000  0.02767900  0.17161700  1
  O  O15  1  0.49668000  0.91812200  0.28176500  1
  O  O16  1  0.59494200  0.94530900  0.09871800  1
  O  O17  1  0.38987800  0.72502400  0.57229200  1
  O  O18  1  0.35652200  0.26330100  0.51294700  1
  O  O19  1  0.66236100  0.73945900  0.48516000  1
  O  O20  1  0.63813600  0.27681700  0.45259700  1
  O  O21  1  0.25313400  0.60680700  0.63756700  1
  O  O22  1  0.35291600  0.65856600  0.72553400  1
