# generated using pymatgen
data_ZnH15C26(N2O3)2
_symmetry_space_group_name_H-M   'P 1'
_cell_length_a   12.78429500
_cell_length_b   17.56831100
_cell_length_c   8.56248600
_cell_angle_alpha   90.00000000
_cell_angle_beta   93.29687200
_cell_angle_gamma   90.00000000
_symmetry_Int_Tables_number   1
_chemical_formula_structural   ZnH15C26(N2O3)2
_chemical_formula_sum   'Zn2 H30 C52 N8 O12'
_cell_volume   1919.93841217
_cell_formula_units_Z   2
loop_
 _symmetry_equiv_pos_site_id
 _symmetry_equiv_pos_as_xyz
  1  'x, y, z'
loop_
 _atom_site_type_symbol
 _atom_site_label
 _atom_site_symmetry_multiplicity
 _atom_site_fract_x
 _atom_site_fract_y
 _atom_site_fract_z
 _atom_site_occupancy
  Zn  Zn1  1  0.49520100  0.08613300  0.49895500  1
  Zn  Zn2  1  0.50469400  0.91387900  0.50138000  1
  H  H1  1  0.84813600  0.99206100  0.28460000  1
  H  H2  1  0.15267800  0.01485700  0.71614500  1
  H  H3  1  0.85876300  0.99213900  0.78451900  1
  H  H4  1  0.14138800  0.00843500  0.21597700  1
  H  H5  1  0.57205700  0.02586700  0.99646300  1
  H  H6  1  0.42675300  0.97090500  0.00338700  1
  H  H7  1  0.23451000  0.31684900  0.48992900  1
  H  H8  1  0.76549900  0.68298100  0.52386900  1
  H  H9  1  0.75707100  0.31171800  0.50031600  1
  H  H10  1  0.24244200  0.68833700  0.47427200  1
  H  H11  1  0.14445200  0.43437200  0.47894800  1
  H  H12  1  0.85535300  0.56558700  0.52102400  1
  H  H13  1  0.85214800  0.42658300  0.51316000  1
  H  H14  1  0.14750300  0.57341100  0.47398700  1
  H  H15  1  0.26117700  0.19242200  0.58658100  1
  H  H16  1  0.12130100  0.11570100  0.39470200  1
  H  H17  1  0.10803700  0.17310200  0.21882600  1
  H  H18  1  0.09774700  0.21687100  0.40861600  1
  H  H19  1  0.74100700  0.80748000  0.61801600  1
  H  H20  1  0.87874500  0.88152000  0.44547300  1
  H  H21  1  0.88667400  0.82532300  0.26898900  1
  H  H22  1  0.90010500  0.78005300  0.45886000  1
  H  H23  1  0.72532200  0.18572300  0.41185900  1
  H  H24  1  0.86247800  0.11065900  0.61608000  1
  H  H25  1  0.87994900  0.17523000  0.78038800  1
  H  H26  1  0.89107300  0.21004900  0.58313900  1
  H  H27  1  0.27168600  0.81405600  0.39023400  1
  H  H28  1  0.13966700  0.88881400  0.57890600  1
  H  H29  1  0.12745300  0.82475500  0.74257200  1
  H  H30  1  0.11083900  0.78921500  0.54434600  1
  C  C1  1  0.70237700  0.00449600  0.15382000  1
  C  C2  1  0.29740900  0.99595100  0.84642100  1
  C  C3  1  0.80925600  0.99604500  0.16953900  1
  C  C4  1  0.19112300  0.00792600  0.83100100  1
  C  C5  1  0.86743100  0.99633000  0.03856100  1
  C  C6  1  0.13276400  0.00701800  0.96178300  1
  C  C7  1  0.81654800  0.99741600  0.88978100  1
  C  C8  1  0.18349300  0.00387200  0.11054100  1
  C  C9  1  0.70871000  0.00578200  0.87596900  1
  C  C10  1  0.29107000  0.99407700  0.12424900  1
  C  C11  1  0.65438700  0.01443600  0.00812300  1
  C  C12  1  0.34491700  0.98415300  0.99193700  1
  C  C13  1  0.63738600  0.00213500  0.28798900  1
  C  C14  1  0.36256500  0.99801100  0.71241700  1
  C  C15  1  0.35322200  0.99685200  0.27357200  1
  C  C16  1  0.64670000  0.00306700  0.72664400  1
  C  C17  1  0.40203200  0.22486000  0.49452900  1
  C  C18  1  0.59789200  0.77510800  0.50903400  1
  C  C19  1  0.58591900  0.22338600  0.50136400  1
  C  C20  1  0.41391900  0.77662100  0.49508300  1
  C  C21  1  0.30953200  0.34495000  0.49129300  1
  C  C22  1  0.69036700  0.65497000  0.51576900  1
  C  C23  1  0.68317700  0.34115700  0.50172900  1
  C  C24  1  0.31646600  0.65885900  0.48341700  1
  C  C25  1  0.40223500  0.30395800  0.49470500  1
  C  C26  1  0.59764300  0.69600000  0.50871200  1
  C  C27  1  0.58876300  0.30223400  0.49997500  1
  C  C28  1  0.41099300  0.69776800  0.49273000  1
  C  C29  1  0.49632000  0.34257800  0.49740100  1
  C  C30  1  0.50347800  0.65740000  0.50015300  1
  C  C31  1  0.21877800  0.46384800  0.48254100  1
  C  C32  1  0.78100400  0.53611300  0.51553600  1
  C  C33  1  0.77917900  0.45776200  0.51096000  1
  C  C34  1  0.22051500  0.54222400  0.47963100  1
  C  C35  1  0.31146100  0.42346600  0.48906300  1
  C  C36  1  0.68835200  0.57647900  0.51204700  1
  C  C37  1  0.68474200  0.41954800  0.50498900  1
  C  C38  1  0.31494700  0.58044700  0.48517800  1
  C  C39  1  0.40569600  0.46167500  0.49316200  1
  C  C40  1  0.59407800  0.53828900  0.50459800  1
  C  C41  1  0.59225600  0.45971500  0.50249300  1
  C  C42  1  0.40748900  0.54026100  0.49256300  1
  C  C43  1  0.49808700  0.42126700  0.49765300  1
  C  C44  1  0.50168200  0.57870700  0.49913600  1
  C  C45  1  0.25282900  0.18601700  0.35286300  1
  C  C46  1  0.13770800  0.17201700  0.34308600  1
  C  C47  1  0.74432600  0.81332300  0.38508300  1
  C  C48  1  0.85972300  0.82589000  0.38979900  1
  C  C49  1  0.73503000  0.18659400  0.64613800  1
  C  C50  1  0.84937000  0.16956600  0.65708800  1
  C  C51  1  0.26877600  0.81351400  0.62379400  1
  C  C52  1  0.15445100  0.83011900  0.62227400  1
  N  N1  1  0.97781800  0.99470200  0.06096900  1
  N  N2  1  0.02238500  0.00928000  0.93931500  1
  N  N3  1  0.49328100  0.18608000  0.49803200  1
  N  N4  1  0.50661700  0.81392600  0.50229000  1
  N  N5  1  0.30674400  0.18438900  0.49271200  1
  N  N6  1  0.69333400  0.81551000  0.51839700  1
  N  N7  1  0.68022100  0.18157200  0.50726600  1
  N  N8  1  0.31963800  0.81843100  0.49057500  1
  O  O1  1  0.60951600  0.93490300  0.34014100  1
  O  O2  1  0.39012900  0.06516900  0.65983400  1
  O  O3  1  0.40026500  0.93304200  0.66398400  1
  O  O4  1  0.59998100  0.06707700  0.33682100  1
  O  O5  1  0.38426300  0.06349200  0.32731500  1
  O  O6  1  0.61588500  0.93646000  0.67268400  1
  O  O7  1  0.60589000  0.06669700  0.67250100  1
  O  O8  1  0.39368300  0.93321100  0.32819700  1
  O  O9  1  0.29806600  0.19950900  0.23444600  1
  O  O10  1  0.69633400  0.80009600  0.26089000  1
  O  O11  1  0.69102200  0.20506300  0.76290300  1
  O  O12  1  0.31630700  0.79536200  0.74561700  1
