# generated using pymatgen
data_Cu2H23C36Br(N3O4)2
_symmetry_space_group_name_H-M   'P 1'
_cell_length_a   11.04404000
_cell_length_b   15.56342200
_cell_length_c   17.01823500
_cell_angle_alpha   96.35828100
_cell_angle_beta   89.99655700
_cell_angle_gamma   92.84878800
_symmetry_Int_Tables_number   1
_chemical_formula_structural   Cu2H23C36Br(N3O4)2
_chemical_formula_sum   'Cu2 H23 C36 Br1 N6 O8'
_cell_volume   2903.51673418
_cell_formula_units_Z   1
loop_
 _symmetry_equiv_pos_site_id
 _symmetry_equiv_pos_as_xyz
  1  'x, y, z'
loop_
 _atom_site_type_symbol
 _atom_site_label
 _atom_site_symmetry_multiplicity
 _atom_site_fract_x
 _atom_site_fract_y
 _atom_site_fract_z
 _atom_site_occupancy
  Cu  Cu1  1  0.49272400  0.41333200  0.49664100  1
  Cu  Cu2  1  0.50331100  0.58630500  0.50370000  1
  H  H1  1  0.89796200  0.63174200  0.51140400  1
  H  H2  1  0.89889600  0.43392300  0.48911800  1
  H  H3  1  0.12062400  0.63017400  0.50813600  1
  H  H4  1  0.08897400  0.43215200  0.49707900  1
  H  H5  1  0.49491100  0.37779000  0.74310000  1
  H  H6  1  0.49001300  0.38606700  0.88449700  1
  H  H7  1  0.48789500  0.33699600  0.10098700  1
  H  H8  1  0.49274300  0.34510800  0.24460500  1
  H  H9  1  0.50965100  0.65428800  0.75560900  1
  H  H10  1  0.49756900  0.61395100  0.11698700  1
  H  H11  1  0.50527500  0.66334900  0.89903900  1
  H  H12  1  0.50281600  0.62165500  0.25823900  1
  H  H13  1  0.62205300  0.28080200  0.57529200  1
  H  H14  1  0.61325600  0.12619700  0.57058100  1
  H  H15  1  0.66068000  0.88850400  0.60548400  1
  H  H16  1  0.64969600  0.73048500  0.59675500  1
  H  H17  1  0.34342200  0.27145900  0.40618200  1
  H  H18  1  0.38254100  0.87225700  0.42808100  1
  H  H19  1  0.37610800  0.71695300  0.42327300  1
  H  H20  1  0.43283100  0.01931100  0.32120200  1
  H  H21  1  0.28225300  0.94074700  0.23169900  1
  H  H22  1  0.00461200  0.09066900  0.34168900  1
  H  H23  1  0.15444900  0.17141000  0.43077800  1
  C  C1  1  0.49697700  0.48983300  0.34845000  1
  C  C2  1  0.26574100  0.49876200  0.50059300  1
  C  C3  1  0.50007900  0.50977800  0.65208000  1
  C  C4  1  0.73106500  0.50013000  0.49907800  1
  C  C5  1  0.93735000  0.56894200  0.50458300  1
  C  C6  1  0.86372000  0.49748600  0.49689200  1
  C  C7  1  0.07148200  0.56797800  0.50413200  1
  C  C8  1  0.13334400  0.49581800  0.50019600  1
  C  C9  1  0.49625300  0.48413600  0.26190200  1
  C  C10  1  0.49868200  0.55854800  0.22440500  1
  C  C11  1  0.49701200  0.55368900  0.14297900  1
  C  C12  1  0.49402300  0.47359000  0.09800800  1
  C  C13  1  0.49154700  0.39954600  0.13568800  1
  C  C14  1  0.49304200  0.40440900  0.21704100  1
  C  C15  1  0.49475200  0.44621300  0.85810100  1
  C  C16  1  0.49638000  0.44105200  0.77655700  1
  C  C17  1  0.49837700  0.52658200  0.90280200  1
  C  C18  1  0.50034700  0.51535900  0.73871400  1
  C  C19  1  0.50431800  0.59512900  0.78340300  1
  C  C20  1  0.50313000  0.60044500  0.86474200  1
  C  C21  1  0.43955200  0.75490300  0.46324400  1
  C  C22  1  0.44332400  0.84393100  0.46622000  1
  C  C23  1  0.52392900  0.89328000  0.51727500  1
  C  C24  1  0.59779600  0.85152300  0.56441800  1
  C  C25  1  0.59161100  0.76249500  0.55968800  1
  C  C26  1  0.55271400  0.15469800  0.53212400  1
  C  C27  1  0.55717900  0.24365900  0.53608900  1
  C  C28  1  0.47048300  0.10580100  0.48173600  1
  C  C29  1  0.40193800  0.23792300  0.44207400  1
  C  C30  1  0.39376200  0.14842300  0.43669500  1
  C  C31  1  0.30367500  0.09990300  0.38330700  1
  C  C32  1  0.33859400  0.03474300  0.32718400  1
  C  C33  1  0.25392700  0.99038500  0.27639000  1
  C  C34  1  0.13371100  0.00976800  0.28209100  1
  C  C35  1  0.09858900  0.07468000  0.33782100  1
  C  C36  1  0.18335200  0.12047300  0.38763500  1
  Br  Br1  1  0.01637900  0.94826100  0.21200900  1
  N  N1  1  0.49417400  0.46487600  0.01428400  1
  N  N2  1  0.49801700  0.53559000  0.98652300  1
  N  N3  1  0.51182900  0.71554600  0.51096000  1
  N  N4  1  0.53335900  0.98465600  0.52198400  1
  N  N5  1  0.46018900  0.01448800  0.47785400  1
  N  N6  1  0.48474100  0.28400500  0.49006300  1
  O  O1  1  0.49573400  0.41802500  0.38207800  1
  O  O2  1  0.49824100  0.56665300  0.38912200  1
  O  O3  1  0.31756000  0.42491300  0.49527400  1
  O  O4  1  0.32678900  0.57322800  0.50239300  1
  O  O5  1  0.49956300  0.43321900  0.61156800  1
  O  O6  1  0.49952800  0.58144400  0.61857100  1
  O  O7  1  0.66930300  0.42573900  0.49332600  1
  O  O8  1  0.67897000  0.57430800  0.50217000  1
