# generated using pymatgen
data_Zn3H37C73O12
_symmetry_space_group_name_H-M   'P 1'
_cell_length_a   27.82137000
_cell_length_b   27.84080800
_cell_length_c   27.95406900
_cell_angle_alpha   109.30854700
_cell_angle_beta   109.69464200
_cell_angle_gamma   109.19976800
_symmetry_Int_Tables_number   1
_chemical_formula_structural   Zn3H37C73O12
_chemical_formula_sum   'Zn6 H74 C146 O24'
_cell_volume   16710.94383066
_cell_formula_units_Z   2
loop_
 _symmetry_equiv_pos_site_id
 _symmetry_equiv_pos_as_xyz
  1  'x, y, z'
loop_
 _atom_site_type_symbol
 _atom_site_label
 _atom_site_symmetry_multiplicity
 _atom_site_fract_x
 _atom_site_fract_y
 _atom_site_fract_z
 _atom_site_occupancy
  Zn  Zn1  1  0.00216600  0.04767100  0.54912600  1
  Zn  Zn2  1  0.00139800  0.95371800  0.45440800  1
  Zn  Zn3  1  0.45544000  0.95371900  0.00420500  1
  Zn  Zn4  1  0.54980700  0.04844400  0.00520700  1
  Zn  Zn5  1  0.45364300  0.50258400  0.45487400  1
  Zn  Zn6  1  0.54746800  0.50155200  0.54887600  1
  H  H1  1  0.71901600  0.90203400  0.24204500  1
  H  H2  1  0.65895100  0.96568000  0.25475200  1
  H  H3  1  0.84233100  0.03341600  0.25195200  1
  H  H4  1  0.78238800  0.09696400  0.26462900  1
  H  H5  1  0.83880100  0.74426400  0.50729100  1
  H  H6  1  0.76116000  0.66760100  0.50534100  1
  H  H7  1  0.25259300  0.01777400  0.84354200  1
  H  H8  1  0.17595200  0.01606800  0.76557800  1
  H  H9  1  0.17498400  0.15885400  0.40940600  1
  H  H10  1  0.32262000  0.34541700  0.59173300  1
  H  H11  1  0.24715300  0.26842700  0.59169800  1
  H  H12  1  0.49861200  0.33435600  0.24366300  1
  H  H13  1  0.59427300  0.82713300  0.84469100  1
  H  H14  1  0.59381100  0.75201800  0.76720700  1
  H  H15  1  0.66889000  0.79437700  0.40865200  1
  H  H16  1  0.65911200  0.87685300  0.40219800  1
  H  H17  1  0.72542600  0.97678300  0.48633200  1
  H  H18  1  0.80124200  0.99408700  0.57723900  1
  H  H19  1  0.81076100  0.91164000  0.58410300  1
  H  H20  1  0.33247600  0.06128400  0.68686700  1
  H  H21  1  0.33417200  0.04624400  0.59593900  1
  H  H22  1  0.25587700  0.95687500  0.50272300  1
  H  H23  1  0.17598400  0.88231000  0.50059000  1
  H  H24  1  0.17450200  0.89683600  0.59154600  1
  H  H25  1  0.28066300  0.88947200  0.66785900  1
  H  H26  1  0.35643300  0.87101300  0.65313600  1
  H  H27  1  0.45974500  0.94915400  0.71271400  1
  H  H28  1  0.48729900  0.04650400  0.78629600  1
  H  H29  1  0.41160500  0.06572400  0.80020500  1
  H  H30  1  0.24055500  0.30702700  0.39487200  1
  H  H31  1  0.24078300  0.28886000  0.30300100  1
  H  H32  1  0.24787300  0.20400300  0.24901400  1
  H  H33  1  0.25450900  0.13708300  0.28711900  1
  H  H34  1  0.25519300  0.15539700  0.37947200  1
  H  H35  1  0.58060400  0.26078100  0.17088500  1
  H  H36  1  0.57833100  0.27054600  0.08628300  1
  H  H37  1  0.49745400  0.27784200  0.02370800  1
  H  H38  1  0.41877900  0.27552600  0.04612200  1
  H  H39  1  0.42013600  0.26470200  0.13008200  1
  H  H40  1  0.58854700  0.31308900  0.41411200  1
  H  H41  1  0.58611100  0.30496200  0.49825000  1
  H  H42  1  0.49745700  0.22908300  0.48382800  1
  H  H43  1  0.41109200  0.16140900  0.38516700  1
  H  H44  1  0.41326300  0.16965500  0.30102200  1
  H  H45  1  0.41707100  0.09116000  0.19613800  1
  H  H46  1  0.42195300  0.00869600  0.20726600  1
  H  H47  1  0.51224600  0.02544400  0.28374200  1
  H  H48  1  0.59771500  0.12473700  0.34904900  1
  H  H49  1  0.59326700  0.20722000  0.33763600  1
  H  H50  1  0.35850600  0.62574200  0.68745600  1
  H  H51  1  0.26601600  0.54952800  0.59633800  1
  H  H52  1  0.25059000  0.54629900  0.50312700  1
  H  H53  1  0.32769900  0.61967600  0.50118700  1
  H  H54  1  0.41999200  0.69642100  0.59232800  1
  H  H55  1  0.38896700  0.77835900  0.66796500  1
  H  H56  1  0.29753900  0.78048500  0.65250400  1
  H  H57  1  0.25391400  0.76053400  0.71165900  1
  H  H58  1  0.30101700  0.73704000  0.78558400  1
  H  H59  1  0.39158000  0.73336700  0.80024500  1
  H  H60  1  0.80445300  0.90860900  0.20188000  1
  H  H61  1  0.80024300  0.83895300  0.11726700  1
  H  H62  1  0.73190900  0.81206200  0.01765300  1
  H  H63  1  0.66772900  0.85519800  0.00301900  1
  H  H64  1  0.67132900  0.92425800  0.08638100  1
  H  H65  1  0.70563500  0.09935000  0.30632400  1
  H  H66  1  0.70969100  0.16837000  0.39119400  1
  H  H67  1  0.76780000  0.18460700  0.48924700  1
  H  H68  1  0.82184600  0.13135300  0.50205600  1
  H  H69  1  0.81832400  0.06276200  0.41834000  1
  H  H70  1  0.59072800  0.68628300  0.41107000  1
  H  H71  1  0.50465100  0.69391000  0.40898400  1
  H  H72  1  0.51631100  0.77173600  0.49385000  1
  H  H73  1  0.61418600  0.84183700  0.58099200  1
  H  H74  1  0.70026600  0.83396200  0.58352200  1
  C  C1  1  0.92163300  0.91893500  0.50190700  1
  C  C2  1  0.91956900  0.00030000  0.42088700  1
  C  C3  1  0.08196000  0.08246900  0.50164000  1
  C  C4  1  0.08391600  0.00101800  0.58265300  1
  C  C5  1  0.70083500  0.98091800  0.25420500  1
  C  C6  1  0.73319000  0.94640600  0.24704800  1
  C  C7  1  0.87433700  0.00053900  0.37717100  1
  C  C8  1  0.62873200  0.00028700  0.12963400  1
  C  C9  1  0.75865200  0.03523800  0.30308600  1
  C  C10  1  0.79045100  0.00115400  0.29577100  1
  C  C11  1  0.76815800  0.05261400  0.25969600  1
  C  C12  1  0.71087600  0.99790000  0.21094600  1
  C  C13  1  0.80041800  0.01809000  0.25244100  1
  C  C14  1  0.74259700  0.96373400  0.20358900  1
  C  C15  1  0.83634900  0.00084800  0.34052900  1
  C  C16  1  0.66584300  0.99916400  0.16632500  1
  C  C17  1  0.75689400  0.70434200  0.50378200  1
  C  C18  1  0.70786900  0.70807400  0.50058700  1
  C  C19  1  0.70229200  0.75510800  0.49887900  1
  C  C20  1  0.74635500  0.79863700  0.50057900  1
  C  C21  1  0.79532600  0.79446600  0.50358900  1
  C  C22  1  0.80053900  0.74744900  0.50520400  1
  C  C23  1  0.66360500  0.66367200  0.50088700  1
  C  C24  1  0.84012300  0.83794800  0.50294100  1
  C  C25  1  0.87746300  0.87477000  0.50243600  1
  C  C26  1  0.62616400  0.62648400  0.50094300  1
  C  C27  1  0.29614200  0.99017400  0.74340300  1
  C  C28  1  0.29587000  0.00072500  0.79521000  1
  C  C29  1  0.25269000  0.00978900  0.80302500  1
  C  C30  1  0.20959800  0.00852200  0.75925000  1
  C  C31  1  0.20954300  0.99812000  0.70753500  1
  C  C32  1  0.25263800  0.98877700  0.69924500  1
  C  C33  1  0.33949900  0.00066600  0.84069600  1
  C  C34  1  0.16552800  0.99923800  0.66340300  1
  C  C35  1  0.12838500  0.00011500  0.62647200  1
  C  C36  1  0.37644400  0.00074800  0.87873400  1
  C  C37  1  0.24918000  0.24346500  0.44881400  1
  C  C38  1  0.29075800  0.29585300  0.50035700  1
  C  C39  1  0.28992400  0.30462700  0.55150700  1
  C  C40  1  0.24781900  0.26139800  0.55156900  1
  C  C41  1  0.20679800  0.20903700  0.50052600  1
  C  C42  1  0.20767100  0.19991700  0.44934900  1
  C  C43  1  0.33667300  0.34049100  0.50197700  1
  C  C44  1  0.16285200  0.16418600  0.50064000  1
  C  C45  1  0.12592600  0.12676500  0.50098100  1
  C  C46  1  0.37485600  0.37773200  0.50274600  1
  C  C47  1  0.50099500  0.08051800  0.08559200  1
  C  C48  1  0.58452800  0.00126300  0.08565900  1
  C  C49  1  0.50424800  0.92166700  0.92380400  1
  C  C50  1  0.42069000  0.00082500  0.92369100  1
  C  C51  1  0.49913400  0.42028200  0.42025700  1
  C  C52  1  0.58129100  0.58233400  0.50080100  1
  C  C53  1  0.50196200  0.58383600  0.58348700  1
  C  C54  1  0.41983000  0.42182900  0.50296600  1
  C  C55  1  0.49953500  0.29740300  0.24786700  1
  C  C56  1  0.50084100  0.29357800  0.29609500  1
  C  C57  1  0.50226100  0.24675300  0.30217100  1
  C  C58  1  0.50222600  0.20356700  0.25954200  1
  C  C59  1  0.50149100  0.20779500  0.21141400  1
  C  C60  1  0.50053200  0.25507900  0.20573500  1
  C  C61  1  0.49968200  0.33808800  0.33939700  1
  C  C62  1  0.50101300  0.16254200  0.16713100  1
  C  C63  1  0.50083900  0.12489100  0.12993800  1
  C  C64  1  0.49920600  0.37555400  0.37613300  1
  C  C65  1  0.55347900  0.75264500  0.76052500  1
  C  C66  1  0.50186700  0.71118200  0.70863000  1
  C  C67  1  0.45007300  0.71156400  0.70004000  1
  C  C68  1  0.45023800  0.75369700  0.74395300  1
  C  C69  1  0.50225500  0.79512500  0.79593300  1
  C  C70  1  0.55368000  0.79455400  0.80407300  1
  C  C71  1  0.50207700  0.66638000  0.66464800  1
  C  C72  1  0.50352800  0.84004100  0.84121200  1
  C  C73  1  0.50409000  0.87742200  0.87903100  1
  C  C74  1  0.50210100  0.62872600  0.62765000  1
  C  C75  1  0.74045800  0.84778600  0.49678200  1
  C  C76  1  0.69784700  0.83818100  0.44585700  1
  C  C77  1  0.69243100  0.88446700  0.44215400  1
  C  C78  1  0.72961100  0.94047800  0.48930100  1
  C  C79  1  0.77213300  0.95018300  0.54023200  1
  C  C80  1  0.77753900  0.90392000  0.54401100  1
  C  C81  1  0.25335100  0.98002700  0.64495700  1
  C  C82  1  0.29814300  0.02181400  0.64602300  1
  C  C83  1  0.29905700  0.01346200  0.59499000  1
  C  C84  1  0.25516100  0.96338700  0.54274500  1
  C  C85  1  0.21036100  0.92161500  0.54154300  1
  C  C86  1  0.20945800  0.92987400  0.59256800  1
  C  C87  1  0.34131300  0.97878600  0.73504900  1
  C  C88  1  0.32599300  0.92415600  0.69379200  1
  C  C89  1  0.36849700  0.91365000  0.68567100  1
  C  C90  1  0.42644200  0.95750300  0.71901600  1
  C  C91  1  0.44187900  0.01204100  0.76026600  1
  C  C92  1  0.39939000  0.02273700  0.76817100  1
  C  C93  1  0.24914300  0.23306500  0.39388900  1
  C  C94  1  0.24445200  0.27004600  0.37182500  1
  C  C95  1  0.24418700  0.25969000  0.31996900  1
  C  C96  1  0.24804100  0.21207700  0.28965800  1
  C  C97  1  0.25170400  0.17454900  0.31099800  1
  C  C98  1  0.25189600  0.18480600  0.36282300  1
  C  C99  1  0.49970100  0.26066100  0.15521100  1
  C  C100  1  0.54442500  0.26306800  0.14310300  1
  C  C101  1  0.54344500  0.26897200  0.09578800  1
  C  C102  1  0.49819100  0.27318300  0.06079300  1
  C  C103  1  0.45412200  0.27191600  0.07338100  1
  C  C104  1  0.45503300  0.26599300  0.12067800  1
  C  C105  1  0.50107300  0.24184300  0.35229600  1
  C  C106  1  0.54947500  0.27982800  0.40771000  1
  C  C107  1  0.54816100  0.27521000  0.45489300  1
  C  C108  1  0.49848000  0.23265900  0.44680100  1
  C  C109  1  0.45009200  0.19469800  0.39150300  1
  C  C110  1  0.45137500  0.19926800  0.34429500  1
  C  C111  1  0.50493100  0.15435300  0.26607000  1
  C  C112  1  0.45690900  0.09857900  0.22957600  1
  C  C113  1  0.45958100  0.05233000  0.23589400  1
  C  C114  1  0.51017300  0.06172000  0.27877600  1
  C  C115  1  0.55810000  0.11738800  0.31538300  1
  C  C116  1  0.55551700  0.16365400  0.30903600  1
  C  C117  1  0.39511700  0.66590100  0.64565900  1
  C  C118  1  0.35175800  0.62464800  0.64661500  1
  C  C119  1  0.29989100  0.58178300  0.59547600  1
  C  C120  1  0.29126100  0.57995900  0.54323300  1
  C  C121  1  0.33449300  0.62106100  0.54214100  1
  C  C122  1  0.38633800  0.66401200  0.59327200  1
  C  C123  1  0.39616900  0.75579900  0.73517200  1
  C  C124  1  0.36963000  0.76902000  0.69372300  1
  C  C125  1  0.31847600  0.77049200  0.68518300  1
  C  C126  1  0.29393900  0.75921000  0.71829300  1
  C  C127  1  0.32035500  0.74607700  0.75973600  1
  C  C128  1  0.37128600  0.74420600  0.76806500  1
  C  C129  1  0.73840000  0.92156600  0.15045200  1
  C  C130  1  0.77429100  0.89709900  0.15826700  1
  C  C131  1  0.77200100  0.85789200  0.11074100  1
  C  C132  1  0.73374400  0.84282300  0.05495800  1
  C  C133  1  0.69780400  0.86701700  0.04679900  1
  C  C134  1  0.70002400  0.90625100  0.09429200  1
  C  C135  1  0.76249700  0.07692300  0.35622800  1
  C  C136  1  0.73160400  0.10642900  0.34929200  1
  C  C137  1  0.73367300  0.14517200  0.39694300  1
  C  C138  1  0.76625400  0.15431300  0.45186500  1
  C  C139  1  0.79660800  0.12453300  0.45902100  1
  C  C140  1  0.79476700  0.08590100  0.41143300  1
  C  C141  1  0.65093100  0.75958100  0.49747700  1
  C  C142  1  0.59594200  0.72032400  0.44857200  1
  C  C143  1  0.54765100  0.72467900  0.44731200  1
  C  C144  1  0.55419300  0.76832300  0.49486000  1
  C  C145  1  0.60905300  0.80762900  0.54369000  1
  C  C146  1  0.65736000  0.80326200  0.54503100  1
  O  O1  1  0.94201500  0.97401700  0.53861400  1
  O  O2  1  0.93920400  0.90212700  0.46455100  1
  O  O3  1  0.94047800  0.03693200  0.47603700  1
  O  O4  1  0.93764900  0.96336200  0.40359700  1
  O  O5  1  0.06434900  0.09924700  0.53896300  1
  O  O6  1  0.06154000  0.02738100  0.46491300  1
  O  O7  1  0.06587100  0.03798400  0.59993100  1
  O  O8  1  0.06305200  0.96441500  0.52749800  1
  O  O9  1  0.46411000  0.02544600  0.06513800  1
  O  O10  1  0.53799200  0.09727000  0.06753800  1
  O  O11  1  0.52926300  0.96636700  0.06690400  1
  O  O12  1  0.60151100  0.03655600  0.06597300  1
  O  O13  1  0.46721100  0.90488400  0.94182800  1
  O  O14  1  0.54113600  0.97672900  0.94427400  1
  O  O15  1  0.40372900  0.96558300  0.94342500  1
  O  O16  1  0.47595300  0.03574900  0.94242900  1
  O  O17  1  0.46450200  0.44097800  0.40342200  1
  O  O18  1  0.53398600  0.43852600  0.47535600  1
  O  O19  1  0.52626800  0.56281700  0.46396800  1
  O  O20  1  0.59746700  0.56370600  0.53755300  1
  O  O21  1  0.46710700  0.56559700  0.52839200  1
  O  O22  1  0.53661900  0.56316600  0.60032600  1
  O  O23  1  0.40365200  0.44041300  0.46617600  1
  O  O24  1  0.47484600  0.44131300  0.53978400  1
