# generated using pymatgen
data_ZnH10C17NO4
_symmetry_space_group_name_H-M   'P 1'
_cell_length_a   9.79374500
_cell_length_b   11.00994400
_cell_length_c   15.14715000
_cell_angle_alpha   90.01088100
_cell_angle_beta   89.97815500
_cell_angle_gamma   89.99084800
_symmetry_Int_Tables_number   1
_chemical_formula_structural   ZnH10C17NO4
_chemical_formula_sum   'Zn2 H20 C34 N2 O8'
_cell_volume   1633.29556712
_cell_formula_units_Z   2
loop_
 _symmetry_equiv_pos_site_id
 _symmetry_equiv_pos_as_xyz
  1  'x, y, z'
loop_
 _atom_site_type_symbol
 _atom_site_label
 _atom_site_symmetry_multiplicity
 _atom_site_fract_x
 _atom_site_fract_y
 _atom_site_fract_z
 _atom_site_occupancy
  Zn  Zn1  1  0.15396600  0.00411200  0.00170200  1
  Zn  Zn2  1  0.84885400  0.00454700  0.00218500  1
  H  H1  1  0.62764700  0.88474900  0.89226400  1
  H  H2  1  0.37597300  0.88450200  0.89217900  1
  H  H3  1  0.37454200  0.23532800  0.12054000  1
  H  H4  1  0.37974500  0.09875300  0.19504500  1
  H  H5  1  0.62416200  0.23893600  0.11751300  1
  H  H6  1  0.62709200  0.10303500  0.19332100  1
  H  H7  1  0.78170500  0.61471800  0.02080700  1
  H  H8  1  0.78290600  0.39342900  0.02156600  1
  H  H9  1  0.32145900  0.39788100  0.03036800  1
  H  H10  1  0.28777000  0.39586800  0.90784200  1
  H  H11  1  0.31870800  0.61745200  0.02986800  1
  H  H12  1  0.28543700  0.61639000  0.90716700  1
  H  H13  1  0.78318500  0.99703700  0.28538200  1
  H  H14  1  0.21913500  0.99602600  0.28509000  1
  H  H15  1  0.34107400  0.99722800  0.42130300  1
  H  H16  1  0.34127000  0.99984000  0.58264600  1
  H  H17  1  0.21978500  0.00293200  0.71917100  1
  H  H18  1  0.78335400  0.00385400  0.71948300  1
  H  H19  1  0.66159600  0.00131300  0.58306800  1
  H  H20  1  0.66150900  0.99872700  0.42172400  1
  C  C1  1  0.00105000  0.00091600  0.17694900  1
  C  C2  1  0.00156100  0.24444500  0.00207600  1
  C  C3  1  0.00174400  0.00487500  0.82720500  1
  C  C4  1  0.99995300  0.76464500  0.00055800  1
  C  C5  1  0.56838200  0.06734900  0.05814100  1
  C  C6  1  0.57326500  0.93811600  0.94077200  1
  C  C7  1  0.43006800  0.93781500  0.94081600  1
  C  C8  1  0.43432900  0.06597700  0.05884600  1
  C  C9  1  0.42118100  0.14661700  0.13666400  1
  C  C10  1  0.58157700  0.14893600  0.13539400  1
  C  C11  1  0.11493100  0.56537300  0.98998000  1
  C  C12  1  0.99812000  0.63213700  0.00075500  1
  C  C13  1  0.87755400  0.56761900  0.01194000  1
  C  C14  1  0.87831400  0.44106200  0.01244400  1
  C  C15  1  0.99959600  0.37717500  0.00183000  1
  C  C16  1  0.11591600  0.44485900  0.99043100  1
  C  C17  1  0.26475700  0.43552200  0.97349200  1
  C  C18  1  0.26340600  0.57718300  0.97308600  1
  C  C19  1  0.87936400  0.99795600  0.32003600  1
  C  C20  1  0.00117500  0.99864200  0.27387400  1
  C  C21  1  0.12305100  0.99740700  0.31988000  1
  C  C22  1  0.12308600  0.99801200  0.41100200  1
  C  C23  1  0.00132400  0.99904800  0.45666200  1
  C  C24  1  0.87948300  0.99855100  0.41115600  1
  C  C25  1  0.24508600  0.99805000  0.45655600  1
  C  C26  1  0.24519800  0.99958500  0.54753200  1
  C  C27  1  0.12331300  0.00092300  0.59326300  1
  C  C28  1  0.00140100  0.00044000  0.54778400  1
  C  C29  1  0.87957200  0.00144500  0.59342400  1
  C  C30  1  0.75760600  0.00064300  0.54783800  1
  C  C31  1  0.75756100  0.99912300  0.45686100  1
  C  C32  1  0.12350400  0.00264800  0.68437200  1
  C  C33  1  0.00157600  0.00382700  0.73041600  1
  C  C34  1  0.87955100  0.00315800  0.68454100  1
  N  N1  1  0.64388500  0.00410400  0.00075900  1
  N  N2  1  0.35909300  0.00287400  0.00120900  1
  O  O1  1  0.11731400  0.00208700  0.13366900  1
  O  O2  1  0.88463100  0.00228600  0.13397800  1
  O  O3  1  0.11839400  0.18593000  0.00138300  1
  O  O4  1  0.88552400  0.18494900  0.00310300  1
  O  O5  1  0.11808000  0.00474000  0.87012200  1
  O  O6  1  0.88559200  0.00499000  0.87045000  1
  O  O7  1  0.11690500  0.82284600  0.00009700  1
  O  O8  1  0.88411700  0.82424700  0.00177500  1
