# generated using pymatgen
data_ZnH4C10(NO3)2
_symmetry_space_group_name_H-M   'P 1'
_cell_length_a   6.63675800
_cell_length_b   9.19700700
_cell_length_c   12.39413400
_cell_angle_alpha   99.76734900
_cell_angle_beta   100.07693900
_cell_angle_gamma   90.69414500
_symmetry_Int_Tables_number   1
_chemical_formula_structural   ZnH4C10(NO3)2
_chemical_formula_sum   'Zn2 H8 C20 N4 O12'
_cell_volume   733.36857567
_cell_formula_units_Z   2
loop_
 _symmetry_equiv_pos_site_id
 _symmetry_equiv_pos_as_xyz
  1  'x, y, z'
loop_
 _atom_site_type_symbol
 _atom_site_label
 _atom_site_symmetry_multiplicity
 _atom_site_fract_x
 _atom_site_fract_y
 _atom_site_fract_z
 _atom_site_occupancy
  Zn  Zn1  1  0.49593200  0.16315600  0.50724200  1
  Zn  Zn2  1  0.50403500  0.83668000  0.49272700  1
  H  H1  1  0.52915900  0.02598200  0.15820000  1
  H  H2  1  0.47080900  0.97385700  0.84177000  1
  H  H3  1  0.65008000  0.04046800  0.98845500  1
  H  H4  1  0.34988800  0.95937400  0.01151500  1
  H  H5  1  0.25019300  0.94863900  0.14550100  1
  H  H6  1  0.74977400  0.05120000  0.85446800  1
  H  H7  1  0.78460500  0.34568400  0.46642500  1
  H  H8  1  0.21536200  0.65415200  0.53354400  1
  C  C1  1  0.68613600  0.00260400  0.15318000  1
  C  C2  1  0.31383200  0.99723500  0.84678900  1
  C  C3  1  0.75680300  0.01221500  0.05676100  1
  C  C4  1  0.24316500  0.98762600  0.94320900  1
  C  C5  1  0.96032400  0.99110800  0.05086400  1
  C  C6  1  0.03964400  0.00873300  0.94910600  1
  C  C7  1  0.08935300  0.95972100  0.14426200  1
  C  C8  1  0.91061500  0.04011800  0.85570700  1
  C  C9  1  0.01949000  0.95275100  0.24216400  1
  C  C10  1  0.98047700  0.04708500  0.75780500  1
  C  C11  1  0.81419700  0.97158000  0.24555600  1
  C  C12  1  0.18577000  0.02825600  0.75441300  1
  C  C13  1  0.65803700  0.41407100  0.48219200  1
  C  C14  1  0.34193000  0.58576500  0.51777700  1
  C  C15  1  0.66817800  0.56165800  0.47442400  1
  C  C16  1  0.33178900  0.43817700  0.52554500  1
  C  C17  1  0.27259000  0.02143400  0.65351500  1
  C  C18  1  0.72737600  0.97840100  0.34645400  1
  C  C19  1  0.82583900  0.03470000  0.65628100  1
  C  C20  1  0.17412800  0.96513600  0.34368800  1
  N  N1  1  0.50739200  0.64548900  0.48986400  1
  N  N2  1  0.49257500  0.35434700  0.51010500  1
  N  N3  1  0.85109900  0.62430800  0.45315900  1
  N  N4  1  0.14886800  0.37552800  0.54681100  1
  O  O1  1  0.33636100  0.89321000  0.61276600  1
  O  O2  1  0.66360500  0.10662600  0.38720300  1
  O  O3  1  0.31965300  0.14493200  0.62176400  1
  O  O4  1  0.68031300  0.85490300  0.37820400  1
  O  O5  1  0.74079800  0.15428300  0.62765600  1
  O  O6  1  0.25916900  0.84555200  0.37231200  1
  O  O7  1  0.75350100  0.90097800  0.61041500  1
  O  O8  1  0.24646600  0.09885700  0.38955400  1
  O  O9  1  0.99196700  0.53783200  0.42258700  1
  O  O10  1  0.89085200  0.76579300  0.48052800  1
  O  O11  1  0.10911400  0.23404400  0.51944200  1
  O  O12  1  0.00800000  0.46200500  0.57738100  1
