# generated using pymatgen
data_ZnH15C18NO4
_symmetry_space_group_name_H-M   'P 1'
_cell_length_a   6.59236800
_cell_length_b   14.24386900
_cell_length_c   16.07368200
_cell_angle_alpha   96.04576100
_cell_angle_beta   81.54611900
_cell_angle_gamma   89.90679000
_symmetry_Int_Tables_number   1
_chemical_formula_structural   ZnH15C18NO4
_chemical_formula_sum   'Zn2 H30 C36 N2 O8'
_cell_volume   1484.40421014
_cell_formula_units_Z   2
loop_
 _symmetry_equiv_pos_site_id
 _symmetry_equiv_pos_as_xyz
  1  'x, y, z'
loop_
 _atom_site_type_symbol
 _atom_site_label
 _atom_site_symmetry_multiplicity
 _atom_site_fract_x
 _atom_site_fract_y
 _atom_site_fract_z
 _atom_site_occupancy
  Zn  Zn1  1  0.00810500  0.10381700  0.50203800  1
  Zn  Zn2  1  0.98909000  0.89390400  0.49706700  1
  H  H1  1  0.03612400  0.98966500  0.76685500  1
  H  H2  1  0.53498400  0.04303300  0.90591100  1
  H  H3  1  0.76481500  0.05085600  0.77357900  1
  H  H4  1  0.46218300  0.95467100  0.09320000  1
  H  H5  1  0.23236500  0.94685300  0.22553500  1
  H  H6  1  0.96106000  0.00805000  0.23224500  1
  H  H7  1  0.32925000  0.07686800  0.00430900  1
  H  H8  1  0.09962400  0.06385400  0.13473400  1
  H  H9  1  0.66790400  0.92085800  0.99479400  1
  H  H10  1  0.89753500  0.93387200  0.86436900  1
  H  H11  1  0.86272800  0.55700300  0.38284700  1
  H  H12  1  0.88139100  0.40033000  0.38510100  1
  H  H13  1  0.33043900  0.43041100  0.50157900  1
  H  H14  1  0.25328000  0.40849100  0.39779000  1
  H  H15  1  0.22158800  0.56490500  0.39025100  1
  H  H16  1  0.31575200  0.58675700  0.49071500  1
  H  H17  1  0.80188400  0.43395400  0.61959900  1
  H  H18  1  0.07056700  0.43749000  0.62993000  1
  H  H19  1  0.69206800  0.40818500  0.47915900  1
  H  H20  1  0.67239300  0.56764000  0.47580400  1
  H  H21  1  0.08556000  0.59246800  0.61971400  1
  H  H22  1  0.92285400  0.67585700  0.73750100  1
  H  H23  1  0.82255200  0.56072200  0.75730500  1
  H  H24  1  0.65088900  0.66236200  0.77091800  1
  H  H25  1  0.84905700  0.74897700  0.61221700  1
  H  H26  1  0.57973900  0.73773200  0.65085700  1
  H  H27  1  0.67971800  0.69089700  0.54401300  1
  H  H28  1  0.56399800  0.49935400  0.68863800  1
  H  H29  1  0.58800100  0.50256700  0.57533400  1
  H  H30  1  0.43347400  0.59034200  0.64647200  1
  C  C1  1  0.32593800  0.00798100  0.69434000  1
  C  C2  1  0.19651600  0.00189000  0.76917100  1
  C  C3  1  0.26907400  0.01418900  0.84580000  1
  C  C4  1  0.47341900  0.03411500  0.84703400  1
  C  C5  1  0.60373100  0.03857600  0.77223900  1
  C  C6  1  0.53173900  0.02455300  0.69562100  1
  C  C7  1  0.18530400  0.04158800  0.00155700  1
  C  C8  1  0.05466700  0.03404600  0.07579400  1
  C  C9  1  0.86716700  0.99121200  0.07427200  1
  C  C10  1  0.81185200  0.95613700  0.99754600  1
  C  C11  1  0.94249100  0.96367800  0.92330900  1
  C  C12  1  0.12999500  0.00650800  0.92483200  1
  C  C13  1  0.52375500  0.96359400  0.15207500  1
  C  C14  1  0.39345000  0.95913500  0.22687200  1
  C  C15  1  0.46545000  0.97316600  0.30348800  1
  C  C16  1  0.67125400  0.98973800  0.30476500  1
  C  C17  1  0.80066600  0.99582600  0.22993200  1
  C  C18  1  0.72809800  0.98352500  0.15330500  1
  C  C19  1  0.68112100  0.01571200  0.61847000  1
  C  C20  1  0.23472600  0.00394100  0.61677000  1
  C  C21  1  0.31606800  0.98200800  0.38063600  1
  C  C22  1  0.76248300  0.99377700  0.38233000  1
  C  C23  1  0.84182300  0.43456000  0.45076100  1
  C  C24  1  0.21145400  0.44530100  0.46239300  1
  C  C25  1  0.19691700  0.55066700  0.45747900  1
  C  C26  1  0.00649500  0.41059800  0.50211100  1
  C  C27  1  0.82856200  0.54055900  0.44933600  1
  C  C28  1  0.98641300  0.58728700  0.49885100  1
  C  C29  1  0.95363600  0.56398900  0.59009000  1
  C  C30  1  0.95392200  0.45777600  0.59162400  1
  C  C31  1  0.97837700  0.68964300  0.49653700  1
  C  C32  1  0.01690300  0.30818200  0.50352300  1
  C  C33  1  0.75858100  0.60960400  0.64132800  1
  C  C34  1  0.79087800  0.62839200  0.73288700  1
  C  C35  1  0.71438500  0.70285100  0.60964500  1
  C  C36  1  0.57509100  0.54600300  0.63712400  1
  N  N1  1  0.97540500  0.77065800  0.49495200  1
  N  N2  1  0.02172400  0.22706700  0.50418300  1
  O  O1  1  0.75236900  0.93068300  0.58924500  1
  O  O2  1  0.76169300  0.09280800  0.59074300  1
  O  O3  1  0.18216600  0.08430500  0.59206500  1
  O  O4  1  0.17430100  0.92171100  0.58548100  1
  O  O5  1  0.24483500  0.06705100  0.40986000  1
  O  O6  1  0.23550600  0.90489700  0.40836000  1
  O  O7  1  0.81502900  0.91341300  0.40703900  1
  O  O8  1  0.82289800  0.07601100  0.41362200  1
