# generated using pymatgen
data_CuH14C19(NO2)2
_symmetry_space_group_name_H-M   'P 1'
_cell_length_a   15.89360800
_cell_length_b   13.11221600
_cell_length_c   11.50772100
_cell_angle_alpha   99.83358500
_cell_angle_beta   94.24517100
_cell_angle_gamma   89.99628100
_symmetry_Int_Tables_number   1
_chemical_formula_structural   CuH14C19(NO2)2
_chemical_formula_sum   'Cu2 H28 C38 N4 O8'
_cell_volume   2356.30318038
_cell_formula_units_Z   2
loop_
 _symmetry_equiv_pos_site_id
 _symmetry_equiv_pos_as_xyz
  1  'x, y, z'
loop_
 _atom_site_type_symbol
 _atom_site_label
 _atom_site_symmetry_multiplicity
 _atom_site_fract_x
 _atom_site_fract_y
 _atom_site_fract_z
 _atom_site_occupancy
  Cu  Cu1  1  0.50641400  0.51146000  0.61812100  1
  Cu  Cu2  1  0.49400200  0.48954100  0.38202300  1
  H  H1  1  0.04476800  0.33880500  0.38291300  1
  H  H2  1  0.95452900  0.65825000  0.61804900  1
  H  H3  1  0.95156600  0.35378600  0.58476600  1
  H  H4  1  0.04572600  0.64458100  0.41446100  1
  H  H5  1  0.93539800  0.48434200  0.29987500  1
  H  H6  1  0.06342200  0.51200100  0.70085000  1
  H  H7  1  0.46735800  0.83396200  0.70549000  1
  H  H8  1  0.53115300  0.16747200  0.29422700  1
  H  H9  1  0.53780200  0.98567300  0.26809900  1
  H  H10  1  0.45903500  0.01552900  0.73062400  1
  H  H11  1  0.40999500  0.42784600  0.79247300  1
  H  H12  1  0.58869700  0.57683800  0.20912800  1
  H  H13  1  0.62389200  0.62160500  0.81844800  1
  H  H14  1  0.38165800  0.37174000  0.17955400  1
  H  H15  1  0.36694900  0.36554300  0.96490300  1
  H  H16  1  0.64119300  0.62547300  0.03267800  1
  H  H17  1  0.65605700  0.86889600  0.36855900  1
  H  H18  1  0.62793200  0.83638400  0.21156500  1
  H  H19  1  0.65317800  0.73628800  0.29742900  1
  H  H20  1  0.41702300  0.84640800  0.25456400  1
  H  H21  1  0.44768000  0.71661200  0.20077200  1
  H  H22  1  0.49608600  0.82249900  0.14836700  1
  H  H23  1  0.58191800  0.15208600  0.74719500  1
  H  H24  1  0.50336300  0.17861200  0.85330700  1
  H  H25  1  0.55361500  0.28293200  0.80104800  1
  H  H26  1  0.34528900  0.12788200  0.63587000  1
  H  H27  1  0.34498700  0.26180500  0.70250500  1
  H  H28  1  0.37320700  0.16535600  0.79195100  1
  C  C1  1  0.49871300  0.30218800  0.48457800  1
  C  C2  1  0.50217300  0.69927300  0.51567800  1
  C  C3  1  0.33878300  0.50087600  0.49819500  1
  C  C4  1  0.66185700  0.49943600  0.50176800  1
  C  C5  1  0.97524700  0.41934600  0.54643600  1
  C  C6  1  0.02444700  0.57835600  0.45381300  1
  C  C7  1  0.02360000  0.41158200  0.43612000  1
  C  C8  1  0.97616900  0.58597000  0.56426400  1
  C  C9  1  0.24843900  0.49984700  0.49750500  1
  C  C10  1  0.75199700  0.49861300  0.50202400  1
  C  C11  1  0.03374700  0.50640200  0.60965400  1
  C  C12  1  0.96607800  0.49110700  0.39064100  1
  C  C13  1  0.08051000  0.49877600  0.49924800  1
  C  C14  1  0.91945700  0.49881700  0.50095900  1
  C  C15  1  0.17260200  0.49909800  0.49815100  1
  C  C16  1  0.82767000  0.49838000  0.50168500  1
  C  C17  1  0.49956100  0.81327800  0.52566600  1
  C  C18  1  0.50053400  0.18835700  0.47488300  1
  C  C19  1  0.52286800  0.02477100  0.35390800  1
  C  C20  1  0.47537300  0.97656400  0.64554500  1
  C  C21  1  0.51837200  0.13056300  0.36824600  1
  C  C22  1  0.48052600  0.87089400  0.63165700  1
  C  C23  1  0.48602000  0.13816200  0.56924400  1
  C  C24  1  0.51374100  0.86361500  0.43146600  1
  C  C25  1  0.49014700  0.02936700  0.55408400  1
  C  C26  1  0.50903100  0.97225700  0.44599300  1
  C  C27  1  0.41587100  0.41332500  0.01793200  1
  C  C28  1  0.58897400  0.58253100  0.98101100  1
  C  C29  1  0.42478800  0.41611200  0.13873400  1
  C  C30  1  0.57932200  0.58010200  0.86020900  1
  C  C31  1  0.54022500  0.52981200  0.15484700  1
  C  C32  1  0.46026500  0.47254000  0.84582400  1
  C  C33  1  0.53296000  0.52835200  0.03424100  1
  C  C34  1  0.46934400  0.47164900  0.96579300  1
  C  C35  1  0.62223200  0.81207000  0.29818900  1
  C  C36  1  0.47122500  0.79739400  0.22647500  1
  C  C37  1  0.52864300  0.20277100  0.77489800  1
  C  C38  1  0.37800300  0.18756600  0.70400500  1
  N  N1  1  0.51466600  0.52668800  0.79470600  1
  N  N2  1  0.48671400  0.47477700  0.20550200  1
  N  N3  1  0.53510300  0.80304600  0.32381300  1
  N  N4  1  0.46480700  0.19868500  0.67748200  1
  O  O1  1  0.50697500  0.36019500  0.58955200  1
  O  O2  1  0.49378100  0.64122200  0.41068700  1
  O  O3  1  0.49172300  0.34195300  0.38704500  1
  O  O4  1  0.50921700  0.65944700  0.61316000  1
  O  O5  1  0.38291400  0.50656700  0.59970900  1
  O  O6  1  0.61789500  0.49472800  0.40049800  1
  O  O7  1  0.37320800  0.49558000  0.39740100  1
  O  O8  1  0.62758900  0.50545900  0.60272700  1
