# generated using pymatgen
data_FeH5C20(NO6)2
_symmetry_space_group_name_H-M   'P 1'
_cell_length_a   14.49041100
_cell_length_b   9.48614400
_cell_length_c   17.86839000
_cell_angle_alpha   86.04298300
_cell_angle_beta   90.83034400
_cell_angle_gamma   110.19106700
_symmetry_Int_Tables_number   1
_chemical_formula_structural   FeH5C20(NO6)2
_chemical_formula_sum   'Fe2 H10 C40 N4 O24'
_cell_volume   2299.60740100
_cell_formula_units_Z   2
loop_
 _symmetry_equiv_pos_site_id
 _symmetry_equiv_pos_as_xyz
  1  'x, y, z'
loop_
 _atom_site_type_symbol
 _atom_site_label
 _atom_site_symmetry_multiplicity
 _atom_site_fract_x
 _atom_site_fract_y
 _atom_site_fract_z
 _atom_site_occupancy
  Fe  Fe1  1  0.48158200  0.97425600  0.10338100  1
  Fe  Fe2  1  0.49766200  0.99641100  0.79785500  1
  H  H1  1  0.16185500  0.05010400  0.80262200  1
  H  H2  1  0.03372600  0.07556400  0.87477200  1
  H  H3  1  0.91737600  0.84676300  0.90251600  1
  H  H4  1  0.77132200  0.85710600  0.84055500  1
  H  H5  1  0.23588000  0.99759800  0.12427800  1
  H  H6  1  0.11475300  0.04772200  0.19171500  1
  H  H7  1  0.81400600  0.11428100  0.13359500  1
  H  H8  1  0.50346700  0.28665300  0.59004100  1
  H  H9  1  0.47498900  0.68307800  0.31478700  1
  H  H10  1  0.47676400  0.42838600  0.12710400  1
  C  C1  1  0.24122300  0.00052800  0.89689200  1
  C  C2  1  0.16288800  0.02814200  0.86269300  1
  C  C3  1  0.08615000  0.03540900  0.90434800  1
  C  C4  1  0.87564100  0.90511200  0.92855400  1
  C  C5  1  0.24434200  0.98878200  0.97477900  1
  C  C6  1  0.16458200  0.99208900  0.01675000  1
  C  C7  1  0.08083200  0.00228500  0.98136400  1
  C  C8  1  0.99963900  0.00096600  0.02417800  1
  C  C9  1  0.79029900  0.90481500  0.89428000  1
  C  C10  1  0.72624400  0.95705300  0.92945100  1
  C  C11  1  0.90565700  0.97797600  0.99403000  1
  C  C12  1  0.83637400  0.01502500  0.03370500  1
  C  C13  1  0.74330200  0.99531100  0.00325600  1
  C  C14  1  0.17163800  0.99968800  0.09369800  1
  C  C15  1  0.09994400  0.02632000  0.13358900  1
  C  C16  1  0.01372600  0.02710900  0.09965200  1
  C  C17  1  0.94414800  0.06311800  0.13922000  1
  C  C18  1  0.86088000  0.07016100  0.10373300  1
  C  C19  1  0.65980800  0.99097400  0.05132000  1
  C  C20  1  0.47435400  0.69773500  0.16276700  1
  C  C21  1  0.33786200  0.00388800  0.01188600  1
  C  C22  1  0.46619200  0.17530900  0.20294000  1
  C  C23  1  0.50965300  0.79345300  0.69988500  1
  C  C24  1  0.63500200  0.94730600  0.89097600  1
  C  C25  1  0.50842000  0.27305300  0.74092000  1
  C  C26  1  0.32246900  0.99803300  0.84908800  1
  C  C27  1  0.50757800  0.40183500  0.68986900  1
  C  C28  1  0.50460000  0.38964900  0.61303200  1
  C  C29  1  0.50061600  0.50755800  0.56460600  1
  C  C30  1  0.50053600  0.64004800  0.59225200  1
  C  C31  1  0.50113600  0.65135300  0.66893800  1
  C  C32  1  0.50498700  0.53371600  0.71754500  1
  C  C33  1  0.49068400  0.48883200  0.48554300  1
  C  C34  1  0.48223100  0.47618800  0.41895300  1
  C  C35  1  0.47131700  0.32582100  0.31165500  1
  C  C36  1  0.47381700  0.31665300  0.23484400  1
  C  C37  1  0.47665600  0.43893700  0.18691900  1
  C  C38  1  0.47424700  0.57018300  0.21480000  1
  C  C39  1  0.47347700  0.58004000  0.29162400  1
  C  C40  1  0.47328600  0.45918700  0.33971700  1
  N  N1  1  0.49703000  0.76249100  0.54213400  1
  N  N2  1  0.47197100  0.20165900  0.36164200  1
  N  N3  1  0.51518300  0.55573500  0.79567900  1
  N  N4  1  0.95816100  0.09855300  0.21590200  1
  O  O1  1  0.58110300  0.01192000  0.02279000  1
  O  O2  1  0.48320400  0.68984600  0.09032600  1
  O  O3  1  0.65658600  0.94153900  0.12198000  1
  O  O4  1  0.46815500  0.82153400  0.18777200  1
  O  O5  1  0.34905400  0.89396900  0.05572400  1
  O  O6  1  0.41090100  0.13268000  0.00339500  1
  O  O7  1  0.52387700  0.17594900  0.14694700  1
  O  O8  1  0.39708500  0.04967300  0.22669100  1
  O  O9  1  0.44808500  0.79676900  0.75220400  1
  O  O10  1  0.58390700  0.91552600  0.67977600  1
  O  O11  1  0.62925600  0.06189000  0.84777200  1
  O  O12  1  0.56091500  0.81943900  0.89474100  1
  O  O13  1  0.32020700  0.02857900  0.77647500  1
  O  O14  1  0.51958600  0.15390300  0.71470000  1
  O  O15  1  0.39757700  0.96613100  0.87726900  1
  O  O16  1  0.49041000  0.27031600  0.81282800  1
  O  O17  1  0.44507300  0.84359700  0.55926600  1
  O  O18  1  0.54542800  0.79370300  0.47884900  1
  O  O19  1  0.52606100  0.12249100  0.34654000  1
  O  O20  1  0.42120900  0.16988200  0.42384400  1
  O  O21  1  0.43759400  0.53716100  0.83629000  1
  O  O22  1  0.59795600  0.56663900  0.82829300  1
  O  O23  1  0.93094900  0.20570200  0.23858300  1
  O  O24  1  0.97075100  0.00006900  0.26555500  1
