# generated using pymatgen
data_Cu2H31C44N7O9
_symmetry_space_group_name_H-M   'P 1'
_cell_length_a   13.58670200
_cell_length_b   15.54176500
_cell_length_c   17.01524000
_cell_angle_alpha   83.67270700
_cell_angle_beta   91.02341300
_cell_angle_gamma   109.16137400
_symmetry_Int_Tables_number   1
_chemical_formula_structural   Cu2H31C44N7O9
_chemical_formula_sum   'Cu2 H31 C44 N7 O9'
_cell_volume   3372.58752352
_cell_formula_units_Z   1
loop_
 _symmetry_equiv_pos_site_id
 _symmetry_equiv_pos_as_xyz
  1  'x, y, z'
loop_
 _atom_site_type_symbol
 _atom_site_label
 _atom_site_symmetry_multiplicity
 _atom_site_fract_x
 _atom_site_fract_y
 _atom_site_fract_z
 _atom_site_occupancy
  Cu  Cu1  1  0.50264800  0.58676000  0.48702700  1
  Cu  Cu2  1  0.48612800  0.41014100  0.49209000  1
  H  H1  1  0.16142300  0.29038200  0.55604100  1
  H  H2  1  0.83086900  0.30044700  0.59870900  1
  H  H3  1  0.97801600  0.25479100  0.58840100  1
  H  H4  1  0.18196200  0.56006300  0.46529500  1
  H  H5  1  0.82079900  0.70324900  0.42327400  1
  H  H6  1  0.10192900  0.64828300  0.42774700  1
  H  H7  1  0.00613500  0.74947100  0.39564900  1
  H  H8  1  0.74081400  0.40735300  0.57168700  1
  H  H9  1  0.50411300  0.61823300  0.73093200  1
  H  H10  1  0.50152000  0.61492000  0.87115300  1
  H  H11  1  0.50827100  0.67125400  0.09131600  1
  H  H12  1  0.50559700  0.66112700  0.23538800  1
  H  H13  1  0.47373600  0.38544100  0.10604500  1
  H  H14  1  0.50164500  0.33932200  0.89698000  1
  H  H15  1  0.47134100  0.37619600  0.24682800  1
  H  H16  1  0.40262000  0.69285900  0.57524600  1
  H  H17  1  0.40751600  0.84974900  0.56966900  1
  H  H18  1  0.34568700  0.07252000  0.58896500  1
  H  H19  1  0.34982400  0.23238700  0.57782300  1
  H  H20  1  0.62715900  0.76078400  0.39138700  1
  H  H21  1  0.59461000  0.15155800  0.41657000  1
  H  H22  1  0.63623300  0.92171400  0.38217100  1
  H  H23  1  0.59407300  0.30718300  0.40918900  1
  H  H24  1  0.66335000  0.38628700  0.72851000  1
  H  H25  1  0.60568300  0.29470900  0.66791100  1
  H  H26  1  0.64162600  0.27557300  0.84695800  1
  H  H27  1  0.70869900  0.24574300  0.77017900  1
  H  H28  1  0.48346300  0.19177600  0.88408100  1
  H  H29  1  0.40779700  0.10178000  0.83042600  1
  H  H30  1  0.36118700  0.24773900  0.80436600  1
  H  H31  1  0.38815800  0.20008300  0.71954900  1
  C  C1  1  0.48885800  0.51146600  0.33805100  1
  C  C2  1  0.69478100  0.54280200  0.48455400  1
  C  C3  1  0.50073800  0.48520300  0.64225300  1
  C  C4  1  0.29499300  0.45392100  0.49795600  1
  C  C5  1  0.02103200  0.32191300  0.55931800  1
  C  C6  1  0.18167100  0.42872100  0.50847400  1
  C  C7  1  0.86190100  0.65589100  0.44187000  1
  C  C8  1  0.96648800  0.68207900  0.42562700  1
  C  C9  1  0.02094100  0.62255300  0.44470800  1
  C  C10  1  0.97208700  0.53540800  0.48369600  1
  C  C11  1  0.86573500  0.50987400  0.50220200  1
  C  C12  1  0.02633600  0.47299400  0.50450500  1
  C  C13  1  0.97266800  0.38698000  0.54209000  1
  C  C14  1  0.87050800  0.36553300  0.56514400  1
  C  C15  1  0.81827100  0.42666200  0.54719800  1
  C  C16  1  0.13302600  0.49371800  0.49027500  1
  C  C17  1  0.12459900  0.34179500  0.54089400  1
  C  C18  1  0.80951600  0.56928200  0.47804600  1
  C  C19  1  0.48860100  0.51822000  0.25155500  1
  C  C20  1  0.47970800  0.44179100  0.21366800  1
  C  C21  1  0.48193500  0.44759100  0.13228100  1
  C  C22  1  0.49326300  0.53069700  0.08758100  1
  C  C23  1  0.50061700  0.60650200  0.12555400  1
  C  C24  1  0.49880900  0.60063600  0.20704200  1
  C  C25  1  0.50195000  0.55360700  0.84687400  1
  C  C26  1  0.50343000  0.55548000  0.76571700  1
  C  C27  1  0.50046600  0.47480400  0.89401000  1
  C  C28  1  0.50230500  0.47915400  0.72979300  1
  C  C29  1  0.50103900  0.39975000  0.77754000  1
  C  C30  1  0.50103200  0.39930600  0.85892800  1
  C  C31  1  0.53979200  0.25528400  0.44933100  1
  C  C32  1  0.53883400  0.16591200  0.45312100  1
  C  C33  1  0.46854000  0.09886800  0.50369200  1
  C  C34  1  0.40072200  0.12354800  0.54861500  1
  C  C35  1  0.40408300  0.21367300  0.54325800  1
  C  C36  1  0.45761000  0.83368300  0.52910100  1
  C  C37  1  0.45464400  0.74370600  0.53284200  1
  C  C38  1  0.52343700  0.89916300  0.47452300  1
  C  C39  1  0.57950500  0.78142300  0.43076600  1
  C  C40  1  0.58465600  0.87204100  0.42541000  1
  C  C41  1  0.60472900  0.31719500  0.72745900  1
  C  C42  1  0.63265500  0.25055900  0.78782200  1
  C  C43  1  0.46781700  0.17076700  0.82377700  1
  C  C44  1  0.42377100  0.23486000  0.77150900  1
  N  N1  1  0.49719100  0.53972300  0.00382500  1
  N  N2  1  0.49742400  0.46816800  0.97758300  1
  N  N3  1  0.47322700  0.27801200  0.49406100  1
  N  N4  1  0.46437800  0.00617100  0.51092300  1
  N  N5  1  0.52784200  0.99204900  0.46642100  1
  N  N6  1  0.51713000  0.71917000  0.48597700  1
  N  N7  1  0.50266500  0.32071300  0.74404000  1
  O  O1  1  0.50235900  0.58524800  0.37330600  1
  O  O2  1  0.47769200  0.43143400  0.37689800  1
  O  O3  1  0.65326700  0.60765300  0.48667600  1
  O  O4  1  0.63765700  0.45697100  0.48222900  1
  O  O5  1  0.50931400  0.56487200  0.60295100  1
  O  O6  1  0.48899900  0.41204300  0.60631500  1
  O  O7  1  0.35147000  0.54061700  0.49588000  1
  O  O8  1  0.33597200  0.38879200  0.49518200  1
  O  O9  1  0.55712300  0.16410800  0.78920800  1
