# generated using pymatgen
data_ZnH20C26NO4
_symmetry_space_group_name_H-M   'P 1'
_cell_length_a   17.79839700
_cell_length_b   16.73015000
_cell_length_c   11.03155400
_cell_angle_alpha   90.00000000
_cell_angle_beta   90.00422100
_cell_angle_gamma   90.00000000
_symmetry_Int_Tables_number   1
_chemical_formula_structural   ZnH20C26NO4
_chemical_formula_sum   'Zn2 H40 C52 N2 O8'
_cell_volume   3284.86418825
_cell_formula_units_Z   2
loop_
 _symmetry_equiv_pos_site_id
 _symmetry_equiv_pos_as_xyz
  1  'x, y, z'
loop_
 _atom_site_type_symbol
 _atom_site_label
 _atom_site_symmetry_multiplicity
 _atom_site_fract_x
 _atom_site_fract_y
 _atom_site_fract_z
 _atom_site_occupancy
  Zn  Zn1  1  0.50000000  0.59286100  0.50000000  1
  Zn  Zn2  1  0.50000000  0.41100300  0.50000000  1
  H  H1  1  0.54005900  0.23110800  0.09066400  1
  H  H2  1  0.45993600  0.77275300  0.90934200  1
  H  H3  1  0.45994200  0.23110800  0.90933600  1
  H  H4  1  0.54006300  0.77275300  0.09065800  1
  H  H5  1  0.57381500  0.64836000  0.18616600  1
  H  H6  1  0.42619100  0.35550000  0.81382900  1
  H  H7  1  0.42618500  0.64836000  0.81383400  1
  H  H8  1  0.57381000  0.35550100  0.18617100  1
  H  H9  1  0.87702600  0.62907800  0.50049800  1
  H  H10  1  0.12298100  0.37477700  0.49967700  1
  H  H11  1  0.12297400  0.62907800  0.49950400  1
  H  H12  1  0.87701900  0.37477700  0.50032200  1
  H  H13  1  0.74020100  0.62944100  0.50182100  1
  H  H14  1  0.25980600  0.37442100  0.49835200  1
  H  H15  1  0.25979900  0.62944000  0.49818100  1
  H  H16  1  0.74019400  0.37442100  0.50164700  1
  H  H17  1  0.42802800  0.87175900  0.34979300  1
  H  H18  1  0.57199400  0.13210700  0.65018300  1
  H  H19  1  0.57197200  0.87175900  0.65020800  1
  H  H20  1  0.42800700  0.13210600  0.34981800  1
  H  H21  1  0.31410600  0.75245600  0.44861400  1
  H  H22  1  0.31566800  0.80742200  0.30739000  1
  H  H23  1  0.28522000  0.70514800  0.30797000  1
  H  H24  1  0.42163500  0.74015700  0.23657200  1
  H  H25  1  0.40463000  0.65490600  0.32758400  1
  H  H26  1  0.68436100  0.19646300  0.69255800  1
  H  H27  1  0.68589000  0.25142700  0.55133100  1
  H  H28  1  0.71479100  0.29874500  0.69195900  1
  H  H29  1  0.59536900  0.34896000  0.67241600  1
  H  H30  1  0.57838900  0.26369700  0.76341300  1
  H  H31  1  0.68589400  0.75245600  0.55138700  1
  H  H32  1  0.68433100  0.80742200  0.69261200  1
  H  H33  1  0.71478000  0.70514800  0.69203100  1
  H  H34  1  0.57836500  0.74015700  0.76342800  1
  H  H35  1  0.59537000  0.65490600  0.67241600  1
  H  H36  1  0.31564000  0.19646300  0.30744100  1
  H  H37  1  0.31411000  0.25142700  0.44866800  1
  H  H38  1  0.28520900  0.29874400  0.30804000  1
  H  H39  1  0.40463100  0.34896000  0.32758400  1
  H  H40  1  0.42161200  0.26369800  0.23658700  1
  C  C1  1  0.35280200  0.50193200  0.48908800  1
  C  C2  1  0.64719800  0.50193200  0.51091200  1
  C  C3  1  0.51214200  0.50193200  0.26113200  1
  C  C4  1  0.48785800  0.50193200  0.73886800  1
  C  C5  1  0.53833100  0.64576800  0.10708000  1
  C  C6  1  0.46167300  0.35809300  0.89291700  1
  C  C7  1  0.46166900  0.64576800  0.89292000  1
  C  C8  1  0.53832800  0.35809300  0.10708400  1
  C  C9  1  0.52185900  0.71693300  0.05098300  1
  C  C10  1  0.47814400  0.28692800  0.94901400  1
  C  C11  1  0.47814000  0.71693300  0.94901700  1
  C  C12  1  0.52185700  0.28692800  0.05098700  1
  C  C13  1  0.48661000  0.57350000  0.94078000  1
  C  C14  1  0.51338900  0.43036200  0.05922100  1
  C  C15  1  0.51339000  0.57350000  0.05922000  1
  C  C16  1  0.48661200  0.43036200  0.94077900  1
  C  C17  1  0.48136900  0.50193100  0.87542500  1
  C  C18  1  0.51863200  0.50193100  0.12457500  1
  C  C19  1  0.84672600  0.57309600  0.50262600  1
  C  C20  1  0.15327800  0.43075900  0.49747100  1
  C  C21  1  0.15327400  0.57309600  0.49737500  1
  C  C22  1  0.84672200  0.43075900  0.50252800  1
  C  C23  1  0.76925800  0.57311700  0.50469800  1
  C  C24  1  0.23074600  0.43074200  0.49539600  1
  C  C25  1  0.23074200  0.57311700  0.49530300  1
  C  C26  1  0.76925400  0.43074200  0.50460300  1
  C  C27  1  0.72986800  0.50193000  0.50833300  1
  C  C28  1  0.27013200  0.50193000  0.49166800  1
  C  C29  1  0.88553200  0.50192600  0.50258600  1
  C  C30  1  0.11446900  0.50192600  0.49741400  1
  C  C31  1  0.96615100  0.50192500  0.50073500  1
  C  C32  1  0.03385000  0.50192500  0.49926500  1
  C  C33  1  0.45942700  0.83862100  0.41683200  1
  C  C34  1  0.54058500  0.16524400  0.58315400  1
  C  C35  1  0.54057400  0.83862100  0.58316800  1
  C  C36  1  0.45941500  0.16524400  0.41684600  1
  C  C37  1  0.45687600  0.75601300  0.41947800  1
  C  C38  1  0.54313100  0.24785200  0.58051300  1
  C  C39  1  0.54312500  0.75601300  0.58052200  1
  C  C40  1  0.45686900  0.24785200  0.41948700  1
  C  C41  1  0.50000000  0.88014200  0.50000000  1
  C  C42  1  0.50000000  0.12372300  0.50000000  1
  C  C43  1  0.50000000  0.96591800  0.50000000  1
  C  C44  1  0.50000000  0.03794700  0.50000000  1
  C  C45  1  0.40476700  0.71990600  0.32797100  1
  C  C46  1  0.32486200  0.74817000  0.34985800  1
  C  C47  1  0.59524400  0.28396000  0.67201300  1
  C  C48  1  0.67515000  0.25571300  0.65009200  1
  C  C49  1  0.59523300  0.71990600  0.67203000  1
  C  C50  1  0.67513800  0.74817000  0.65014300  1
  C  C51  1  0.40475700  0.28396000  0.32798700  1
  C  C52  1  0.32485100  0.25571300  0.34990700  1
  N  N1  1  0.50000000  0.71311400  0.50000000  1
  N  N2  1  0.50000000  0.29075100  0.50000000  1
  O  O1  1  0.38818100  0.57068200  0.49046700  1
  O  O2  1  0.61181900  0.43318300  0.50953100  1
  O  O3  1  0.61181900  0.57068200  0.50953300  1
  O  O4  1  0.38818100  0.43318300  0.49046900  1
  O  O5  1  0.50697700  0.57027900  0.31972800  1
  O  O6  1  0.49302400  0.43358600  0.68027200  1
  O  O7  1  0.49302300  0.57027900  0.68027200  1
  O  O8  1  0.50697600  0.43358600  0.31972800  1
