# generated using pymatgen
data_Zn3H18C24(NO6)2
_symmetry_space_group_name_H-M   'P 1'
_cell_length_a   31.32993100
_cell_length_b   31.19952000
_cell_length_c   21.34595600
_cell_angle_alpha   90.00000000
_cell_angle_beta   137.19241200
_cell_angle_gamma   90.00000000
_symmetry_Int_Tables_number   1
_chemical_formula_structural   Zn3H18C24(NO6)2
_chemical_formula_sum   'Zn12 H72 C96 N8 O48'
_cell_volume   14178.71943842
_cell_formula_units_Z   4
loop_
 _symmetry_equiv_pos_site_id
 _symmetry_equiv_pos_as_xyz
  1  'x, y, z'
loop_
 _atom_site_type_symbol
 _atom_site_label
 _atom_site_symmetry_multiplicity
 _atom_site_fract_x
 _atom_site_fract_y
 _atom_site_fract_z
 _atom_site_occupancy
  Zn  Zn1  1  0.79496700  0.69534000  0.50260800  1
  Zn  Zn2  1  0.22322100  0.26334000  0.49716400  1
  Zn  Zn3  1  0.20503300  0.69534000  0.49739200  1
  Zn  Zn4  1  0.77677900  0.26334000  0.50283700  1
  Zn  Zn5  1  0.29496700  0.19534000  0.50260800  1
  Zn  Zn6  1  0.72322100  0.76334000  0.49716400  1
  Zn  Zn7  1  0.70503300  0.19534000  0.49739200  1
  Zn  Zn8  1  0.27677900  0.76334000  0.50283700  1
  Zn  Zn9  1  0.44589800  0.48864500  0.39576500  1
  Zn  Zn10  1  0.55410200  0.48864500  0.60423500  1
  Zn  Zn11  1  0.94589800  0.98864500  0.39576500  1
  Zn  Zn12  1  0.05410200  0.98864500  0.60423500  1
  H  H1  1  0.94110900  0.87598100  0.56853400  1
  H  H2  1  0.07095000  0.08735400  0.42732800  1
  H  H3  1  0.05889000  0.87598100  0.43146600  1
  H  H4  1  0.92905000  0.08735400  0.57267200  1
  H  H5  1  0.44110900  0.37598100  0.56853400  1
  H  H6  1  0.57095000  0.58735400  0.42732800  1
  H  H7  1  0.55889000  0.37598100  0.43146600  1
  H  H8  1  0.42905000  0.58735400  0.57267200  1
  H  H9  1  0.77976200  0.86989100  0.44175600  1
  H  H10  1  0.15942300  0.17653000  0.57496800  1
  H  H11  1  0.22023800  0.86989100  0.55824400  1
  H  H12  1  0.84057700  0.17653000  0.42503200  1
  H  H13  1  0.27976200  0.36989100  0.44175600  1
  H  H14  1  0.65942300  0.67653000  0.57496800  1
  H  H15  1  0.72023800  0.36989100  0.55824400  1
  H  H16  1  0.34057700  0.67653000  0.42503200  1
  H  H17  1  0.88070900  0.81228700  0.49296300  1
  H  H18  1  0.17657200  0.10368700  0.49923000  1
  H  H19  1  0.11929100  0.81228700  0.50703700  1
  H  H20  1  0.82342800  0.10368700  0.50077000  1
  H  H21  1  0.38070900  0.31228700  0.49296300  1
  H  H22  1  0.67657200  0.60368700  0.49923000  1
  H  H23  1  0.61929100  0.31228700  0.50703700  1
  H  H24  1  0.32342800  0.60368700  0.50077000  1
  H  H25  1  0.76019500  0.88067100  0.27394700  1
  H  H26  1  0.72904700  0.93434500  0.23766000  1
  H  H27  1  0.71898100  0.90280900  0.29669100  1
  H  H28  1  0.84737500  0.97622000  0.47358200  1
  H  H29  1  0.77540400  0.95276800  0.42495700  1
  H  H30  1  0.77398600  0.98795300  0.35601600  1
  H  H31  1  0.23863600  0.09926400  0.72490000  1
  H  H32  1  0.22017000  0.10928500  0.78607800  1
  H  H33  1  0.21831400  0.15295400  0.72898400  1
  H  H34  1  0.05312300  0.12501300  0.57533400  1
  H  H35  1  0.10722100  0.16936700  0.62666100  1
  H  H36  1  0.11447200  0.13177100  0.69863400  1
  H  H37  1  0.23980500  0.88067100  0.72605300  1
  H  H38  1  0.27095300  0.93434500  0.76234000  1
  H  H39  1  0.28101900  0.90280900  0.70331000  1
  H  H40  1  0.15262500  0.97622000  0.52641800  1
  H  H41  1  0.22459600  0.95276800  0.57504300  1
  H  H42  1  0.22601400  0.98795300  0.64398400  1
  H  H43  1  0.76136400  0.09926400  0.27510000  1
  H  H44  1  0.77983000  0.10928500  0.21392200  1
  H  H45  1  0.78168600  0.15295400  0.27101600  1
  H  H46  1  0.94687700  0.12501300  0.42466600  1
  H  H47  1  0.89277900  0.16936700  0.37333900  1
  H  H48  1  0.88552800  0.13177100  0.30136600  1
  H  H49  1  0.26019500  0.38067100  0.27394700  1
  H  H50  1  0.22904700  0.43434500  0.23766000  1
  H  H51  1  0.21898100  0.40280900  0.29669100  1
  H  H52  1  0.34737500  0.47622000  0.47358200  1
  H  H53  1  0.27540400  0.45276800  0.42495700  1
  H  H54  1  0.27398600  0.48795300  0.35601600  1
  H  H55  1  0.73863600  0.59926400  0.72490000  1
  H  H56  1  0.72017000  0.60928500  0.78607800  1
  H  H57  1  0.71831400  0.65295400  0.72898400  1
  H  H58  1  0.55312300  0.62501300  0.57533400  1
  H  H59  1  0.60722100  0.66936700  0.62666100  1
  H  H60  1  0.61447200  0.63177100  0.69863400  1
  H  H61  1  0.73980500  0.38067100  0.72605300  1
  H  H62  1  0.77095300  0.43434500  0.76234000  1
  H  H63  1  0.78101900  0.40280900  0.70331000  1
  H  H64  1  0.65262500  0.47622000  0.52641800  1
  H  H65  1  0.72459600  0.45276800  0.57504300  1
  H  H66  1  0.72601400  0.48795300  0.64398400  1
  H  H67  1  0.26136400  0.59926400  0.27510000  1
  H  H68  1  0.27983000  0.60928500  0.21392200  1
  H  H69  1  0.28168600  0.65295400  0.27101600  1
  H  H70  1  0.44687700  0.62501300  0.42466600  1
  H  H71  1  0.39277900  0.66936700  0.37333900  1
  H  H72  1  0.38552800  0.63177100  0.30136600  1
  C  C1  1  0.81328800  0.78853900  0.49017300  1
  C  C2  1  0.20493100  0.17012400  0.50943000  1
  C  C3  1  0.18671200  0.78853900  0.50982700  1
  C  C4  1  0.79506900  0.17012400  0.49057000  1
  C  C5  1  0.31328800  0.28853900  0.49017300  1
  C  C6  1  0.70493100  0.67012400  0.50943000  1
  C  C7  1  0.68671200  0.28853900  0.50982700  1
  C  C8  1  0.29506900  0.67012400  0.49057000  1
  C  C9  1  0.66820800  0.72401600  0.32002900  1
  C  C10  1  0.34969300  0.23450600  0.67985000  1
  C  C11  1  0.33179200  0.72401600  0.67997100  1
  C  C12  1  0.65030700  0.23450600  0.32015000  1
  C  C13  1  0.16820800  0.22401600  0.32002900  1
  C  C14  1  0.84969300  0.73450600  0.67985000  1
  C  C15  1  0.83179200  0.22401600  0.67997100  1
  C  C16  1  0.15030700  0.73450600  0.32015000  1
  C  C17  1  0.61724900  0.72149100  0.22135800  1
  C  C18  1  0.39776900  0.23504600  0.77874400  1
  C  C19  1  0.38275100  0.72149100  0.77864200  1
  C  C20  1  0.60223100  0.23504600  0.22125600  1
  C  C21  1  0.11724900  0.22149100  0.22135800  1
  C  C22  1  0.89776900  0.73504600  0.77874400  1
  C  C23  1  0.88275100  0.22149100  0.77864200  1
  C  C24  1  0.10223100  0.73504600  0.22125600  1
  C  C25  1  0.57367800  0.72008500  0.13849000  1
  C  C26  1  0.43666100  0.23534500  0.86164900  1
  C  C27  1  0.42632200  0.72008500  0.86151000  1
  C  C28  1  0.56333900  0.23534500  0.13835100  1
  C  C29  1  0.07367800  0.22008500  0.13849000  1
  C  C30  1  0.93666100  0.73534500  0.86164900  1
  C  C31  1  0.92632200  0.22008500  0.86151000  1
  C  C32  1  0.06333900  0.73534500  0.13835100  1
  C  C33  1  0.52208500  0.71925900  0.04142000  1
  C  C34  1  0.48115500  0.23551900  0.95864100  1
  C  C35  1  0.47791400  0.71925900  0.95858000  1
  C  C36  1  0.51884500  0.23551900  0.04135900  1
  C  C37  1  0.02208500  0.21925900  0.04142000  1
  C  C38  1  0.98115500  0.73551900  0.95864100  1
  C  C39  1  0.97791400  0.21925900  0.95858000  1
  C  C40  1  0.01884500  0.73551900  0.04135900  1
  C  C41  1  0.84892000  0.89467000  0.44785500  1
  C  C42  1  0.12828000  0.11033500  0.56137800  1
  C  C43  1  0.15108000  0.89467000  0.55214500  1
  C  C44  1  0.87172000  0.11033500  0.43862200  1
  C  C45  1  0.34892000  0.39467000  0.44785500  1
  C  C46  1  0.62828000  0.61033500  0.56137800  1
  C  C47  1  0.65108000  0.39467000  0.55214500  1
  C  C48  1  0.37172000  0.61033500  0.43862200  1
  C  C49  1  0.91144200  0.89693300  0.50896400  1
  C  C50  1  0.08667000  0.08279200  0.49208100  1
  C  C51  1  0.08855800  0.89693300  0.49103600  1
  C  C52  1  0.91333000  0.08279200  0.50791900  1
  C  C53  1  0.41144200  0.39693300  0.50896400  1
  C  C54  1  0.58667000  0.58279200  0.49208100  1
  C  C55  1  0.58855800  0.39693300  0.49103600  1
  C  C56  1  0.41333000  0.58279200  0.50791900  1
  C  C57  1  0.82095000  0.86175500  0.45878500  1
  C  C58  1  0.15410200  0.14469800  0.54964500  1
  C  C59  1  0.17905000  0.86175500  0.54121500  1
  C  C60  1  0.84589800  0.14469800  0.45035500  1
  C  C61  1  0.32095000  0.36175500  0.45878500  1
  C  C62  1  0.65410200  0.64469800  0.54964500  1
  C  C63  1  0.67905000  0.36175500  0.54121500  1
  C  C64  1  0.34589800  0.64469800  0.45035500  1
  C  C65  1  0.84280600  0.82165000  0.48314700  1
  C  C66  1  0.17603400  0.13631700  0.51608200  1
  C  C67  1  0.15719400  0.82165000  0.51685300  1
  C  C68  1  0.82396600  0.13631700  0.48391800  1
  C  C69  1  0.34280600  0.32165000  0.48314700  1
  C  C70  1  0.67603400  0.63631700  0.51608200  1
  C  C71  1  0.65719400  0.32165000  0.51685300  1
  C  C72  1  0.32396600  0.63631700  0.48391800  1
  C  C73  1  0.44298100  0.54839800  0.50333800  1
  C  C74  1  0.55754200  0.42960100  0.49632900  1
  C  C75  1  0.55701900  0.54839800  0.49666200  1
  C  C76  1  0.44245800  0.42960100  0.50367100  1
  C  C77  1  0.94298100  0.04839800  0.50333800  1
  C  C78  1  0.05754200  0.92960100  0.49632900  1
  C  C79  1  0.05701900  0.04839800  0.49666200  1
  C  C80  1  0.94245800  0.92960100  0.50367100  1
  C  C81  1  0.75142800  0.91005500  0.29241900  1
  C  C82  1  0.80118400  0.96280500  0.41003600  1
  C  C83  1  0.20865500  0.11829000  0.72475600  1
  C  C84  1  0.10239000  0.13528900  0.63536300  1
  C  C85  1  0.24857200  0.91005500  0.70758100  1
  C  C86  1  0.19881600  0.96280500  0.58996400  1
  C  C87  1  0.79134500  0.11829000  0.27524400  1
  C  C88  1  0.89760900  0.13528900  0.36463800  1
  C  C89  1  0.25142800  0.41005500  0.29241900  1
  C  C90  1  0.30118400  0.46280500  0.41003600  1
  C  C91  1  0.70865500  0.61829000  0.72475600  1
  C  C92  1  0.60239000  0.63528900  0.63536200  1
  C  C93  1  0.74857200  0.41005500  0.70758100  1
  C  C94  1  0.69881600  0.46280500  0.58996400  1
  C  C95  1  0.29134500  0.61829000  0.27524400  1
  C  C96  1  0.39760900  0.63528900  0.36463800  1
  N  N1  1  0.81014800  0.92657100  0.37886700  1
  N  N2  1  0.14353700  0.10899800  0.64243200  1
  N  N3  1  0.18985200  0.92657100  0.62113400  1
  N  N4  1  0.85646300  0.10899800  0.35756800  1
  N  N5  1  0.31014800  0.42657100  0.37886700  1
  N  N6  1  0.64353700  0.60899800  0.64243200  1
  N  N7  1  0.68985200  0.42657100  0.62113400  1
  N  N8  1  0.35646300  0.60899800  0.35756800  1
  O  O1  1  0.82723800  0.74844200  0.49316100  1
  O  O2  1  0.19159200  0.21026400  0.50785600  1
  O  O3  1  0.17276200  0.74844200  0.50683900  1
  O  O4  1  0.80840800  0.21026400  0.49214400  1
  O  O5  1  0.32723800  0.24844200  0.49316100  1
  O  O6  1  0.69159200  0.71026400  0.50785600  1
  O  O7  1  0.67276200  0.24844200  0.50683900  1
  O  O8  1  0.30840800  0.71026400  0.49214400  1
  O  O9  1  0.77409200  0.80012000  0.49235800  1
  O  O10  1  0.24345800  0.15850900  0.50605600  1
  O  O11  1  0.22590800  0.80012000  0.50764200  1
  O  O12  1  0.75654200  0.15850900  0.49394400  1
  O  O13  1  0.27409200  0.30012000  0.49235800  1
  O  O14  1  0.74345800  0.65850900  0.50605600  1
  O  O15  1  0.72590800  0.30012000  0.50764200  1
  O  O16  1  0.25654200  0.65850900  0.49394400  1
  O  O17  1  0.71797900  0.70005100  0.36424900  1
  O  O18  1  0.30038100  0.25891700  0.63541900  1
  O  O19  1  0.28202100  0.70005100  0.63575100  1
  O  O20  1  0.69961900  0.25891700  0.36458100  1
  O  O21  1  0.21797900  0.20005100  0.36424900  1
  O  O22  1  0.80038100  0.75891700  0.63541900  1
  O  O23  1  0.78202100  0.20005100  0.63575100  1
  O  O24  1  0.19961900  0.75891700  0.36458100  1
  O  O25  1  0.66212800  0.75010200  0.36125400  1
  O  O26  1  0.35562800  0.20808900  0.63870800  1
  O  O27  1  0.33787200  0.75010200  0.63874600  1
  O  O28  1  0.64437200  0.20808900  0.36129200  1
  O  O29  1  0.16212800  0.25010200  0.36125400  1
  O  O30  1  0.85562800  0.70808900  0.63870800  1
  O  O31  1  0.83787200  0.25010200  0.63874600  1
  O  O32  1  0.14437200  0.70808900  0.36129200  1
  O  O33  1  0.41424800  0.53345100  0.42263300  1
  O  O34  1  0.58614200  0.44434600  0.57714100  1
  O  O35  1  0.58575100  0.53345100  0.57736700  1
  O  O36  1  0.41385800  0.44434600  0.42285900  1
  O  O37  1  0.91424800  0.03345100  0.42263300  1
  O  O38  1  0.08614200  0.94434600  0.57714100  1
  O  O39  1  0.08575100  0.03345100  0.57736700  1
  O  O40  1  0.91385800  0.94434600  0.42285900  1
  O  O41  1  0.49780100  0.53418200  0.58143700  1
  O  O42  1  0.50165800  0.44257500  0.41863500  1
  O  O43  1  0.50219900  0.53418200  0.41856300  1
  O  O44  1  0.49834200  0.44257500  0.58136500  1
  O  O45  1  0.99780100  0.03418200  0.58143700  1
  O  O46  1  0.00165800  0.94257500  0.41863500  1
  O  O47  1  0.00219900  0.03418200  0.41856300  1
  O  O48  1  0.99834200  0.94257500  0.58136500  1
