# generated using pymatgen
data_ZnH12C12N5O4
_symmetry_space_group_name_H-M   'P 1'
_cell_length_a   6.57880400
_cell_length_b   10.99269600
_cell_length_c   14.27658400
_cell_angle_alpha   90.00000000
_cell_angle_beta   90.00000000
_cell_angle_gamma   90.00000000
_symmetry_Int_Tables_number   1
_chemical_formula_structural   ZnH12C12N5O4
_chemical_formula_sum   'Zn2 H24 C24 N10 O8'
_cell_volume   1032.46531470
_cell_formula_units_Z   2
loop_
 _symmetry_equiv_pos_site_id
 _symmetry_equiv_pos_as_xyz
  1  'x, y, z'
loop_
 _atom_site_type_symbol
 _atom_site_label
 _atom_site_symmetry_multiplicity
 _atom_site_fract_x
 _atom_site_fract_y
 _atom_site_fract_z
 _atom_site_occupancy
  Zn  Zn1  1  0.49047000  0.50231900  0.89505100  1
  Zn  Zn2  1  0.51636700  0.50232200  0.10562600  1
  H  H1  1  0.63706000  0.89399400  0.96860500  1
  H  H2  1  0.36977200  0.89399900  0.03207900  1
  H  H3  1  0.17121900  0.49857500  0.56023200  1
  H  H4  1  0.19413200  0.55041800  0.40526800  1
  H  H5  1  0.81562600  0.54186900  0.59567900  1
  H  H6  1  0.83224800  0.48594600  0.44207200  1
  H  H7  1  0.63705500  0.11067100  0.96861200  1
  H  H8  1  0.36977000  0.11067300  0.03208100  1
  H  H9  1  0.82374100  0.37656500  0.54967500  1
  H  H10  1  0.72192800  0.23544200  0.54888300  1
  H  H11  1  0.77671300  0.31320300  0.42465500  1
  H  H12  1  0.59861900  0.20245400  0.42465800  1
  H  H13  1  0.37773900  0.20620300  0.57414600  1
  H  H14  1  0.21310200  0.32438200  0.57837200  1
  H  H15  1  0.26217700  0.24241900  0.44952400  1
  H  H16  1  0.17289000  0.38650200  0.45297800  1
  H  H17  1  0.66783900  0.73407500  0.42301100  1
  H  H18  1  0.91154700  0.68883700  0.43058600  1
  H  H19  1  0.52480200  0.73379800  0.54210800  1
  H  H20  1  0.77958100  0.74797700  0.55201500  1
  H  H21  1  0.23935800  0.75339200  0.44288000  1
  H  H22  1  0.38907700  0.71416000  0.35183200  1
  H  H23  1  0.24388100  0.65757600  0.66505700  1
  H  H24  1  0.12456400  0.70726100  0.56775700  1
  C  C1  1  0.79874900  0.89370800  0.98163200  1
  C  C2  1  0.20808500  0.89371100  0.01904800  1
  C  C3  1  0.90010300  0.78454500  0.99161100  1
  C  C4  1  0.10673800  0.78454700  0.00906300  1
  C  C5  1  0.10549600  0.00233400  0.01023600  1
  C  C6  1  0.90133400  0.00233200  0.99045000  1
  C  C7  1  0.79874300  0.11095600  0.98164100  1
  C  C8  1  0.20808300  0.11095800  0.01905000  1
  C  C9  1  0.90010200  0.22011600  0.99161700  1
  C  C10  1  0.10672400  0.22011700  0.00907000  1
  C  C11  1  0.52381000  0.50181200  0.30942400  1
  C  C12  1  0.48300000  0.50181400  0.69125500  1
  C  C13  1  0.77966700  0.33148400  0.99386100  1
  C  C14  1  0.22716400  0.33148600  0.00681900  1
  C  C15  1  0.22722100  0.67318900  0.00681400  1
  C  C16  1  0.77962800  0.67318200  0.99386100  1
  C  C17  1  0.48373800  0.37156300  0.44701800  1
  C  C18  1  0.51142300  0.37090900  0.55348000  1
  C  C19  1  0.49362500  0.50149900  0.58889200  1
  C  C20  1  0.51315500  0.50149500  0.41178500  1
  C  C21  1  0.67920900  0.57344900  0.55721500  1
  C  C22  1  0.70887700  0.55277200  0.45275900  1
  C  C23  1  0.30293400  0.55913400  0.54820500  1
  C  C24  1  0.33306200  0.57789900  0.44369300  1
  N  N1  1  0.52897900  0.50204700  0.22841400  1
  N  N2  1  0.47785300  0.50204300  0.77226100  1
  N  N3  1  0.70995300  0.32218900  0.57807900  1
  N  N4  1  0.63046100  0.29101900  0.40270400  1
  N  N5  1  0.35757200  0.29525000  0.59780700  1
  N  N6  1  0.28085600  0.32984600  0.42237700  1
  N  N7  1  0.76809900  0.66453100  0.40552100  1
  N  N8  1  0.65231200  0.70195600  0.57756700  1
  N  N9  1  0.37007400  0.70537900  0.42412200  1
  N  N10  1  0.26266100  0.67472600  0.59365300  1
  O  O1  1  0.72542500  0.37299800  0.07633200  1
  O  O2  1  0.70254900  0.37166300  0.91495800  1
  O  O3  1  0.30428200  0.37166800  0.08571800  1
  O  O4  1  0.28141000  0.37299700  0.92434600  1
  O  O5  1  0.28138200  0.63162500  0.92434700  1
  O  O6  1  0.30426100  0.63296400  0.08571600  1
  O  O7  1  0.70258700  0.63295500  0.91495700  1
  O  O8  1  0.72546600  0.63162300  0.07632900  1
