# generated using pymatgen
data_FeH8C24N2ClO8
_symmetry_space_group_name_H-M   'P 1'
_cell_length_a   12.19376000
_cell_length_b   16.80726000
_cell_length_c   15.17912300
_cell_angle_alpha   106.12860500
_cell_angle_beta   90.79241800
_cell_angle_gamma   100.28453900
_symmetry_Int_Tables_number   1
_chemical_formula_structural   FeH8C24N2ClO8
_chemical_formula_sum   'Fe2 H16 C48 N4 Cl2 O16'
_cell_volume   2933.78188671
_cell_formula_units_Z   2
loop_
 _symmetry_equiv_pos_site_id
 _symmetry_equiv_pos_as_xyz
  1  'x, y, z'
loop_
 _atom_site_type_symbol
 _atom_site_label
 _atom_site_symmetry_multiplicity
 _atom_site_fract_x
 _atom_site_fract_y
 _atom_site_fract_z
 _atom_site_occupancy
  Fe  Fe1  1  0.41592000  0.00041400  0.31246300  1
  Fe  Fe2  1  0.39247000  0.98214800  0.69863600  1
  H  H1  1  0.63438600  0.98976500  0.08433600  1
  H  H2  1  0.62188800  0.98562700  0.94919100  1
  H  H3  1  0.18611700  0.99478800  0.06339700  1
  H  H4  1  0.17523200  0.99647800  0.92976500  1
  H  H5  1  0.84839000  0.04753600  0.32225200  1
  H  H6  1  0.03924300  0.05395900  0.31458300  1
  H  H7  1  0.96766000  0.93546400  0.69041500  1
  H  H8  1  0.41370500  0.26572300  0.43958200  1
  H  H9  1  0.37696200  0.41592200  0.71130600  1
  H  H10  1  0.36494900  0.29392000  0.76654300  1
  H  H11  1  0.42627900  0.56579600  0.29943900  1
  H  H12  1  0.43958200  0.68798500  0.24436800  1
  H  H13  1  0.39012700  0.71610000  0.57122900  1
  H  H14  1  0.78762400  0.00783300  0.49440000  1
  H  H15  1  0.71439200  0.74871600  0.48798400  1
  H  H16  1  0.72656500  0.78958200  0.65684800  1
  C  C1  1  0.73157800  0.01974800  0.20715100  1
  C  C2  1  0.83660000  0.03392600  0.24851400  1
  C  C3  1  0.92733500  0.02764300  0.19609200  1
  C  C4  1  0.03010500  0.03878700  0.24050700  1
  C  C5  1  0.12091700  0.02638700  0.19060800  1
  C  C6  1  0.71871800  0.00262700  0.11275400  1
  C  C7  1  0.81062700  0.99885700  0.05819100  1
  C  C8  1  0.91567400  0.00923300  0.10097600  1
  C  C9  1  0.00908500  0.00061300  0.04992400  1
  C  C10  1  0.69734300  0.97574800  0.91587500  1
  C  C11  1  0.79964800  0.98250000  0.96223200  1
  C  C12  1  0.89320900  0.97441400  0.91093300  1
  C  C13  1  0.68666800  0.95613900  0.82196800  1
  C  C14  1  0.77756800  0.94504400  0.77111900  1
  C  C15  1  0.11092200  0.00607500  0.09654700  1
  C  C16  1  0.99836500  0.98491400  0.95415800  1
  C  C17  1  0.09102800  0.98225000  0.90065100  1
  C  C18  1  0.88172600  0.95609800  0.81546200  1
  C  C19  1  0.97447100  0.94979600  0.76419100  1
  C  C20  1  0.07908100  0.96492800  0.80647300  1
  C  C21  1  0.63395700  0.01964100  0.26315900  1
  C  C22  1  0.43177200  0.84589100  0.33680700  1
  C  C23  1  0.22886900  0.03523500  0.23771800  1
  C  C24  1  0.38928200  0.12028400  0.47211400  1
  C  C25  1  0.39470900  0.20128800  0.54219300  1
  C  C26  1  0.40508200  0.27247600  0.51188200  1
  C  C27  1  0.39743600  0.34991800  0.57132500  1
  C  C28  1  0.38283600  0.35632200  0.66284900  1
  C  C29  1  0.37504100  0.28622300  0.69423100  1
  C  C30  1  0.38038900  0.20798800  0.63499900  1
  C  C31  1  0.40248200  0.55788000  0.47378000  1
  C  C32  1  0.40060300  0.42384100  0.53694000  1
  C  C33  1  0.42075700  0.62545600  0.34793900  1
  C  C34  1  0.42930700  0.69564900  0.31665200  1
  C  C35  1  0.42455200  0.77397500  0.37594300  1
  C  C36  1  0.40992600  0.78067800  0.46874600  1
  C  C37  1  0.39880200  0.70938400  0.49894200  1
  C  C38  1  0.40599900  0.63186300  0.43944000  1
  C  C39  1  0.57738800  0.94763200  0.77656600  1
  C  C40  1  0.41609500  0.86173000  0.53898700  1
  C  C41  1  0.17718100  0.96561400  0.75087300  1
  C  C42  1  0.37448200  0.13620700  0.67419200  1
  C  C43  1  0.76207100  0.92181700  0.67070600  1
  C  C44  1  0.77860500  0.98310800  0.62490800  1
  C  C45  1  0.77298900  0.95993600  0.53013200  1
  C  C46  1  0.75014600  0.87578500  0.48097000  1
  C  C47  1  0.73204800  0.81468200  0.52652200  1
  C  C48  1  0.73833600  0.83764600  0.62123600  1
  N  N1  1  0.38946200  0.49844800  0.59456400  1
  N  N2  1  0.39057400  0.56463800  0.56342000  1
  N  N3  1  0.41359400  0.48326700  0.41615300  1
  N  N4  1  0.41248400  0.41707800  0.44729700  1
  Cl  Cl1  1  0.81060800  0.09021300  0.68650600  1
  Cl  Cl2  1  0.74549000  0.84637500  0.36071700  1
  O  O1  1  0.53306300  0.00770500  0.22456600  1
  O  O2  1  0.46471700  0.83844200  0.25346600  1
  O  O3  1  0.64674100  0.02746000  0.35130800  1
  O  O4  1  0.39935200  0.91555000  0.38179100  1
  O  O5  1  0.26837800  0.96789400  0.23933000  1
  O  O6  1  0.28470000  0.11069900  0.28071400  1
  O  O7  1  0.45740700  0.11412800  0.40508000  1
  O  O8  1  0.30527100  0.05810300  0.46771900  1
  O  O9  1  0.54191300  0.01494700  0.76910300  1
  O  O10  1  0.51458200  0.87263600  0.74358300  1
  O  O11  1  0.34930500  0.86802600  0.60687400  1
  O  O12  1  0.49924900  0.92416700  0.54228300  1
  O  O13  1  0.34364300  0.14396000  0.75815800  1
  O  O14  1  0.27793800  0.97531400  0.78882500  1
  O  O15  1  0.40625100  0.06643200  0.62865000  1
  O  O16  1  0.16503600  0.96031600  0.66326100  1
