# generated using pymatgen
data_Fe2H27C44N3O19
_symmetry_space_group_name_H-M   'P 1'
_cell_length_a   15.34961800
_cell_length_b   12.10584800
_cell_length_c   13.54985000
_cell_angle_alpha   88.82462300
_cell_angle_beta   101.79658500
_cell_angle_gamma   105.83322200
_symmetry_Int_Tables_number   1
_chemical_formula_structural   Fe2H27C44N3O19
_chemical_formula_sum   'Fe2 H27 C44 N3 O19'
_cell_volume   2369.48498778
_cell_formula_units_Z   1
loop_
 _symmetry_equiv_pos_site_id
 _symmetry_equiv_pos_as_xyz
  1  'x, y, z'
loop_
 _atom_site_type_symbol
 _atom_site_label
 _atom_site_symmetry_multiplicity
 _atom_site_fract_x
 _atom_site_fract_y
 _atom_site_fract_z
 _atom_site_occupancy
  Fe  Fe1  1  0.50007600  0.01181500  0.78369600  1
  Fe  Fe2  1  0.51181100  0.01182100  0.23100300  1
  H  H1  1  0.79317500  0.01820100  0.25257800  1
  H  H2  1  0.94411600  0.02012700  0.22408900  1
  H  H3  1  0.84066900  0.00134600  0.90657200  1
  H  H4  1  0.99684000  0.11803500  0.93145500  1
  H  H5  1  0.07667800  0.04988100  0.80126700  1
  H  H6  1  0.22549900  0.04454800  0.76727900  1
  H  H7  1  0.18979800  0.07662600  0.11634400  1
  H  H8  1  0.54933300  0.57813600  0.73982500  1
  H  H9  1  0.46087500  0.38561500  0.73351500  1
  H  H10  1  0.58390900  0.63783400  0.29707300  1
  H  H11  1  0.61101600  0.47607700  0.31341600  1
  H  H12  1  0.52441500  0.89317200  0.50605800  1
  H  H13  1  0.55383900  0.15400100  0.52949700  1
  H  H14  1  0.37619800  0.40420600  0.62638200  1
  H  H15  1  0.49034900  0.40889300  0.26428400  1
  H  H16  1  0.35053200  0.58361900  0.67163700  1
  H  H17  1  0.26548900  0.57797100  0.79147300  1
  H  H18  1  0.33288000  0.61429000  0.91795400  1
  H  H19  1  0.28580800  0.46538100  0.87530700  1
  H  H20  1  0.45096700  0.63078900  0.18095300  1
  H  H21  1  0.29561800  0.58727400  0.11440300  1
  H  H22  1  0.22892300  0.56957900  0.21199600  1
  H  H23  1  0.23458800  0.44498700  0.14493800  1
  H  H24  1  0.03397600  0.91616400  0.17859400  1
  H  H25  1  0.05834600  0.73838100  0.19231300  1
  H  H26  1  0.07477900  0.67841400  0.07887700  1
  H  H27  1  0.96009500  0.64848600  0.10556800  1
  C  C1  1  0.80300200  0.01605200  0.17597200  1
  C  C2  1  0.88824900  0.01542000  0.15987500  1
  C  C3  1  0.90188900  0.00894000  0.06311000  1
  C  C4  1  0.82961900  0.00694000  0.98228200  1
  C  C5  1  0.74256300  0.00622500  0.99731300  1
  C  C6  1  0.72923200  0.00800900  0.09629900  1
  C  C7  1  0.99192200  0.00004100  0.04722300  1
  C  C8  1  0.03246500  0.06362500  0.97836100  1
  C  C9  1  0.13431200  0.05367700  0.86340600  1
  C  C10  1  0.21805400  0.04960600  0.84454500  1
  C  C11  1  0.29282800  0.05501800  0.92265900  1
  C  C12  1  0.28294700  0.06306600  0.02212900  1
  C  C13  1  0.19819800  0.06788200  0.03996700  1
  C  C14  1  0.12332000  0.06044900  0.96103600  1
  C  C15  1  0.49518700  0.20628100  0.67946500  1
  C  C16  1  0.38029500  0.05545300  0.89505800  1
  C  C17  1  0.66969000  0.00923500  0.90751700  1
  C  C18  1  0.51114700  0.81267500  0.68195000  1
  C  C19  1  0.54920000  0.22108800  0.34593200  1
  C  C20  1  0.35694500  0.05868700  0.10964500  1
  C  C21  1  0.63954200  0.99737600  0.12248500  1
  C  C22  1  0.53651900  0.82511900  0.33639900  1
  C  C23  1  0.51611700  0.80164300  0.50636600  1
  C  C24  1  0.50858300  0.74266600  0.59312500  1
  C  C25  1  0.49947400  0.62449500  0.59134300  1
  C  C26  1  0.48320100  0.55682400  0.68340600  1
  C  C27  1  0.45118000  0.42844900  0.66082000  1
  C  C28  1  0.51856300  0.74911200  0.41934200  1
  C  C29  1  0.51531200  0.63378800  0.41707100  1
  C  C30  1  0.50664000  0.57130300  0.50344800  1
  C  C31  1  0.51362300  0.45294800  0.50491100  1
  C  C32  1  0.49967100  0.39009900  0.58941800  1
  C  C33  1  0.51809400  0.28417300  0.59898100  1
  C  C34  1  0.52227900  0.58146200  0.32096800  1
  C  C35  1  0.54019400  0.46383100  0.32694500  1
  C  C36  1  0.53456700  0.40365100  0.42377400  1
  C  C37  1  0.54671800  0.29317300  0.43160400  1
  C  C38  1  0.54434300  0.23919000  0.52175800  1
  C  C39  1  0.40327400  0.55729400  0.81740600  1
  C  C40  1  0.31637500  0.55355900  0.85227400  1
  C  C41  1  0.35619400  0.52459300  0.25413300  1
  C  C42  1  0.27399000  0.53234100  0.17640100  1
  C  C43  1  0.01259500  0.81680000  0.05453200  1
  C  C44  1  0.02740700  0.71447100  0.11166600  1
  N  N1  1  0.41131400  0.58703600  0.72212000  1
  N  N2  1  0.44262700  0.58012000  0.24209100  1
  N  N3  1  0.03330600  0.92023400  0.10261400  1
  O  O1  1  0.55863200  0.16031500  0.72946900  1
  O  O2  1  0.45572100  0.13815900  0.92912400  1
  O  O3  1  0.40769000  0.15734000  0.67947300  1
  O  O4  1  0.37942500  0.98196000  0.82475700  1
  O  O5  1  0.58325400  0.99475100  0.91476000  1
  O  O6  1  0.69197100  0.02919100  0.81907100  1
  O  O7  1  0.48123900  0.90460400  0.66546300  1
  O  O8  1  0.55245000  0.79354800  0.77283100  1
  O  O9  1  0.51536000  0.10938600  0.35058800  1
  O  O10  1  0.58143100  0.26414000  0.26672200  1
  O  O11  1  0.42683400  0.02045900  0.09886100  1
  O  O12  1  0.34839600  0.08233800  0.20063600  1
  O  O13  1  0.62047200  0.89312900  0.34384500  1
  O  O14  1  0.63414500  0.06586700  0.19356900  1
  O  O15  1  0.46689200  0.85604500  0.28094100  1
  O  O16  1  0.57089800  0.90513800  0.09251500  1
  O  O17  1  0.46750600  0.53614500  0.87663900  1
  O  O18  1  0.34424600  0.46617800  0.32710000  1
  O  O19  1  0.98123900  0.80618100  0.96392100  1
