# generated using pymatgen
data_ZnH10C17NO5
_symmetry_space_group_name_H-M   'P 1'
_cell_length_a   6.74162900
_cell_length_b   14.26505100
_cell_length_c   13.37589400
_cell_angle_alpha   90.00000000
_cell_angle_beta   90.06750500
_cell_angle_gamma   90.00000000
_symmetry_Int_Tables_number   1
_chemical_formula_structural   ZnH10C17NO5
_chemical_formula_sum   'Zn2 H20 C34 N2 O10'
_cell_volume   1286.35457306
_cell_formula_units_Z   2
loop_
 _symmetry_equiv_pos_site_id
 _symmetry_equiv_pos_as_xyz
  1  'x, y, z'
loop_
 _atom_site_type_symbol
 _atom_site_label
 _atom_site_symmetry_multiplicity
 _atom_site_fract_x
 _atom_site_fract_y
 _atom_site_fract_z
 _atom_site_occupancy
  Zn  Zn1  1  0.36562200  0.89490100  0.49745100  1
  Zn  Zn2  1  0.36562800  0.10487800  0.50559300  1
  H  H1  1  0.51569500  0.93853500  0.81418200  1
  H  H2  1  0.69512200  0.93767100  0.97368100  1
  H  H3  1  0.69474900  0.06250400  0.02938000  1
  H  H4  1  0.51552300  0.06148300  0.18867600  1
  H  H5  1  0.34267600  0.03507200  0.75592700  1
  H  H6  1  0.51729300  0.03475200  0.91783700  1
  H  H7  1  0.51726100  0.96503500  0.08530700  1
  H  H8  1  0.34290300  0.96492900  0.24734800  1
  H  H9  1  0.52222400  0.41714300  0.36381100  1
  H  H10  1  0.52200700  0.57410800  0.35827200  1
  H  H11  1  0.05337500  0.57888900  0.50182700  1
  H  H12  1  0.05340300  0.42128500  0.50753200  1
  H  H13  1  0.16100100  0.57533700  0.37780700  1
  H  H14  1  0.16066200  0.41702500  0.38347200  1
  H  H15  1  0.53047100  0.58333800  0.63880400  1
  H  H16  1  0.53044400  0.42469200  0.64433700  1
  H  H17  1  0.26366400  0.58300800  0.65017700  1
  H  H18  1  0.26356300  0.42576100  0.65562900  1
  H  H19  1  0.82447100  0.63182200  0.42833400  1
  H  H20  1  0.82463000  0.36396600  0.43783600  1
  C  C1  1  0.76253600  0.98723100  0.72990400  1
  C  C2  1  0.66893700  0.96070800  0.81691900  1
  C  C3  1  0.76803900  0.96245700  0.90702500  1
  C  C4  1  0.76781200  0.03761400  0.09599900  1
  C  C5  1  0.96798000  0.99666900  0.73099500  1
  C  C6  1  0.06347200  0.00331800  0.82222500  1
  C  C7  1  0.96091100  0.99273600  0.91081400  1
  C  C8  1  0.05917500  0.00015400  0.00157000  1
  C  C9  1  0.66878500  0.03932800  0.18605300  1
  C  C10  1  0.76230300  0.01259100  0.27309800  1
  C  C11  1  0.96082600  0.00742700  0.09225200  1
  C  C12  1  0.06342300  0.99670800  0.18089500  1
  C  C13  1  0.96779000  0.00312800  0.27204000  1
  C  C14  1  0.26369100  0.02086900  0.82460000  1
  C  C15  1  0.36292900  0.01758500  0.91442200  1
  C  C16  1  0.26188600  0.00010800  0.00163000  1
  C  C17  1  0.36298100  0.98246400  0.08886400  1
  C  C18  1  0.26378100  0.97919700  0.17863900  1
  C  C19  1  0.63805600  0.99455000  0.64040600  1
  C  C20  1  0.09291900  0.99694300  0.64089900  1
  C  C21  1  0.09275200  0.00283300  0.36214200  1
  C  C22  1  0.63778700  0.00524000  0.36258000  1
  C  C23  1  0.54116600  0.55110900  0.43689300  1
  C  C24  1  0.54121200  0.44495000  0.44065400  1
  C  C25  1  0.17767700  0.55165100  0.45633700  1
  C  C26  1  0.17762600  0.44556200  0.46013000  1
  C  C27  1  0.37059400  0.58832000  0.49873000  1
  C  C28  1  0.37059800  0.41145200  0.50491900  1
  C  C29  1  0.39078500  0.44997800  0.60992600  1
  C  C30  1  0.39080500  0.55604200  0.60619700  1
  C  C31  1  0.37012300  0.30893400  0.50804100  1
  C  C32  1  0.37011500  0.69083600  0.49554300  1
  C  C33  1  0.73201900  0.58867600  0.47603300  1
  C  C34  1  0.73209300  0.40994700  0.48238000  1
  N  N1  1  0.36923600  0.22783800  0.50951900  1
  N  N2  1  0.36922100  0.77193000  0.49395200  1
  O  O1  1  0.57086900  0.07743000  0.61146700  1
  O  O2  1  0.56944400  0.91580900  0.60485100  1
  O  O3  1  0.15999100  0.91672000  0.60479200  1
  O  O4  1  0.16115500  0.07793200  0.61144400  1
  O  O5  1  0.16086600  0.92171200  0.39157100  1
  O  O6  1  0.15971400  0.08318800  0.39823100  1
  O  O7  1  0.56914700  0.08383300  0.39820700  1
  O  O8  1  0.57057100  0.92249000  0.39159900  1
  O  O9  1  0.78260000  0.57236500  0.56179300  1
  O  O10  1  0.78258400  0.43154000  0.56681500  1
