# generated using pymatgen
data_Zn2H21C24N7O8
_symmetry_space_group_name_H-M   'P 1'
_cell_length_a   8.54333500
_cell_length_b   8.76542400
_cell_length_c   14.18710000
_cell_angle_alpha   90.38029300
_cell_angle_beta   92.91118300
_cell_angle_gamma   82.90844700
_symmetry_Int_Tables_number   1
_chemical_formula_structural   Zn2H21C24N7O8
_chemical_formula_sum   'Zn2 H21 C24 N7 O8'
_cell_volume   1052.92653223
_cell_formula_units_Z   1
loop_
 _symmetry_equiv_pos_site_id
 _symmetry_equiv_pos_as_xyz
  1  'x, y, z'
loop_
 _atom_site_type_symbol
 _atom_site_label
 _atom_site_symmetry_multiplicity
 _atom_site_fract_x
 _atom_site_fract_y
 _atom_site_fract_z
 _atom_site_occupancy
  Zn  Zn1  1  0.50650800  0.52333400  0.10279800  1
  Zn  Zn2  1  0.49437100  0.48162900  0.89392800  1
  H  H1  1  0.98400000  0.60808600  0.95207600  1
  H  H2  1  0.67996000  0.01522800  0.00596600  1
  H  H3  1  0.01569100  0.39785500  0.04449000  1
  H  H4  1  0.71186700  0.59129900  0.58686300  1
  H  H5  1  0.68965600  0.66728100  0.43402200  1
  H  H6  1  0.56253400  0.27293200  0.39789300  1
  H  H7  1  0.48370900  0.25548200  0.54319900  1
  H  H8  1  0.30227400  0.39864400  0.41141500  1
  H  H9  1  0.26772000  0.62891600  0.56664700  1
  H  H10  1  0.49483800  0.76069400  0.44262000  1
  H  H11  1  0.25789200  0.42710000  0.56551600  1
  H  H12  1  0.24135500  0.73722700  0.42397500  1
  H  H13  1  0.11511900  0.60781900  0.39889400  1
  H  H14  1  0.42134800  0.80944100  0.58749400  1
  H  H15  1  0.61046400  0.83567300  0.61369100  1
  H  H16  1  0.40640900  0.02810300  0.93237100  1
  H  H17  1  0.42822200  0.99644800  0.05065500  1
  H  H18  1  0.82428600  0.43770400  0.47402500  1
  H  H19  1  0.82834400  0.25855200  0.42670100  1
  H  H20  1  0.76058100  0.17226400  0.56714100  1
  H  H21  1  0.79195700  0.34762200  0.61272500  1
  C  C1  1  0.09878800  0.80668100  0.97721300  1
  C  C2  1  0.96830200  0.73031200  0.96451600  1
  C  C3  1  0.81951200  0.80388900  0.97753700  1
  C  C4  1  0.79714800  0.95924900  0.99517900  1
  C  C5  1  0.92510600  0.04117300  0.00150300  1
  C  C6  1  0.07750600  0.96427000  0.99467000  1
  C  C7  1  0.20511800  0.04751300  0.00128100  1
  C  C8  1  0.18100600  0.20253900  0.01901400  1
  C  C9  1  0.03205400  0.27567000  0.03192500  1
  C  C10  1  0.90243800  0.19837900  0.01926000  1
  C  C11  1  0.25331000  0.71106000  0.98347400  1
  C  C12  1  0.30854500  0.29604500  0.01237800  1
  C  C13  1  0.74661100  0.29215600  0.01331200  1
  C  C14  1  0.69167400  0.71009300  0.98431800  1
  C  C15  1  0.57198700  0.65267900  0.45955800  1
  C  C16  1  0.60428900  0.36744400  0.44090900  1
  C  C17  1  0.57156600  0.33862100  0.54394400  1
  C  C18  1  0.50710600  0.51796300  0.40982400  1
  C  C19  1  0.58594100  0.62115400  0.56508900  1
  C  C20  1  0.49477300  0.48730600  0.58695400  1
  C  C21  1  0.32801600  0.51752700  0.54289700  1
  C  C22  1  0.33740900  0.51036900  0.43612700  1
  C  C23  1  0.48965800  0.47103900  0.68930900  1
  C  C24  1  0.51178400  0.53405900  0.30743500  1
  N  N1  1  0.48730800  0.46305100  0.77059200  1
  N  N2  1  0.51383600  0.54194100  0.22613300  1
  N  N3  1  0.22996400  0.63272900  0.39040400  1
  N  N4  1  0.52811100  0.75768500  0.61809700  1
  N  N5  1  0.36147000  0.97583800  0.98929000  1
  N  N6  1  0.77084600  0.37072300  0.42414900  1
  N  N7  1  0.70939100  0.27085800  0.60080200  1
  O  O1  1  0.30591800  0.64191900  0.90675300  1
  O  O2  1  0.32060200  0.68104500  0.06785500  1
  O  O3  1  0.35598000  0.36410100  0.08908500  1
  O  O4  1  0.35311100  0.32477600  0.92784900  1
  O  O5  1  0.69475200  0.36273800  0.08983600  1
  O  O6  1  0.67996800  0.32356000  0.92894400  1
  O  O7  1  0.64473500  0.64107600  0.90779600  1
  O  O8  1  0.64746600  0.68052300  0.06879400  1
