# generated using pymatgen
data_Fe2H29C68N4ClO16
_symmetry_space_group_name_H-M   'P 1'
_cell_length_a   17.27339000
_cell_length_b   14.19610500
_cell_length_c   18.94831100
_cell_angle_alpha   84.29824900
_cell_angle_beta   90.61652900
_cell_angle_gamma   116.02765900
_symmetry_Int_Tables_number   1
_chemical_formula_structural   Fe2H29C68N4ClO16
_chemical_formula_sum   'Fe2 H29 C68 N4 Cl1 O16'
_cell_volume   4151.72074053
_cell_formula_units_Z   1
loop_
 _symmetry_equiv_pos_site_id
 _symmetry_equiv_pos_as_xyz
  1  'x, y, z'
loop_
 _atom_site_type_symbol
 _atom_site_label
 _atom_site_symmetry_multiplicity
 _atom_site_fract_x
 _atom_site_fract_y
 _atom_site_fract_z
 _atom_site_occupancy
  Fe  Fe1  1  0.53957800  0.02893800  0.30568400  1
  Fe  Fe2  1  0.47335900  0.98203200  0.68917900  1
  H  H1  1  0.01987100  0.92471100  0.22873600  1
  H  H2  1  0.73064600  0.95927400  0.02324000  1
  H  H3  1  0.99264200  0.08438300  0.76480800  1
  H  H4  1  0.28213600  0.04844700  0.97011100  1
  H  H5  1  0.94082800  0.92440300  0.03812300  1
  H  H6  1  0.07381300  0.08761000  0.95506500  1
  H  H7  1  0.05674300  0.99497200  0.70857200  1
  H  H8  1  0.29814700  0.99978800  0.85408600  1
  H  H9  1  0.35610700  0.04509800  0.07326200  1
  H  H10  1  0.28022600  0.92909700  0.29177700  1
  H  H11  1  0.13517500  0.90722600  0.27025200  1
  H  H12  1  0.94419300  0.99581800  0.29023000  1
  H  H13  1  0.71523100  0.01210200  0.13630500  1
  H  H14  1  0.65644200  0.96169200  0.92129400  1
  H  H15  1  0.73010500  0.07771000  0.70270100  1
  H  H16  1  0.87601500  0.10074200  0.72321700  1
  H  H17  1  0.83203900  0.03317600  0.33938500  1
  H  H18  1  0.50675400  0.64736600  0.69986900  1
  H  H19  1  0.52626800  0.48990400  0.70201200  1
  H  H20  1  0.52998000  0.12543800  0.47573000  1
  H  H21  1  0.51520800  0.38262600  0.35645500  1
  H  H22  1  0.50697300  0.51506400  0.41191400  1
  H  H23  1  0.54066700  0.36347300  0.64586000  1
  H  H24  1  0.50737900  0.66066200  0.40803700  1
  H  H25  1  0.47938100  0.88418700  0.52299400  1
  H  H26  1  0.14947500  0.07074600  0.58981400  1
  H  H27  1  0.10087400  0.82490500  0.45909400  1
  H  H28  1  0.11791400  0.71510800  0.56115100  1
  H  H29  1  0.15059500  0.78256200  0.67759600  1
  C  C1  1  0.22365500  0.99778400  0.10487900  1
  C  C2  1  0.16401100  0.96296100  0.15932700  1
  C  C3  1  0.08952800  0.96285600  0.13268300  1
  C  C4  1  0.18302100  0.01406700  0.04483900  1
  C  C5  1  0.01927500  0.94313800  0.17210300  1
  C  C6  1  0.94479300  0.95826000  0.14557000  1
  C  C7  1  0.89125600  0.98153700  0.18659100  1
  C  C8  1  0.82917500  0.98717100  0.14429800  1
  C  C9  1  0.84596100  0.96761700  0.07743400  1
  C  C10  1  0.79561500  0.96889100  0.01459100  1
  C  C11  1  0.82987400  0.99461100  0.94860800  1
  C  C12  1  0.78881400  0.01008700  0.88881700  1
  C  C13  1  0.84819000  0.04531500  0.83421300  1
  C  C14  1  0.92305000  0.04627700  0.86075100  1
  C  C15  1  0.99327300  0.06608100  0.82147300  1
  C  C16  1  0.06745000  0.05036300  0.84822100  1
  C  C17  1  0.11923800  0.02434500  0.80740100  1
  C  C18  1  0.18243200  0.02029600  0.84871700  1
  C  C19  1  0.16745700  0.04237600  0.91555600  1
  C  C20  1  0.21744700  0.03989000  0.97869500  1
  C  C21  1  0.11106400  0.99877300  0.73903300  1
  C  C22  1  0.17108000  0.97132700  0.71104200  1
  C  C23  1  0.24181300  0.97618000  0.75098500  1
  C  C24  1  0.24566200  0.99763600  0.82171700  1
  C  C25  1  0.30742200  0.01336600  0.11569800  1
  C  C26  1  0.32774500  0.98844400  0.18390700  1
  C  C27  1  0.26471600  0.94762600  0.23840200  1
  C  C28  1  0.18239600  0.93614800  0.22679200  1
  C  C29  1  0.89428400  0.99909300  0.25669100  1
  C  C30  1  0.83067200  0.02082500  0.28395600  1
  C  C31  1  0.76556400  0.02515000  0.24148500  1
  C  C32  1  0.76507500  0.00925100  0.17010200  1
  C  C33  1  0.70481800  0.99359100  0.87862800  1
  C  C34  1  0.68382400  0.01827000  0.81077100  1
  C  C35  1  0.74636600  0.05939800  0.75586400  1
  C  C36  1  0.82905100  0.07156400  0.76688000  1
  C  C37  1  0.69556800  0.03990000  0.27460800  1
  C  C38  1  0.50279300  0.84477200  0.39337500  1
  C  C39  1  0.41597500  0.01070900  0.20229800  1
  C  C40  1  0.51788900  0.19454800  0.34911100  1
  C  C41  1  0.50250000  0.62618000  0.52269100  1
  C  C42  1  0.49953300  0.66714200  0.58618000  1
  C  C43  1  0.50857600  0.61754600  0.64997500  1
  C  C44  1  0.51967600  0.52758400  0.65139000  1
  C  C45  1  0.51997800  0.48413400  0.58962900  1
  C  C46  1  0.51148200  0.53192400  0.52478600  1
  C  C47  1  0.52835800  0.39150800  0.59435900  1
  C  C48  1  0.52431200  0.33995600  0.53497900  1
  C  C49  1  0.52027300  0.38990900  0.46932600  1
  C  C50  1  0.51304200  0.48366800  0.46446100  1
  C  C51  1  0.52377800  0.24035300  0.53857200  1
  C  C52  1  0.53008600  0.20152100  0.47574800  1
  C  C53  1  0.52926900  0.25308100  0.41082300  1
  C  C54  1  0.52116000  0.34553200  0.40752300  1
  C  C55  1  0.49968500  0.68303300  0.45895400  1
  C  C56  1  0.49247800  0.77598100  0.45897800  1
  C  C57  1  0.48362300  0.81064400  0.52204100  1
  C  C58  1  0.48824900  0.75835100  0.58536800  1
  C  C59  1  0.59540700  0.99604300  0.79339400  1
  C  C60  1  0.49707300  0.81542300  0.64743700  1
  C  C61  1  0.31587000  0.96896000  0.71745200  1
  C  C62  1  0.50783000  0.16659100  0.60395300  1
  C  C63  1  0.15416400  0.93204700  0.64098200  1
  C  C64  1  0.14281000  0.99262400  0.58383100  1
  C  C65  1  0.12413300  0.95432700  0.51852500  1
  C  C66  1  0.11563300  0.85489900  0.51027900  1
  C  C67  1  0.12534200  0.79345400  0.56745200  1
  C  C68  1  0.14410800  0.83164600  0.63276700  1
  N  N1  1  0.10080400  0.99329500  0.06219300  1
  N  N2  1  0.91626900  0.94863900  0.07889900  1
  N  N3  1  0.91217600  0.01613000  0.93120600  1
  N  N4  1  0.09751300  0.06220400  0.91437100  1
  Cl  Cl1  1  0.11097700  0.03196400  0.44602000  1
  O  O1  1  0.63036800  0.03975500  0.23807800  1
  O  O2  1  0.50844400  0.81438100  0.33123700  1
  O  O3  1  0.69365200  0.04295000  0.34351000  1
  O  O4  1  0.51499300  0.94179200  0.39830200  1
  O  O5  1  0.42616400  0.95799300  0.25953900  1
  O  O6  1  0.48123300  0.09555200  0.17281500  1
  O  O7  1  0.58305800  0.17905800  0.32699700  1
  O  O8  1  0.43941200  0.12376600  0.33930700  1
  O  O9  1  0.58488900  0.05197000  0.73821800  1
  O  O10  1  0.53082300  0.90838400  0.82036400  1
  O  O11  1  0.43164800  0.83297200  0.66588700  1
  O  O12  1  0.57522400  0.88374300  0.66065500  1
  O  O13  1  0.48889600  0.18626300  0.66591600  1
  O  O14  1  0.37988300  0.96801400  0.75517800  1
  O  O15  1  0.50087800  0.07206000  0.59756100  1
  O  O16  1  0.32472100  0.97814800  0.64811600  1
