# generated using pymatgen
data_CuH10C25N3O4
_symmetry_space_group_name_H-M   'P 1'
_cell_length_a   10.94108700
_cell_length_b   9.54326400
_cell_length_c   14.99801100
_cell_angle_alpha   90.00000000
_cell_angle_beta   90.00640400
_cell_angle_gamma   90.00000000
_symmetry_Int_Tables_number   1
_chemical_formula_structural   CuH10C25N3O4
_chemical_formula_sum   'Cu2 H20 C50 N6 O8'
_cell_volume   1565.99753672
_cell_formula_units_Z   2
loop_
 _symmetry_equiv_pos_site_id
 _symmetry_equiv_pos_as_xyz
  1  'x, y, z'
loop_
 _atom_site_type_symbol
 _atom_site_label
 _atom_site_symmetry_multiplicity
 _atom_site_fract_x
 _atom_site_fract_y
 _atom_site_fract_z
 _atom_site_occupancy
  Cu  Cu1  1  0.50345500  0.64024400  0.49894000  1
  Cu  Cu2  1  0.49646500  0.35976600  0.50099000  1
  H  H1  1  0.51075300  0.72676300  0.78169000  1
  H  H2  1  0.48913800  0.27327700  0.21826300  1
  H  H3  1  0.49521300  0.27901300  0.77990100  1
  H  H4  1  0.50468000  0.72101600  0.22003200  1
  H  H5  1  0.48937200  0.15271800  0.91659800  1
  H  H6  1  0.51060000  0.84731600  0.08333400  1
  H  H7  1  0.48662700  0.15042400  0.07953000  1
  H  H8  1  0.51333600  0.84958200  0.92039500  1
  H  H9  1  0.11422800  0.08158700  0.64272900  1
  H  H10  1  0.88558800  0.91846400  0.35718600  1
  H  H11  1  0.92019200  0.02846600  0.56846000  1
  H  H12  1  0.07972200  0.97154500  0.43135000  1
  H  H13  1  0.18571900  0.79462600  0.51291500  1
  H  H14  1  0.81417800  0.20542400  0.48690000  1
  H  H15  1  0.79348700  0.69087500  0.37478600  1
  H  H16  1  0.20637200  0.30915400  0.62512700  1
  H  H17  1  0.65898600  0.25404900  0.62186900  1
  H  H18  1  0.34118200  0.74615400  0.37848200  1
  H  H19  1  0.32379100  0.24560900  0.38426300  1
  H  H20  1  0.67639800  0.75426300  0.61600300  1
  C  C1  1  0.26350000  0.50786600  0.50851700  1
  C  C2  1  0.73641900  0.49214500  0.49134700  1
  C  C3  1  0.49708700  0.49681500  0.32842400  1
  C  C4  1  0.50279700  0.50320200  0.67153100  1
  C  C5  1  0.50714700  0.62765300  0.81642800  1
  C  C6  1  0.49274400  0.37237300  0.18352100  1
  C  C7  1  0.50312600  0.50314900  0.76938300  1
  C  C8  1  0.49675600  0.49687800  0.23057400  1
  C  C9  1  0.49831100  0.37751700  0.81533200  1
  C  C10  1  0.50158100  0.62251500  0.18461300  1
  C  C11  1  0.49714900  0.37638300  0.90730400  1
  C  C12  1  0.50272300  0.62364600  0.09263700  1
  C  C13  1  0.50072000  0.50068000  0.95394600  1
  C  C14  1  0.49913800  0.49934600  0.04599600  1
  C  C15  1  0.50581900  0.62626300  0.90852600  1
  C  C16  1  0.49404600  0.37376100  0.09141500  1
  C  C17  1  0.49213500  0.25070200  0.95269700  1
  C  C18  1  0.50777000  0.74932400  0.04723400  1
  C  C19  1  0.49056700  0.24938200  0.04457800  1
  C  C20  1  0.50933400  0.75063900  0.95535200  1
  C  C21  1  0.10503300  0.76245300  0.47787900  1
  C  C22  1  0.89488000  0.23756600  0.52193300  1
  C  C23  1  0.87908300  0.71029500  0.40833400  1
  C  C24  1  0.12079300  0.28973700  0.59155100  1
  C  C25  1  0.04217300  0.86709400  0.43472300  1
  C  C26  1  0.95772300  0.13292700  0.56510400  1
  C  C27  1  0.93245800  0.83856900  0.39515700  1
  C  C28  1  0.06740100  0.16146800  0.60472000  1
  C  C29  1  0.93604300  0.60827300  0.46000700  1
  C  C30  1  0.06386200  0.39175000  0.53985000  1
  C  C31  1  0.05786800  0.62710200  0.48365900  1
  C  C32  1  0.94204200  0.37291900  0.51618300  1
  C  C33  1  0.87343200  0.48685800  0.48411400  1
  C  C34  1  0.12648100  0.51316100  0.51573900  1
  C  C35  1  0.64694100  0.14463400  0.61852900  1
  C  C36  1  0.35344700  0.85547000  0.38185100  1
  C  C37  1  0.34235300  0.13728700  0.38553500  1
  C  C38  1  0.65800800  0.86265500  0.61482800  1
  C  C39  1  0.71841600  0.07580200  0.67898500  1
  C  C40  1  0.28210400  0.92424600  0.32131100  1
  C  C41  1  0.27645200  0.06561000  0.32319400  1
  C  C42  1  0.72407100  0.93438000  0.67708600  1
  C  C43  1  0.57659600  0.92807200  0.55604700  1
  C  C44  1  0.42373500  0.07193100  0.44440500  1
  C  C45  1  0.43001800  0.92461500  0.44252000  1
  C  C46  1  0.57033900  0.07542800  0.55793400  1
  C  C47  1  0.19645400  0.13919800  0.26356100  1
  C  C48  1  0.80417500  0.86079600  0.73665700  1
  C  C49  1  0.79279500  0.15335200  0.74045000  1
  C  C50  1  0.20781300  0.84670000  0.25980000  1
  N  N1  1  0.50739000  0.85134100  0.49774600  1
  N  N2  1  0.49292000  0.14866800  0.50274200  1
  N  N3  1  0.13192600  0.19853000  0.21549700  1
  N  N4  1  0.86877100  0.80147000  0.78467900  1
  N  N5  1  0.85276900  0.21587900  0.78999500  1
  N  N6  1  0.14788400  0.78421000  0.21020800  1
  O  O1  1  0.32575200  0.62443500  0.50555000  1
  O  O2  1  0.67416100  0.37565700  0.49443800  1
  O  O3  1  0.68078200  0.61417000  0.49846300  1
  O  O4  1  0.31912500  0.38576400  0.50145200  1
  O  O5  1  0.50495100  0.61702000  0.36956800  1
  O  O6  1  0.49493200  0.38318700  0.63034600  1
  O  O7  1  0.50973500  0.62221000  0.62866000  1
  O  O8  1  0.49024900  0.37760300  0.37125600  1
