# generated using pymatgen
data_Fe2H22C45(NO4)4
_symmetry_space_group_name_H-M   'P 1'
_cell_length_a   13.91044300
_cell_length_b   14.04353300
_cell_length_c   14.95010900
_cell_angle_alpha   86.08021900
_cell_angle_beta   91.54996900
_cell_angle_gamma   116.86196900
_symmetry_Int_Tables_number   1
_chemical_formula_structural   Fe2H22C45(NO4)4
_chemical_formula_sum   'Fe2 H22 C45 N4 O16'
_cell_volume   2599.27920503
_cell_formula_units_Z   1
loop_
 _symmetry_equiv_pos_site_id
 _symmetry_equiv_pos_as_xyz
  1  'x, y, z'
loop_
 _atom_site_type_symbol
 _atom_site_label
 _atom_site_symmetry_multiplicity
 _atom_site_fract_x
 _atom_site_fract_y
 _atom_site_fract_z
 _atom_site_occupancy
  Fe  Fe1  1  0.52047800  0.00589900  0.25026900  1
  Fe  Fe2  1  0.46681100  0.95599600  0.77818700  1
  H  H1  1  0.95690700  0.16096900  0.27002400  1
  H  H2  1  0.65437400  0.73517000  0.83358900  1
  H  H3  1  0.82752600  0.71790800  0.82914500  1
  H  H4  1  0.02886700  0.79351200  0.76201800  1
  H  H5  1  0.29847000  0.94629200  0.00927800  1
  H  H6  1  0.34118200  0.22971000  0.19243700  1
  H  H7  1  0.68927600  0.01780600  0.01978000  1
  H  H8  1  0.00113500  0.87586800  0.02499100  1
  H  H9  1  0.98684200  0.09218400  0.00247000  1
  H  H10  1  0.50578100  0.33186500  0.35955200  1
  H  H11  1  0.48112700  0.33163200  0.64416900  1
  H  H12  1  0.48035900  0.63013700  0.66852800  1
  H  H13  1  0.50342500  0.62901100  0.38384400  1
  H  H14  1  0.53530600  0.09219300  0.52740300  1
  H  H15  1  0.45179200  0.87006900  0.50032000  1
  H  H16  1  0.45863200  0.45838500  0.41659700  1
  H  H17  1  0.52637000  0.50270500  0.61160800  1
  H  H18  1  0.26296200  0.33096700  0.19874400  1
  H  H19  1  0.14944500  0.26454200  0.27321000  1
  H  H20  1  0.08739400  0.35526100  0.10771600  1
  H  H21  1  0.21296400  0.47158100  0.26987400  1
  H  H22  1  0.13674200  0.51527700  0.18494600  1
  C  C1  1  0.67254600  0.86529100  0.91679900  1
  C  C2  1  0.70017900  0.79336100  0.88139500  1
  C  C3  1  0.80362000  0.81984200  0.90954900  1
  C  C4  1  0.75882500  0.93021300  0.96744000  1
  C  C5  1  0.86324100  0.77740900  0.87834200  1
  C  C6  1  0.97986100  0.82252400  0.89191500  1
  C  C7  1  0.04994200  0.82411100  0.82789000  1
  C  C8  1  0.15174300  0.87532200  0.86320700  1
  C  C9  1  0.13957700  0.90242400  0.94834100  1
  C  C10  1  0.22709800  0.95821800  0.01136400  1
  C  C11  1  0.22886000  0.03352300  0.06207000  1
  C  C12  1  0.31655800  0.09892200  0.11083400  1
  C  C13  1  0.29124100  0.17278000  0.14539200  1
  C  C14  1  0.18662000  0.14717100  0.11896900  1
  C  C15  1  0.12639000  0.19195000  0.14731500  1
  C  C16  1  0.00813100  0.13849300  0.13772600  1
  C  C17  1  0.93716300  0.13219100  0.20349800  1
  C  C18  1  0.83540700  0.08203500  0.16787300  1
  C  C19  1  0.84792900  0.05916200  0.08143300  1
  C  C20  1  0.76029700  0.00522900  0.01802600  1
  C  C21  1  0.73604100  0.05775000  0.21695800  1
  C  C22  1  0.48948600  0.81336400  0.34590300  1
  C  C23  1  0.41137900  0.08521900  0.13798200  1
  C  C24  1  0.50939200  0.14364400  0.36186500  1
  C  C25  1  0.52808800  0.21074800  0.43684200  1
  C  C26  1  0.51288900  0.30111200  0.42636800  1
  C  C27  1  0.50211500  0.34966300  0.50022100  1
  C  C28  1  0.49900100  0.30161600  0.58556100  1
  C  C29  1  0.51376800  0.21027500  0.59581900  1
  C  C30  1  0.53165500  0.16760900  0.52128800  1
  C  C31  1  0.48435400  0.44538400  0.48323500  1
  C  C32  1  0.50063200  0.51573300  0.54497800  1
  C  C33  1  0.47314000  0.66073300  0.60167700  1
  C  C34  1  0.45868600  0.75151900  0.59103300  1
  C  C35  1  0.45495700  0.79442100  0.50654800  1
  C  C36  1  0.47186000  0.75106100  0.43206000  1
  C  C37  1  0.48612200  0.65944700  0.44245700  1
  C  C38  1  0.48323400  0.61167000  0.52788800  1
  C  C39  1  0.57751700  0.87808600  0.88940900  1
  C  C40  1  0.47797800  0.81906700  0.66576400  1
  C  C41  1  0.25062000  0.89967000  0.81356200  1
  C  C42  1  0.49589300  0.14761800  0.68183000  1
  C  C43  1  0.17413800  0.28887900  0.20209900  1
  C  C44  1  0.13600500  0.36828000  0.16778300  1
  C  C45  1  0.16360800  0.45711600  0.21015900  1
  N  N1  1  0.83941500  0.90239700  0.96314100  1
  N  N2  1  0.03427600  0.86981500  0.96522700  1
  N  N3  1  0.14890100  0.06235900  0.06734900  1
  N  N4  1  0.95350700  0.09387000  0.06361100  1
  O  O1  1  0.64343000  0.02494600  0.17484100  1
  O  O2  1  0.56406000  0.82001700  0.29045300  1
  O  O3  1  0.74089200  0.07040000  0.30333300  1
  O  O4  1  0.44701800  0.88011300  0.33552300  1
  O  O5  1  0.39923900  0.98987900  0.16700400  1
  O  O6  1  0.49947900  0.16997400  0.15806500  1
  O  O7  1  0.58858100  0.13409300  0.32400900  1
  O  O8  1  0.40963000  0.07561000  0.34476800  1
  O  O9  1  0.58896500  0.97327900  0.86087200  1
  O  O10  1  0.49006800  0.79299800  0.86879300  1
  O  O11  1  0.39879200  0.82715600  0.70506500  1
  O  O12  1  0.57763400  0.88872200  0.68122700  1
  O  O13  1  0.42088800  0.14034300  0.73709600  1
  O  O14  1  0.34418000  0.93643400  0.85438100  1
  O  O15  1  0.53899700  0.08142400  0.69233700  1
  O  O16  1  0.24454400  0.88482100  0.72755200  1
