# generated using pymatgen
data_ZnH2C10N(O2F)2
_symmetry_space_group_name_H-M   'P 1'
_cell_length_a   14.32797100
_cell_length_b   8.57811100
_cell_length_c   6.60382100
_cell_angle_alpha   90.00000000
_cell_angle_beta   89.93250300
_cell_angle_gamma   90.00000000
_symmetry_Int_Tables_number   1
_chemical_formula_structural   ZnH2C10N(O2F)2
_chemical_formula_sum   'Zn2 H4 C20 N2 O8 F4'
_cell_volume   811.65477340
_cell_formula_units_Z   2
loop_
 _symmetry_equiv_pos_site_id
 _symmetry_equiv_pos_as_xyz
  1  'x, y, z'
loop_
 _atom_site_type_symbol
 _atom_site_label
 _atom_site_symmetry_multiplicity
 _atom_site_fract_x
 _atom_site_fract_y
 _atom_site_fract_z
 _atom_site_occupancy
  Zn  Zn1  1  0.89593900  0.50000000  0.49012200  1
  Zn  Zn2  1  0.10406100  0.50000000  0.50987700  1
  H  H1  1  0.97283100  0.00000000  0.63512300  1
  H  H2  1  0.02716900  0.00000000  0.36487600  1
  H  H3  1  0.43784800  0.50000000  0.15463600  1
  H  H4  1  0.56215100  0.50000000  0.84536300  1
  C  C1  1  0.99194800  0.14005500  0.89709400  1
  C  C2  1  0.00805100  0.85994500  0.10290500  1
  C  C3  1  0.00805100  0.14005500  0.10290500  1
  C  C4  1  0.99194800  0.85994500  0.89709400  1
  C  C5  1  0.98362300  0.00000000  0.79646700  1
  C  C6  1  0.01637600  0.00000000  0.20353200  1
  C  C7  1  0.99416300  0.71751400  0.77638400  1
  C  C8  1  0.00583600  0.28248600  0.22361500  1
  C  C9  1  0.00583600  0.71751400  0.22361500  1
  C  C10  1  0.99416300  0.28248600  0.77638400  1
  C  C11  1  0.69270000  0.50000000  0.48418100  1
  C  C12  1  0.30729900  0.50000000  0.51581800  1
  C  C13  1  0.47128300  0.37624300  0.59568000  1
  C  C14  1  0.52871700  0.62375700  0.40431900  1
  C  C15  1  0.52871700  0.37624300  0.40431900  1
  C  C16  1  0.47128300  0.62375700  0.59568000  1
  C  C17  1  0.53393000  0.50000000  0.68906300  1
  C  C18  1  0.46606900  0.50000000  0.31093700  1
  C  C19  1  0.59068700  0.50000000  0.49421600  1
  C  C20  1  0.40931200  0.50000000  0.50578300  1
  N  N1  1  0.77342300  0.50000000  0.47919400  1
  N  N2  1  0.22657700  0.50000000  0.52080500  1
  O  O1  1  0.07601700  0.66807000  0.71423300  1
  O  O2  1  0.92398300  0.33193000  0.28576600  1
  O  O3  1  0.92398300  0.66807000  0.28576600  1
  O  O4  1  0.07601700  0.33193000  0.71423300  1
  O  O5  1  0.91500800  0.66305200  0.70608900  1
  O  O6  1  0.08499100  0.33694800  0.29391000  1
  O  O7  1  0.08499100  0.66305200  0.29391000  1
  O  O8  1  0.91500800  0.33694800  0.70608900  1
  F  F1  1  0.56056700  0.24378700  0.30719900  1
  F  F2  1  0.43943200  0.75621300  0.69280100  1
  F  F3  1  0.43943200  0.24378700  0.69280100  1
  F  F4  1  0.56056700  0.75621300  0.30719900  1
