# generated using pymatgen
data_ZnH10C18N3O4
_symmetry_space_group_name_H-M   'P 1'
_cell_length_a   17.77449700
_cell_length_b   16.61279100
_cell_length_c   14.53450300
_cell_angle_alpha   90.00000000
_cell_angle_beta   90.00171700
_cell_angle_gamma   90.00000000
_symmetry_Int_Tables_number   1
_chemical_formula_structural   ZnH10C18N3O4
_chemical_formula_sum   'Zn2 H20 C36 N6 O8'
_cell_volume   4291.80623703
_cell_formula_units_Z   2
loop_
 _symmetry_equiv_pos_site_id
 _symmetry_equiv_pos_as_xyz
  1  'x, y, z'
loop_
 _atom_site_type_symbol
 _atom_site_label
 _atom_site_symmetry_multiplicity
 _atom_site_fract_x
 _atom_site_fract_y
 _atom_site_fract_z
 _atom_site_occupancy
  Zn  Zn1  1  0.50000000  0.59164500  0.50000000  1
  Zn  Zn2  1  0.50000000  0.40835500  0.50000000  1
  H  H1  1  0.87708700  0.62808800  0.49998400  1
  H  H2  1  0.12291300  0.37191300  0.50001500  1
  H  H3  1  0.12291300  0.62808800  0.50001500  1
  H  H4  1  0.87708700  0.37191300  0.49998400  1
  H  H5  1  0.73988700  0.62898300  0.49986800  1
  H  H6  1  0.26011300  0.37101700  0.50013100  1
  H  H7  1  0.26011300  0.62898300  0.50013100  1
  H  H8  1  0.73988700  0.37101700  0.49986800  1
  H  H9  1  0.41522600  0.86782400  0.39696200  1
  H  H10  1  0.58477400  0.13217600  0.60303800  1
  H  H11  1  0.58477400  0.86782400  0.60303800  1
  H  H12  1  0.41522600  0.13217600  0.39696200  1
  H  H13  1  0.34916800  0.72783500  0.39855400  1
  H  H14  1  0.41632600  0.72758200  0.31615600  1
  H  H15  1  0.65083200  0.27216500  0.60144600  1
  H  H16  1  0.58367400  0.27241800  0.68384400  1
  H  H17  1  0.65083200  0.72783500  0.60144600  1
  H  H18  1  0.58367400  0.72758200  0.68384400  1
  H  H19  1  0.34916800  0.27216500  0.39855400  1
  H  H20  1  0.41632600  0.27241800  0.31615600  1
  C  C1  1  0.35269900  0.50000000  0.50013300  1
  C  C2  1  0.64730100  0.50000000  0.49986600  1
  C  C3  1  0.49997200  0.50000000  0.32020000  1
  C  C4  1  0.50002800  0.50000000  0.67980000  1
  C  C5  1  0.49994800  0.50000000  0.22149400  1
  C  C6  1  0.50005200  0.50000000  0.77850500  1
  C  C7  1  0.49995400  0.50000000  0.13859300  1
  C  C8  1  0.50004600  0.50000000  0.86140700  1
  C  C9  1  0.49998400  0.50000000  0.04145200  1
  C  C10  1  0.50001600  0.50000000  0.95854800  1
  C  C11  1  0.84663100  0.57177100  0.49998400  1
  C  C12  1  0.15336800  0.42822900  0.50001500  1
  C  C13  1  0.15336900  0.57177100  0.50001500  1
  C  C14  1  0.84663100  0.42822900  0.49998400  1
  C  C15  1  0.76906500  0.57193500  0.49993600  1
  C  C16  1  0.23093500  0.42806500  0.50006300  1
  C  C17  1  0.23093500  0.57193500  0.50006300  1
  C  C18  1  0.76906500  0.42806500  0.49993600  1
  C  C19  1  0.72980500  0.50000000  0.49991300  1
  C  C20  1  0.27019500  0.50000000  0.50008700  1
  C  C21  1  0.88540600  0.50000000  0.50000300  1
  C  C22  1  0.11459400  0.50000000  0.49999600  1
  C  C23  1  0.96611200  0.50000000  0.50000300  1
  C  C24  1  0.03388800  0.50000000  0.49999700  1
  C  C25  1  0.45269700  0.83558200  0.44250800  1
  C  C26  1  0.54730300  0.16441800  0.55749200  1
  C  C27  1  0.54730300  0.83558200  0.55749200  1
  C  C28  1  0.45269700  0.16441800  0.44250800  1
  C  C29  1  0.45325500  0.75255700  0.44320500  1
  C  C30  1  0.54674500  0.24744300  0.55679500  1
  C  C31  1  0.54674500  0.75255700  0.55679500  1
  C  C32  1  0.45325500  0.24744300  0.44320500  1
  C  C33  1  0.50000000  0.87739300  0.50000000  1
  C  C34  1  0.50000000  0.12260700  0.50000000  1
  C  C35  1  0.50000000  0.96374200  0.50000000  1
  C  C36  1  0.50000000  0.03625800  0.50000000  1
  N  N1  1  0.50000000  0.71209200  0.50000000  1
  N  N2  1  0.50000000  0.28790800  0.50000000  1
  N  N3  1  0.40405600  0.70982200  0.38340100  1
  N  N4  1  0.59594400  0.29017900  0.61659800  1
  N  N5  1  0.59594400  0.70982200  0.61659800  1
  N  N6  1  0.40405600  0.29017900  0.38340100  1
  O  O1  1  0.38791600  0.56944100  0.50012200  1
  O  O2  1  0.61208400  0.43056000  0.49987700  1
  O  O3  1  0.61208400  0.56944100  0.49987700  1
  O  O4  1  0.38791600  0.43056000  0.50012200  1
  O  O5  1  0.49999100  0.56951100  0.36291900  1
  O  O6  1  0.50000900  0.43048900  0.63708100  1
  O  O7  1  0.50000900  0.56951100  0.63708100  1
  O  O8  1  0.49999100  0.43048900  0.36291900  1
