# generated using pymatgen
data_CuH10C22BrNO4
_symmetry_space_group_name_H-M   'P 1'
_cell_length_a   14.01209400
_cell_length_b   14.52959900
_cell_length_c   15.02737600
_cell_angle_alpha   115.13041900
_cell_angle_beta   105.80929000
_cell_angle_gamma   72.00613100
_symmetry_Int_Tables_number   1
_chemical_formula_structural   CuH10C22BrNO4
_chemical_formula_sum   'Cu2 H20 C44 Br2 N2 O8'
_cell_volume   2598.67242967
_cell_formula_units_Z   2
loop_
 _symmetry_equiv_pos_site_id
 _symmetry_equiv_pos_as_xyz
  1  'x, y, z'
loop_
 _atom_site_type_symbol
 _atom_site_label
 _atom_site_symmetry_multiplicity
 _atom_site_fract_x
 _atom_site_fract_y
 _atom_site_fract_z
 _atom_site_occupancy
  Cu  Cu1  1  0.52815200  0.91457600  0.52193900  1
  Cu  Cu2  1  0.47156200  0.08602100  0.47840100  1
  H  H1  1  0.04530700  0.93408200  0.56515100  1
  H  H2  1  0.95557600  0.06572300  0.43588600  1
  H  H3  1  0.54638400  0.34829600  0.14679400  1
  H  H4  1  0.44975100  0.65173300  0.85289700  1
  H  H5  1  0.50732600  0.68449400  0.23887100  1
  H  H6  1  0.49593400  0.31500400  0.76148400  1
  H  H7  1  0.55391100  0.18182300  0.02460800  1
  H  H8  1  0.44358900  0.81805000  0.97502600  1
  H  H9  1  0.52531800  0.52858500  0.19897700  1
  H  H10  1  0.47027300  0.47163700  0.80079800  1
  H  H11  1  0.27958000  0.47893900  0.31490300  1
  H  H12  1  0.72135300  0.52232100  0.68599200  1
  H  H13  1  0.45026800  0.72640600  0.45343300  1
  H  H14  1  0.55134800  0.27331700  0.54584400  1
  H  H15  1  0.69397000  0.83692000  0.66115000  1
  H  H16  1  0.30583600  0.16457400  0.33963300  1
  H  H17  1  0.25329400  0.31909700  0.29696500  1
  H  H18  1  0.74649700  0.68291700  0.70482000  1
  H  H19  1  0.36997500  0.61177400  0.38696100  1
  H  H20  1  0.63188700  0.38814100  0.61254800  1
  C  C1  1  0.51303000  0.11529700  0.68717100  1
  C  C2  1  0.48778200  0.88478500  0.31264900  1
  C  C3  1  0.68816900  0.99138900  0.50792200  1
  C  C4  1  0.31258000  0.00858400  0.49167700  1
  C  C5  1  0.20766300  0.01321100  0.48696000  1
  C  C6  1  0.79324300  0.98667200  0.51293300  1
  C  C7  1  0.01373600  0.02324900  0.47748200  1
  C  C8  1  0.98735500  0.97650500  0.52339300  1
  C  C9  1  0.88172200  0.98212600  0.51758000  1
  C  C10  1  0.11936100  0.01757100  0.48277200  1
  C  C11  1  0.51941200  0.18246800  0.79450800  1
  C  C12  1  0.48095400  0.81734700  0.20530600  1
  C  C13  1  0.54069100  0.21231000  0.96695600  1
  C  C14  1  0.45774100  0.78750100  0.03276100  1
  C  C15  1  0.53630700  0.14412300  0.86953600  1
  C  C16  1  0.46281100  0.85567700  0.13010400  1
  C  C17  1  0.50730100  0.28896400  0.82103400  1
  C  C18  1  0.49378200  0.71072200  0.17903500  1
  C  C19  1  0.51047100  0.35870900  0.92015600  1
  C  C20  1  0.48911700  0.64106100  0.07987400  1
  C  C21  1  0.52793100  0.31763500  0.99216900  1
  C  C22  1  0.47068700  0.68219000  0.00772400  1
  C  C23  1  0.49685600  0.46756400  0.94941200  1
  C  C24  1  0.50221100  0.53227700  0.05064000  1
  C  C25  1  0.52033500  0.48637200  0.12007900  1
  C  C26  1  0.47728800  0.51356500  0.87981400  1
  C  C27  1  0.53271600  0.38106600  0.09075800  1
  C  C28  1  0.46470100  0.61887000  0.90906600  1
  C  C29  1  0.31997800  0.31121200  0.35230800  1
  C  C30  1  0.68006100  0.69036800  0.64915900  1
  C  C31  1  0.34933200  0.22442000  0.37647900  1
  C  C32  1  0.65104500  0.77669700  0.62421100  1
  C  C33  1  0.48711400  0.28761000  0.49148800  1
  C  C34  1  0.51426100  0.71235700  0.50814700  1
  C  C35  1  0.46086300  0.37725100  0.46868100  1
  C  C36  1  0.54031200  0.62316800  0.53155100  1
  C  C37  1  0.37596000  0.38693100  0.39752400  1
  C  C38  1  0.62460700  0.61413700  0.60341100  1
  C  C39  1  0.51624800  0.45662000  0.51393600  1
  C  C40  1  0.48520100  0.54358200  0.48612900  1
  C  C41  1  0.39947900  0.54892900  0.41354800  1
  C  C42  1  0.60217700  0.45121800  0.58633900  1
  C  C43  1  0.34600600  0.47193300  0.37069500  1
  C  C44  1  0.65508600  0.52893500  0.62995300  1
  Br  Br1  1  0.44497200  0.99881800  0.14992100  1
  Br  Br2  1  0.55333000  0.00107800  0.84951500  1
  N  N1  1  0.43430500  0.21224300  0.44295600  1
  N  N2  1  0.56771100  0.78758000  0.55636000  1
  O  O1  1  0.52965100  0.01411600  0.65989600  1
  O  O2  1  0.47098900  0.98604000  0.33972800  1
  O  O3  1  0.49035200  0.15966000  0.62164900  1
  O  O4  1  0.51054000  0.84032200  0.37803800  1
  O  O5  1  0.66595200  0.92250000  0.52876600  1
  O  O6  1  0.33485600  0.07768800  0.47103600  1
  O  O7  1  0.61916800  0.06461100  0.48311500  1
  O  O8  1  0.38163200  0.93543000  0.51652400  1
