# generated using pymatgen
data_CuH6C10(NO3)2
_symmetry_space_group_name_H-M   'P 1'
_cell_length_a   9.71752600
_cell_length_b   11.17502800
_cell_length_c   12.98449100
_cell_angle_alpha   90.89376600
_cell_angle_beta   75.36355400
_cell_angle_gamma   110.98909000
_symmetry_Int_Tables_number   1
_chemical_formula_structural   CuH6C10(NO3)2
_chemical_formula_sum   'Cu2 H12 C20 N4 O12'
_cell_volume   1269.36681237
_cell_formula_units_Z   2
loop_
 _symmetry_equiv_pos_site_id
 _symmetry_equiv_pos_as_xyz
  1  'x, y, z'
loop_
 _atom_site_type_symbol
 _atom_site_label
 _atom_site_symmetry_multiplicity
 _atom_site_fract_x
 _atom_site_fract_y
 _atom_site_fract_z
 _atom_site_occupancy
  Cu  Cu1  1  0.64912800  0.52221100  0.48264800  1
  Cu  Cu2  1  0.35032300  0.47595100  0.51875100  1
  H  H1  1  0.30466900  0.46857900  0.19931200  1
  H  H2  1  0.69478400  0.53163100  0.80226800  1
  H  H3  1  0.78366000  0.54592600  0.13878000  1
  H  H4  1  0.21579500  0.45407400  0.86245700  1
  H  H5  1  0.19237300  0.45076900  0.05340100  1
  H  H6  1  0.80686100  0.54969600  0.94783300  1
  H  H7  1  0.36179200  0.86604400  0.51595900  1
  H  H8  1  0.63794600  0.13216300  0.48371000  1
  H  H9  1  0.70820400  0.94583600  0.47639900  1
  H  H10  1  0.29135000  0.05210200  0.52464200  1
  H  H11  1  0.83255100  0.42038100  0.57245700  1
  H  H12  1  0.16668900  0.57607700  0.42744100  1
  C  C1  1  0.44317800  0.25597000  0.50700200  1
  C  C2  1  0.55619800  0.74210200  0.49359500  1
  C  C3  1  0.47213900  0.49494900  0.70303200  1
  C  C4  1  0.52754700  0.50462000  0.29832900  1
  C  C5  1  0.54248200  0.50751400  0.18289300  1
  C  C6  1  0.45716600  0.49321700  0.81847400  1
  C  C7  1  0.30300300  0.46865800  0.99840700  1
  C  C8  1  0.69641200  0.53215900  0.00296800  1
  C  C9  1  0.31657100  0.47061800  0.89005600  1
  C  C10  1  0.68296000  0.53001300  0.11127300  1
  C  C11  1  0.58383300  0.51385500  0.85671400  1
  C  C12  1  0.41568300  0.48693500  0.14475400  1
  C  C13  1  0.56987700  0.51181900  0.96526500  1
  C  C14  1  0.42956000  0.48920400  0.03618900  1
  C  C15  1  0.40923500  0.11694900  0.51063900  1
  C  C16  1  0.59033400  0.88114400  0.48961100  1
  C  C17  1  0.51937900  0.06900400  0.49767000  1
  C  C18  1  0.48031800  0.92918400  0.50226800  1
  C  C19  1  0.08161700  0.50862300  0.49157700  1
  C  C20  1  0.91775700  0.48863100  0.50883700  1
  N  N1  1  0.12702000  0.44155900  0.54562400  1
  N  N2  1  0.87246000  0.55670900  0.45570800  1
  N  N3  1  0.96811700  0.61307900  0.35635800  1
  N  N4  1  0.03224100  0.38794900  0.64587400  1
  O  O1  1  0.58551000  0.33514400  0.48740100  1
  O  O2  1  0.41441000  0.66314400  0.50760300  1
  O  O3  1  0.32921400  0.29548300  0.51778500  1
  O  O4  1  0.67124700  0.70288500  0.47698700  1
  O  O5  1  0.60773100  0.51918800  0.63796100  1
  O  O6  1  0.39336800  0.48713900  0.36320300  1
  O  O7  1  0.35142400  0.47953300  0.66899100  1
  O  O8  1  0.65005200  0.52652200  0.33210200  1
  O  O9  1  0.96456000  0.71917900  0.31958300  1
  O  O10  1  0.02382000  0.54366900  0.28935900  1
  O  O11  1  0.03663700  0.28341900  0.68502800  1
  O  O12  1  0.97624000  0.45884200  0.71093600  1
