# generated using pymatgen
data_Fe2H17C42N4ClO16
_symmetry_space_group_name_H-M   'P 1'
_cell_length_a   9.38821200
_cell_length_b   17.30338700
_cell_length_c   17.24789200
_cell_angle_alpha   106.23129100
_cell_angle_beta   89.04778800
_cell_angle_gamma   76.36617600
_symmetry_Int_Tables_number   1
_chemical_formula_structural   Fe2H17C42N4ClO16
_chemical_formula_sum   'Fe2 H17 C42 N4 Cl1 O16'
_cell_volume   2604.15879702
_cell_formula_units_Z   1
loop_
 _symmetry_equiv_pos_site_id
 _symmetry_equiv_pos_as_xyz
  1  'x, y, z'
loop_
 _atom_site_type_symbol
 _atom_site_label
 _atom_site_symmetry_multiplicity
 _atom_site_fract_x
 _atom_site_fract_y
 _atom_site_fract_z
 _atom_site_occupancy
  Fe  Fe1  1  0.46596100  0.98804300  0.35926800  1
  Fe  Fe2  1  0.45936300  0.00976600  0.64686900  1
  H  H1  1  0.20179300  0.00527800  0.86594900  1
  H  H2  1  0.75856900  0.98994300  0.89725500  1
  H  H3  1  0.72328400  0.99237300  0.14003400  1
  H  H4  1  0.16596700  0.00876200  0.10924100  1
  H  H5  1  0.91105600  0.02908500  0.68189000  1
  H  H6  1  0.01329000  0.96959300  0.32459200  1
  H  H7  1  0.12893900  0.96696300  0.98114300  1
  H  H8  1  0.79594700  0.03126000  0.02518200  1
  H  H9  1  0.16321400  0.28349800  0.43569600  1
  H  H10  1  0.33738900  0.32716200  0.70722200  1
  H  H11  1  0.78581200  0.55695900  0.33439100  1
  H  H12  1  0.64311500  0.67090600  0.29228000  1
  H  H13  1  0.76499300  0.71836900  0.57455100  1
  H  H14  1  0.11546300  0.44086700  0.78101400  1
  H  H15  1  0.18882900  0.68286700  0.83068400  1
  H  H16  1  0.29352000  0.64946400  0.69012200  1
  H  H17  1  0.31013600  0.51190700  0.59487400  1
  C  C1  1  0.06940200  0.01804800  0.76830300  1
  C  C2  1  0.09414300  0.00783300  0.84400900  1
  C  C3  1  0.98186500  0.00096600  0.89254600  1
  C  C4  1  0.84548400  0.00055300  0.86305700  1
  C  C5  1  0.81977200  0.01198300  0.78795500  1
  C  C6  1  0.93085100  0.02229700  0.74142500  1
  C  C7  1  0.01459400  0.99000500  0.97268400  1
  C  C8  1  0.91029900  0.00821700  0.03361500  1
  C  C9  1  0.83077700  0.99010500  0.16212500  1
  C  C10  1  0.85535500  0.98004500  0.23789200  1
  C  C11  1  0.99364400  0.97629300  0.26501600  1
  C  C12  1  0.10467800  0.98681100  0.21861700  1
  C  C13  1  0.07915100  0.99803100  0.14341000  1
  C  C14  1  0.94298000  0.99726600  0.11375100  1
  C  C15  1  0.73452500  0.97704400  0.29107400  1
  C  C16  1  0.55420100  0.83084300  0.37637900  1
  C  C17  1  0.24594300  0.99148200  0.25178400  1
  C  C18  1  0.31623000  0.14561800  0.45512400  1
  C  C19  1  0.61383300  0.85417300  0.55096900  1
  C  C20  1  0.67841300  0.00737200  0.75490900  1
  C  C21  1  0.38771200  0.16692800  0.62761700  1
  C  C22  1  0.19027600  0.02083800  0.71500500  1
  C  C23  1  0.28336900  0.22671700  0.51660600  1
  C  C24  1  0.20195500  0.29414800  0.49546300  1
  C  C25  1  0.16860400  0.37335300  0.54924600  1
  C  C26  1  0.22396500  0.38501300  0.62485000  1
  C  C27  1  0.29867300  0.31694500  0.64747200  1
  C  C28  1  0.32614500  0.23721600  0.59511100  1
  C  C29  1  0.88355300  0.56186900  0.48164200  1
  C  C30  1  0.06977300  0.44140300  0.52561800  1
  C  C31  1  0.74905100  0.61720000  0.37879600  1
  C  C32  1  0.66647900  0.68240600  0.35502300  1
  C  C33  1  0.62041000  0.76139200  0.40907400  1
  C  C34  1  0.65274000  0.77290000  0.48969100  1
  C  C35  1  0.73639700  0.70720800  0.51267200  1
  C  C36  1  0.78662000  0.62952100  0.45748400  1
  C  C37  1  0.21144300  0.46781800  0.68126300  1
  C  C38  1  0.15493400  0.48637800  0.76065100  1
  C  C39  1  0.14626000  0.56365500  0.81410600  1
  C  C40  1  0.19546100  0.62234700  0.78871000  1
  C  C41  1  0.25386600  0.60366700  0.70988200  1
  C  C42  1  0.26236700  0.52648000  0.65629800  1
  N  N1  1  0.99134400  0.50974200  0.58214000  1
  N  N2  1  0.90052400  0.56950300  0.56047000  1
  N  N3  1  0.95908200  0.49275200  0.42506900  1
  N  N4  1  0.05066000  0.43324600  0.44680600  1
  Cl  Cl1  1  0.07270800  0.58721900  0.91435100  1
  O  O1  1  0.59986800  0.98699300  0.26898400  1
  O  O2  1  0.54576600  0.81650900  0.29796700  1
  O  O3  1  0.75891100  0.96907100  0.36347700  1
  O  O4  1  0.51793100  0.90794200  0.42297200  1
  O  O5  1  0.28461700  0.95982800  0.31155400  1
  O  O6  1  0.32711900  0.03332500  0.22657400  1
  O  O7  1  0.45307900  0.10126000  0.43559400  1
  O  O8  1  0.20902600  0.11870300  0.41784600  1
  O  O9  1  0.47554700  0.89610800  0.57044400  1
  O  O10  1  0.71858200  0.88409300  0.58789800  1
  O  O11  1  0.63913100  0.03951100  0.69551800  1
  O  O12  1  0.59828900  0.96458600  0.77940200  1
  O  O13  1  0.16544300  0.02997600  0.64304400  1
  O  O14  1  0.40636600  0.08963600  0.58297100  1
  O  O15  1  0.32525600  0.00976600  0.73664600  1
  O  O16  1  0.40795800  0.18177400  0.70496600  1
