# generated using pymatgen
data_Zn2H14C30N2O9
_symmetry_space_group_name_H-M   'P 1'
_cell_length_a   13.02784200
_cell_length_b   9.25043800
_cell_length_c   8.54217000
_cell_angle_alpha   90.00000000
_cell_angle_beta   95.35084100
_cell_angle_gamma   90.00000000
_symmetry_Int_Tables_number   1
_chemical_formula_structural   Zn2H14C30N2O9
_chemical_formula_sum   'Zn2 H14 C30 N2 O9'
_cell_volume   1024.95865564
_cell_formula_units_Z   1
loop_
 _symmetry_equiv_pos_site_id
 _symmetry_equiv_pos_as_xyz
  1  'x, y, z'
loop_
 _atom_site_type_symbol
 _atom_site_label
 _atom_site_symmetry_multiplicity
 _atom_site_fract_x
 _atom_site_fract_y
 _atom_site_fract_z
 _atom_site_occupancy
  Zn  Zn1  1  0.49728500  0.84091800  0.50006400  1
  Zn  Zn2  1  0.50148300  0.16040700  0.50108200  1
  H  H1  1  0.42724700  0.04688600  0.99408800  1
  H  H2  1  0.15823900  0.97462200  0.69790100  1
  H  H3  1  0.00639300  0.03086900  0.68034300  1
  H  H4  1  0.57294100  0.95587600  0.00724600  1
  H  H5  1  0.84246400  0.02523300  0.30334000  1
  H  H6  1  0.99538400  0.97449100  0.32223100  1
  H  H7  1  0.17645300  0.98233800  0.34326900  1
  H  H8  1  0.65670600  0.63684700  0.52096400  1
  H  H9  1  0.66019700  0.37209500  0.52216400  1
  H  H10  1  0.29745400  0.75727700  0.47301700  1
  H  H11  1  0.30051400  0.23778700  0.47479500  1
  H  H12  1  0.14554000  0.62684300  0.45327900  1
  H  H13  1  0.14787900  0.36317100  0.45422900  1
  H  H14  1  0.81143700  0.92362000  0.58776400  1
  C  C1  1  0.29533600  0.00660800  0.11138500  1
  C  C2  1  0.34649400  0.02458500  0.98096100  1
  C  C3  1  0.29750800  0.00564400  0.83477600  1
  C  C4  1  0.19197500  0.99084500  0.81616400  1
  C  C5  1  0.13519200  0.99746400  0.94728700  1
  C  C6  1  0.18877000  0.99641000  0.09578100  1
  C  C7  1  0.02698600  0.00294500  0.93368900  1
  C  C8  1  0.97364800  0.99940100  0.06796800  1
  C  C9  1  0.03003800  0.98665100  0.21388000  1
  C  C10  1  0.13585600  0.98783900  0.22724300  1
  C  C11  1  0.97124000  0.01702400  0.78802500  1
  C  C12  1  0.86569900  0.01585500  0.77298700  1
  C  C13  1  0.81169700  0.00593300  0.90422500  1
  C  C14  1  0.86517100  0.00445700  0.05362700  1
  C  C15  1  0.70475700  0.99529300  0.88871200  1
  C  C16  1  0.65372400  0.97796000  0.02028200  1
  C  C17  1  0.70268200  0.99606100  0.16735000  1
  C  C18  1  0.80837100  0.01022000  0.18513300  1
  C  C19  1  0.64019100  0.99858800  0.73854500  1
  C  C20  1  0.36101100  0.00224500  0.70320400  1
  C  C21  1  0.35897300  0.00301300  0.26122600  1
  C  C22  1  0.63917400  0.99930800  0.30052700  1
  C  C23  1  0.30896700  0.64411200  0.47487700  1
  C  C24  1  0.31154300  0.35092900  0.47600700  1
  C  C25  1  0.21812000  0.56941100  0.46305500  1
  C  C26  1  0.21947100  0.42298500  0.46359100  1
  C  C27  1  0.40663900  0.42352300  0.48848400  1
  C  C28  1  0.40481800  0.57429900  0.48773500  1
  C  C29  1  0.58484300  0.57770500  0.51155500  1
  C  C30  1  0.58691700  0.42773800  0.51236700  1
  N  N1  1  0.49467800  0.65043600  0.49932900  1
  N  N2  1  0.49867500  0.35093700  0.50102900  1
  O  O1  1  0.60977800  0.12618600  0.68087400  1
  O  O2  1  0.60510800  0.87380300  0.68059400  1
  O  O3  1  0.39311700  0.87767500  0.65537500  1
  O  O4  1  0.39801000  0.12401600  0.65727800  1
  O  O5  1  0.39195700  0.87814500  0.31684200  1
  O  O6  1  0.39661900  0.12476000  0.31715800  1
  O  O7  1  0.60865300  0.12646900  0.35012600  1
  O  O8  1  0.60395900  0.87472800  0.34850800  1
  O  O9  1  0.81602400  0.02489000  0.62527600  1
