# generated using pymatgen
data_FeH10C25NO11
_symmetry_space_group_name_H-M   'P 1'
_cell_length_a   15.08728900
_cell_length_b   14.58671700
_cell_length_c   11.28411400
_cell_angle_alpha   86.93872100
_cell_angle_beta   101.49309900
_cell_angle_gamma   106.28140900
_symmetry_Int_Tables_number   1
_chemical_formula_structural   FeH10C25NO11
_chemical_formula_sum   'Fe2 H20 C50 N2 O22'
_cell_volume   2335.94395378
_cell_formula_units_Z   2
loop_
 _symmetry_equiv_pos_site_id
 _symmetry_equiv_pos_as_xyz
  1  'x, y, z'
loop_
 _atom_site_type_symbol
 _atom_site_label
 _atom_site_symmetry_multiplicity
 _atom_site_fract_x
 _atom_site_fract_y
 _atom_site_fract_z
 _atom_site_occupancy
  Fe  Fe1  1  0.49192100  0.97412900  0.73573100  1
  Fe  Fe2  1  0.50466400  0.98494500  0.27082400  1
  H  H1  1  0.95752000  0.02725000  0.25191700  1
  H  H2  1  0.84124200  0.98093500  0.87833500  1
  H  H3  1  0.04937500  0.95573500  0.74454100  1
  H  H4  1  0.20489900  0.95976500  0.71157000  1
  H  H5  1  0.15752400  0.99185300  0.12385600  1
  H  H6  1  0.38914000  0.65746900  0.74618000  1
  H  H7  1  0.58896400  0.74680500  0.25968400  1
  H  H8  1  0.36508000  0.33519300  0.83168100  1
  H  H9  1  0.40367300  0.21105800  0.74507300  1
  H  H10  1  0.64615000  0.45924900  0.18128800  1
  H  H11  1  0.61509100  0.30423800  0.26490200  1
  H  H12  1  0.80171300  0.07276400  0.52550700  1
  H  H13  1  0.91835200  0.05927800  0.58265800  1
  H  H14  1  0.81567000  0.96156800  0.59506700  1
  H  H15  1  0.68496600  0.64823200  0.94828500  1
  H  H16  1  0.80235400  0.71986600  0.01175500  1
  H  H17  1  0.70898000  0.77633900  0.95891700  1
  H  H18  1  0.28653500  0.47935800  0.04456700  1
  H  H19  1  0.16721000  0.47146900  0.96762900  1
  H  H20  1  0.24759400  0.58655300  0.01604000  1
  C  C1  1  0.80779100  0.00408700  0.20322300  1
  C  C2  1  0.89605900  0.01208100  0.18033600  1
  C  C3  1  0.90819500  0.99966000  0.06572900  1
  C  C4  1  0.83207300  0.98680400  0.96982000  1
  C  C5  1  0.74301200  0.98306300  0.98964800  1
  C  C6  1  0.73072400  0.98855800  0.10866400  1
  C  C7  1  0.10722500  0.96438400  0.82079300  1
  C  C8  1  0.19482400  0.96587200  0.80270300  1
  C  C9  1  0.27030300  0.97968400  0.89809400  1
  C  C10  1  0.25673700  0.98670100  0.01579300  1
  C  C11  1  0.16777300  0.98626500  0.03280600  1
  C  C12  1  0.09326700  0.97678900  0.93471800  1
  C  C13  1  0.46024100  0.12769400  0.59931400  1
  C  C14  1  0.36218500  0.98978800  0.86734400  1
  C  C15  1  0.66611100  0.97725300  0.88264600  1
  C  C16  1  0.49600800  0.80175700  0.65080800  1
  C  C17  1  0.50455900  0.15733500  0.35769100  1
  C  C18  1  0.33209300  0.98960600  0.12356200  1
  C  C19  1  0.63808000  0.97312900  0.14088600  1
  C  C20  1  0.53843200  0.83149300  0.40877400  1
  C  C21  1  0.52271600  0.73652200  0.46460700  1
  C  C22  1  0.49039600  0.72026900  0.57325600  1
  C  C23  1  0.46168300  0.62633300  0.61402600  1
  C  C24  1  0.41164800  0.60405100  0.70745000  1
  C  C25  1  0.38848600  0.51240400  0.75240400  1
  C  C26  1  0.57827900  0.67865900  0.30436300  1
  C  C27  1  0.54049100  0.66238300  0.40871600  1
  C  C28  1  0.52131900  0.57140900  0.45770500  1
  C  C29  1  0.60192900  0.60675100  0.25394400  1
  C  C30  1  0.58302100  0.51675700  0.30393400  1
  C  C31  1  0.47978900  0.55292700  0.55812100  1
  C  C32  1  0.45771200  0.46094800  0.60403200  1
  C  C33  1  0.41536600  0.44205300  0.70380200  1
  C  C34  1  0.39725500  0.35173100  0.75292600  1
  C  C35  1  0.54109100  0.49808500  0.40396500  1
  C  C36  1  0.51906200  0.40602800  0.44988800  1
  C  C37  1  0.47771000  0.38761100  0.55033300  1
  C  C38  1  0.45825900  0.29644900  0.59873500  1
  C  C39  1  0.41970300  0.27993700  0.70220600  1
  C  C40  1  0.60851400  0.44561300  0.25527600  1
  C  C41  1  0.58785100  0.35509600  0.30155000  1
  C  C42  1  0.53761900  0.33256400  0.39446200  1
  C  C43  1  0.50929200  0.23864600  0.43513500  1
  C  C44  1  0.47603200  0.22234500  0.54302900  1
  C  C45  1  0.84685900  0.98529700  0.41788000  1
  C  C46  1  0.84554700  0.02207400  0.53793000  1
  C  C47  1  0.70178400  0.70154000  0.12597800  1
  C  C48  1  0.72615100  0.71229900  0.00349500  1
  C  C49  1  0.27254200  0.52688000  0.86149700  1
  C  C50  1  0.24148900  0.51532800  0.97999300  1
  N  N1  1  0.99939200  0.00040600  0.05106500  1
  N  N2  1  0.00206100  0.97765200  0.94757400  1
  O  O1  1  0.53270200  0.09920600  0.65687300  1
  O  O2  1  0.43151200  0.06681600  0.89987500  1
  O  O3  1  0.37428900  0.07268100  0.59477300  1
  O  O4  1  0.36927200  0.93084800  0.78824300  1
  O  O5  1  0.58138700  0.97820800  0.89427300  1
  O  O6  1  0.68362700  0.97546200  0.77357600  1
  O  O7  1  0.48750700  0.88420300  0.60479800  1
  O  O8  1  0.51790300  0.79472600  0.76884000  1
  O  O9  1  0.50756600  0.07317500  0.40298400  1
  O  O10  1  0.48761300  0.16596300  0.23955600  1
  O  O11  1  0.41438900  0.98039700  0.11282200  1
  O  O12  1  0.31539500  0.99679900  0.23196500  1
  O  O13  1  0.62418700  0.88725100  0.41517100  1
  O  O14  1  0.62689600  0.03149700  0.21764900  1
  O  O15  1  0.46609700  0.85891100  0.34860900  1
  O  O16  1  0.57180500  0.89367900  0.10915100  1
  O  O17  1  0.79548100  0.01276900  0.31706800  1
  O  O18  1  0.88825300  0.92521400  0.41282800  1
  O  O19  1  0.63857700  0.62107700  0.15239200  1
  O  O20  1  0.74468100  0.76130900  0.20367600  1
  O  O21  1  0.34330600  0.49137600  0.84660900  1
  O  O22  1  0.22940000  0.56197600  0.77670000  1
