# generated using pymatgen
data_ZnH32C39NO12
_symmetry_space_group_name_H-M   'P 1'
_cell_length_a   19.49446200
_cell_length_b   18.34297500
_cell_length_c   15.02030400
_cell_angle_alpha   90.00000000
_cell_angle_beta   90.01650400
_cell_angle_gamma   90.00000000
_symmetry_Int_Tables_number   1
_chemical_formula_structural   ZnH32C39NO12
_chemical_formula_sum   'Zn2 H64 C78 N2 O24'
_cell_volume   5371.05664860
_cell_formula_units_Z   2
loop_
 _symmetry_equiv_pos_site_id
 _symmetry_equiv_pos_as_xyz
  1  'x, y, z'
loop_
 _atom_site_type_symbol
 _atom_site_label
 _atom_site_symmetry_multiplicity
 _atom_site_fract_x
 _atom_site_fract_y
 _atom_site_fract_z
 _atom_site_occupancy
  Zn  Zn1  1  0.49999900  0.57121100  0.50000000  1
  Zn  Zn2  1  0.50000100  0.40452000  0.50000000  1
  H  H1  1  0.60593500  0.48075900  0.77760200  1
  H  H2  1  0.39406000  0.48083700  0.22239800  1
  H  H3  1  0.38805700  0.48882100  0.78229000  1
  H  H4  1  0.61194300  0.48873700  0.21771000  1
  H  H5  1  0.32817300  0.48483500  0.92240200  1
  H  H6  1  0.67182500  0.48470900  0.07759800  1
  H  H7  1  0.33045100  0.48174100  0.08527000  1
  H  H8  1  0.66954500  0.48161700  0.91473000  1
  H  H9  1  0.71634800  0.38335300  0.43780500  1
  H  H10  1  0.27956600  0.58967900  0.43168300  1
  H  H11  1  0.28365200  0.38335500  0.56220400  1
  H  H12  1  0.72043400  0.58968700  0.56830200  1
  H  H13  1  0.83997600  0.38253200  0.43236600  1
  H  H14  1  0.15669400  0.58618800  0.42710300  1
  H  H15  1  0.16002400  0.38253500  0.56764400  1
  H  H16  1  0.84330600  0.58619500  0.57288400  1
  H  H17  1  0.93902500  0.60074900  0.49660500  1
  H  H18  1  0.06125800  0.36711800  0.49564900  1
  H  H19  1  0.06097600  0.60074800  0.50338300  1
  H  H20  1  0.93874100  0.36711900  0.50436400  1
  H  H21  1  0.56334900  0.92144800  0.38429300  1
  H  H22  1  0.43725300  0.05513600  0.61615900  1
  H  H23  1  0.43665500  0.92144800  0.61571000  1
  H  H24  1  0.56274900  0.05513600  0.38384400  1
  H  H25  1  0.62114300  0.71723000  0.79974000  1
  H  H26  1  0.60372300  0.62074900  0.79383200  1
  H  H27  1  0.51679100  0.73716300  0.88784900  1
  H  H28  1  0.56935900  0.66785200  0.94012700  1
  H  H29  1  0.49382700  0.64200800  0.87749200  1
  H  H30  1  0.33554500  0.33516800  0.25426200  1
  H  H31  1  0.29749100  0.39261200  0.33790800  1
  H  H32  1  0.26495200  0.23101000  0.30675500  1
  H  H33  1  0.21294600  0.30767900  0.27171100  1
  H  H34  1  0.22568300  0.28979100  0.38914700  1
  H  H35  1  0.37886500  0.71727100  0.20026300  1
  H  H36  1  0.39625300  0.62078300  0.20616100  1
  H  H37  1  0.48322600  0.73717100  0.11215900  1
  H  H38  1  0.43063400  0.66788600  0.05987100  1
  H  H39  1  0.50615600  0.64200600  0.12250300  1
  H  H40  1  0.66446100  0.33516200  0.74573700  1
  H  H41  1  0.70251300  0.39261000  0.66209200  1
  H  H42  1  0.73505300  0.23100600  0.69323500  1
  H  H43  1  0.78706000  0.30767300  0.72828100  1
  H  H44  1  0.77432000  0.28979000  0.61084500  1
  H  H45  1  0.67891500  0.87199300  0.73129000  1
  H  H46  1  0.62991500  0.95287100  0.70306400  1
  H  H47  1  0.75887300  0.89700500  0.60772400  1
  H  H48  1  0.75374400  0.97454600  0.68212500  1
  H  H49  1  0.70920700  0.97631500  0.57628000  1
  H  H50  1  0.34183800  0.12883600  0.22704900  1
  H  H51  1  0.40980500  0.06147900  0.21854400  1
  H  H52  1  0.40470800  0.20915200  0.12267000  1
  H  H53  1  0.38726300  0.12098500  0.07327900  1
  H  H54  1  0.47246300  0.14197600  0.11401700  1
  H  H55  1  0.32109000  0.87199500  0.26870700  1
  H  H56  1  0.37008600  0.95287300  0.29694100  1
  H  H57  1  0.24112700  0.89700000  0.39227100  1
  H  H58  1  0.24625500  0.97454300  0.31787400  1
  H  H59  1  0.29078900  0.97631100  0.42372100  1
  H  H60  1  0.65816400  0.12883900  0.77295200  1
  H  H61  1  0.59019800  0.06148000  0.78145700  1
  H  H62  1  0.59529100  0.20915300  0.87733100  1
  H  H63  1  0.61273800  0.12098600  0.92672200  1
  H  H64  1  0.52753800  0.14197500  0.88598400  1
  C  C1  1  0.36581400  0.48770900  0.49610600  1
  C  C2  1  0.63418600  0.48771000  0.50389400  1
  C  C3  1  0.50368900  0.48764700  0.32624700  1
  C  C4  1  0.49631000  0.48764700  0.67375300  1
  C  C5  1  0.55864000  0.48219300  0.81512500  1
  C  C6  1  0.44135600  0.48223800  0.18487500  1
  C  C7  1  0.49698200  0.48659900  0.77068300  1
  C  C8  1  0.50301700  0.48659800  0.22931700  1
  C  C9  1  0.43630900  0.48702600  0.81769000  1
  C  C10  1  0.56369000  0.48697800  0.18231000  1
  C  C11  1  0.43746300  0.48464400  0.90952000  1
  C  C12  1  0.56253400  0.48459800  0.09048000  1
  C  C13  1  0.49935700  0.48337300  0.95410500  1
  C  C14  1  0.50064000  0.48337300  0.04589500  1
  C  C15  1  0.55998200  0.48234400  0.90688600  1
  C  C16  1  0.44001400  0.48238800  0.09311400  1
  C  C17  1  0.37684700  0.48404600  0.95686400  1
  C  C18  1  0.62315000  0.48395600  0.04313600  1
  C  C19  1  0.37813100  0.48225800  0.04856500  1
  C  C20  1  0.62186500  0.48216900  0.95143500  1
  C  C21  1  0.74416500  0.42830100  0.46714500  1
  C  C22  1  0.25373900  0.54390100  0.46132100  1
  C  C23  1  0.25583500  0.42830100  0.53285900  1
  C  C24  1  0.74626100  0.54390600  0.53867000  1
  C  C25  1  0.81493200  0.42762200  0.46511200  1
  C  C26  1  0.18312600  0.54205300  0.45995100  1
  C  C27  1  0.18506800  0.42762300  0.53489300  1
  C  C28  1  0.81687400  0.54205800  0.54004000  1
  C  C29  1  0.85230000  0.48437500  0.50213400  1
  C  C30  1  0.14770000  0.48437300  0.49786500  1
  C  C31  1  0.70940300  0.48684000  0.50312100  1
  C  C32  1  0.29059700  0.48683800  0.49687700  1
  C  C33  1  0.96468100  0.54868700  0.49951600  1
  C  C34  1  0.03538500  0.41906300  0.49880900  1
  C  C35  1  0.03531900  0.54868700  0.50047700  1
  C  C36  1  0.96461400  0.41906400  0.50119800  1
  C  C37  1  0.07176500  0.48392500  0.49911300  1
  C  C38  1  0.92823500  0.48392600  0.50088600  1
  C  C39  1  0.52906100  0.71895800  0.56819200  1
  C  C40  1  0.46547200  0.25749900  0.43601900  1
  C  C41  1  0.47093800  0.71895900  0.43180900  1
  C  C42  1  0.53453000  0.25750000  0.56398100  1
  C  C43  1  0.52967900  0.79451900  0.56837800  1
  C  C44  1  0.46510800  0.18185300  0.43514100  1
  C  C45  1  0.47032200  0.79452000  0.43162400  1
  C  C46  1  0.53489300  0.18185300  0.56486000  1
  C  C47  1  0.50000100  0.83267100  0.50000100  1
  C  C48  1  0.50000100  0.14366600  0.50000100  1
  C  C49  1  0.53521000  0.95064100  0.43501200  1
  C  C50  1  0.46501700  0.02582000  0.56519400  1
  C  C51  1  0.46479400  0.95064100  0.56499100  1
  C  C52  1  0.53498600  0.02582000  0.43480900  1
  C  C53  1  0.50000100  0.06367000  0.50000100  1
  C  C54  1  0.50000200  0.91269800  0.50000200  1
  C  C55  1  0.56494500  0.68302500  0.64154100  1
  C  C56  1  0.58005200  0.67543300  0.79759900  1
  C  C57  1  0.53717600  0.68097400  0.88137000  1
  C  C58  1  0.42458000  0.29526100  0.36842100  1
  C  C59  1  0.31297000  0.33598900  0.32189400  1
  C  C60  1  0.24990200  0.28789100  0.32238100  1
  C  C61  1  0.43505200  0.68302800  0.35845900  1
  C  C62  1  0.41994300  0.67545800  0.20240000  1
  C  C63  1  0.46282100  0.68099000  0.11863000  1
  C  C64  1  0.57542300  0.29526100  0.63157900  1
  C  C65  1  0.68703400  0.33598500  0.67810300  1
  C  C66  1  0.75010200  0.28788800  0.67761200  1
  C  C67  1  0.56807700  0.83431000  0.63681300  1
  C  C68  1  0.66250200  0.90848000  0.67636300  1
  C  C69  1  0.72529400  0.94129700  0.63272700  1
  C  C70  1  0.42491200  0.14238000  0.36747100  1
  C  C71  1  0.39755100  0.12044800  0.21608600  1
  C  C72  1  0.41678200  0.15010800  0.12542700  1
  C  C73  1  0.43192600  0.83431300  0.36318900  1
  C  C74  1  0.33749900  0.90848000  0.32363700  1
  C  C75  1  0.27470500  0.94129400  0.36727200  1
  C  C76  1  0.57508900  0.14238100  0.63253000  1
  C  C77  1  0.60245100  0.12044900  0.78391500  1
  C  C78  1  0.58321800  0.15010900  0.87457400  1
  N  N1  1  0.49999900  0.68077700  0.50000000  1
  N  N2  1  0.50000100  0.29506600  0.50000000  1
  O  O1  1  0.39779500  0.55093800  0.49607700  1
  O  O2  1  0.60212200  0.42476300  0.50270500  1
  O  O3  1  0.60220300  0.55093800  0.50392200  1
  O  O4  1  0.39788000  0.42476300  0.49729500  1
  O  O5  1  0.50318800  0.55081900  0.36741800  1
  O  O6  1  0.49758400  0.42486300  0.63243700  1
  O  O7  1  0.49680800  0.55081900  0.63258200  1
  O  O8  1  0.50241800  0.42486300  0.36756400  1
  O  O9  1  0.62257500  0.65941600  0.62995700  1
  O  O10  1  0.53912900  0.68718200  0.72469000  1
  O  O11  1  0.44877200  0.30513500  0.29447500  1
  O  O12  1  0.35823200  0.31140500  0.38549000  1
  O  O13  1  0.37742100  0.65942400  0.37004200  1
  O  O14  1  0.46086900  0.68718800  0.27531000  1
  O  O15  1  0.55123200  0.30513500  0.70552500  1
  O  O16  1  0.64177100  0.31140400  0.61450800  1
  O  O17  1  0.54594200  0.83842800  0.71259600  1
  O  O18  1  0.62629900  0.86940600  0.61439200  1
  O  O19  1  0.38368200  0.09595600  0.39018600  1
  O  O20  1  0.43419900  0.15663600  0.28023100  1
  O  O21  1  0.45406500  0.83843700  0.28740900  1
  O  O22  1  0.37370100  0.86940500  0.38560900  1
  O  O23  1  0.61632100  0.09595800  0.60981500  1
  O  O24  1  0.56580200  0.15663700  0.71977000  1
