# generated using pymatgen
data_Zn3H40(C17O4)3
_symmetry_space_group_name_H-M   'P 1'
_cell_length_a   43.97706000
_cell_length_b   30.37969100
_cell_length_c   30.22903500
_cell_angle_alpha   90.00000000
_cell_angle_beta   46.90002900
_cell_angle_gamma   90.00000000
_symmetry_Int_Tables_number   1
_chemical_formula_structural   Zn3H40(C17O4)3
_chemical_formula_sum   'Zn12 H160 C204 O48'
_cell_volume   29488.55047399
_cell_formula_units_Z   4
loop_
 _symmetry_equiv_pos_site_id
 _symmetry_equiv_pos_as_xyz
  1  'x, y, z'
loop_
 _atom_site_type_symbol
 _atom_site_label
 _atom_site_symmetry_multiplicity
 _atom_site_fract_x
 _atom_site_fract_y
 _atom_site_fract_z
 _atom_site_occupancy
  Zn  Zn1  1  0.49986500  0.94481100  0.99996600  1
  Zn  Zn2  1  0.99986500  0.44481100  0.99996600  1
  Zn  Zn3  1  0.49993200  0.04452600  0.00003300  1
  Zn  Zn4  1  0.99993200  0.54452600  0.00003300  1
  Zn  Zn5  1  0.00058200  0.99859300  0.54963700  1
  Zn  Zn6  1  0.99923500  0.99869200  0.45099200  1
  Zn  Zn7  1  0.50058200  0.49859300  0.54963700  1
  Zn  Zn8  1  0.49923500  0.49869200  0.45099200  1
  Zn  Zn9  1  0.45310700  0.99952900  0.54316200  1
  Zn  Zn10  1  0.54716700  0.99939500  0.45647000  1
  Zn  Zn11  1  0.95310700  0.49952900  0.54316200  1
  Zn  Zn12  1  0.04716700  0.49939500  0.45647000  1
  H  H1  1  0.27585300  0.02035800  0.29675100  1
  H  H2  1  0.72422600  0.01987000  0.70289800  1
  H  H3  1  0.77585300  0.52035800  0.29675100  1
  H  H4  1  0.22422600  0.51987000  0.70289800  1
  H  H5  1  0.22582500  0.07080600  0.28881800  1
  H  H6  1  0.77438600  0.07074900  0.71014600  1
  H  H7  1  0.72582500  0.57080600  0.28881800  1
  H  H8  1  0.27438600  0.57074900  0.71014600  1
  H  H9  1  0.27700900  0.04465500  0.16688200  1
  H  H10  1  0.72293900  0.04581400  0.83256700  1
  H  H11  1  0.77700900  0.54465500  0.16688200  1
  H  H12  1  0.22293900  0.54581400  0.83256700  1
  H  H13  1  0.22392200  0.97217600  0.20507300  1
  H  H14  1  0.77560800  0.97321300  0.79585500  1
  H  H15  1  0.72392200  0.47217600  0.20507300  1
  H  H16  1  0.27560800  0.47321300  0.79585500  1
  H  H17  1  0.27427600  0.92154900  0.21280700  1
  H  H18  1  0.72510200  0.92214900  0.78880500  1
  H  H19  1  0.77427600  0.42154900  0.21280700  1
  H  H20  1  0.22510200  0.42214900  0.78880500  1
  H  H21  1  0.50837400  0.06542600  0.21092700  1
  H  H22  1  0.49259500  0.06665600  0.78737500  1
  H  H23  1  0.00837400  0.56542600  0.21092700  1
  H  H24  1  0.99259500  0.56665600  0.78737500  1
  H  H25  1  0.50627900  0.06458400  0.13317200  1
  H  H26  1  0.49467000  0.06634900  0.86519500  1
  H  H27  1  0.00627900  0.56458400  0.13317200  1
  H  H28  1  0.99467000  0.56634900  0.86519500  1
  H  H29  1  0.50125100  0.92367900  0.13993300  1
  H  H30  1  0.49748300  0.92536400  0.86161800  1
  H  H31  1  0.00125100  0.42367900  0.13993300  1
  H  H32  1  0.99748300  0.42536400  0.86161800  1
  H  H33  1  0.50441000  0.92476400  0.21684900  1
  H  H34  1  0.49452600  0.92596200  0.78446100  1
  H  H35  1  0.00441000  0.42476400  0.21684900  1
  H  H36  1  0.99452600  0.42596200  0.78446200  1
  H  H37  1  0.46033900  0.94680100  0.32069700  1
  H  H38  1  0.53949500  0.94739200  0.67971600  1
  H  H39  1  0.96033900  0.44680100  0.32069700  1
  H  H40  1  0.03949500  0.44739200  0.67971600  1
  H  H41  1  0.46049000  0.94960700  0.40070100  1
  H  H42  1  0.53957300  0.94983500  0.59936100  1
  H  H43  1  0.96049000  0.44960700  0.40070100  1
  H  H44  1  0.03957300  0.44983500  0.59936100  1
  H  H45  1  0.55412400  0.04598500  0.22343600  1
  H  H46  1  0.44615200  0.04708300  0.77572300  1
  H  H47  1  0.05412400  0.54598500  0.22343600  1
  H  H48  1  0.94615200  0.54708300  0.77572300  1
  H  H49  1  0.97977600  0.77878100  0.45328100  1
  H  H50  1  0.02085400  0.77828500  0.54679900  1
  H  H51  1  0.47977600  0.27878100  0.45328100  1
  H  H52  1  0.52085400  0.27828400  0.54679900  1
  H  H53  1  0.97959800  0.85876000  0.45367500  1
  H  H54  1  0.02047100  0.85823900  0.54776700  1
  H  H55  1  0.47959800  0.35876000  0.45367500  1
  H  H56  1  0.52047100  0.35823900  0.54776700  1
  H  H57  1  0.56072800  0.21951400  0.46983600  1
  H  H58  1  0.44044300  0.21918000  0.52913000  1
  H  H59  1  0.06072800  0.71951400  0.46983600  1
  H  H60  1  0.94044300  0.71918000  0.52913000  1
  H  H61  1  0.56115300  0.13951100  0.46912800  1
  H  H62  1  0.44059400  0.13916700  0.52888800  1
  H  H63  1  0.06115300  0.63951100  0.46912800  1
  H  H64  1  0.94059400  0.63916700  0.52888800  1
  H  H65  1  0.05154900  0.22060900  0.40513900  1
  H  H66  1  0.94805700  0.22022000  0.59510400  1
  H  H67  1  0.55154900  0.72060900  0.40513900  1
  H  H68  1  0.44805700  0.72022000  0.59510400  1
  H  H69  1  0.43327000  0.77922400  0.56080500  1
  H  H70  1  0.56598400  0.77962400  0.43989900  1
  H  H71  1  0.93327000  0.27922400  0.56080500  1
  H  H72  1  0.06598400  0.27962400  0.43989900  1
  H  H73  1  0.43291000  0.85890600  0.56171900  1
  H  H74  1  0.56590000  0.85930700  0.43953900  1
  H  H75  1  0.93291000  0.35890600  0.56171900  1
  H  H76  1  0.06590000  0.35930700  0.43953900  1
  H  H77  1  0.57654400  0.12239100  0.35166600  1
  H  H78  1  0.58234200  0.14781000  0.29202900  1
  H  H79  1  0.53962200  0.16349800  0.37007400  1
  H  H80  1  0.51556000  0.11382400  0.33437800  1
  H  H81  1  0.50992900  0.08875800  0.39367200  1
  H  H82  1  0.57878800  0.04875200  0.31205000  1
  H  H83  1  0.58207300  0.07528900  0.25670700  1
  H  H84  1  0.42442200  0.12268200  0.64638000  1
  H  H85  1  0.41812900  0.14818200  0.70640700  1
  H  H86  1  0.46116800  0.16382900  0.62846200  1
  H  H87  1  0.48466800  0.11424300  0.66506100  1
  H  H88  1  0.49084000  0.08911200  0.60531800  1
  H  H89  1  0.42203100  0.04902300  0.68606700  1
  H  H90  1  0.41800600  0.07562400  0.74211300  1
  H  H91  1  0.07654400  0.62239100  0.35166600  1
  H  H92  1  0.08234200  0.64781000  0.29202800  1
  H  H93  1  0.03962200  0.66349800  0.37007400  1
  H  H94  1  0.01556000  0.61382400  0.33437800  1
  H  H95  1  0.00992900  0.58875800  0.39367200  1
  H  H96  1  0.07878800  0.54875200  0.31205000  1
  H  H97  1  0.08207300  0.57528900  0.25670700  1
  H  H98  1  0.92442200  0.62268200  0.64638000  1
  H  H99  1  0.91812900  0.64818200  0.70640700  1
  H  H100  1  0.96116800  0.66382900  0.62846200  1
  H  H101  1  0.98466800  0.61424300  0.66506100  1
  H  H102  1  0.99084000  0.58911200  0.60531800  1
  H  H103  1  0.92203100  0.54902300  0.68606700  1
  H  H104  1  0.91800600  0.57562400  0.74211300  1
  H  H105  1  0.21556300  0.90866900  0.43513500  1
  H  H106  1  0.21484900  0.86315700  0.39711600  1
  H  H107  1  0.26024600  0.87272800  0.38607400  1
  H  H108  1  0.27208100  0.89818300  0.29758500  1
  H  H109  1  0.27270500  0.94362100  0.33563600  1
  H  H110  1  0.19871900  0.96031300  0.39056900  1
  H  H111  1  0.19828400  0.91499100  0.35215600  1
  H  H112  1  0.78408900  0.90689300  0.56649700  1
  H  H113  1  0.78448600  0.86185100  0.60538800  1
  H  H114  1  0.73921100  0.87127200  0.61608700  1
  H  H115  1  0.72734700  0.89772800  0.70425500  1
  H  H116  1  0.72704700  0.94269500  0.66532600  1
  H  H117  1  0.80108900  0.95916300  0.61031400  1
  H  H118  1  0.80118600  0.91432600  0.64963000  1
  H  H119  1  0.71556300  0.40866900  0.43513500  1
  H  H120  1  0.71484900  0.36315700  0.39711600  1
  H  H121  1  0.76024600  0.37272800  0.38607400  1
  H  H122  1  0.77208100  0.39818300  0.29758500  1
  H  H123  1  0.77270500  0.44362100  0.33563600  1
  H  H124  1  0.69871900  0.46031300  0.39056900  1
  H  H125  1  0.69828400  0.41499100  0.35215600  1
  H  H126  1  0.28408900  0.40689300  0.56649700  1
  H  H127  1  0.28448600  0.36185100  0.60538800  1
  H  H128  1  0.23921000  0.37127200  0.61608700  1
  H  H129  1  0.22734700  0.39772800  0.70425500  1
  H  H130  1  0.22704700  0.44269500  0.66532600  1
  H  H131  1  0.30108900  0.45916300  0.61031400  1
  H  H132  1  0.30118600  0.41432600  0.64963000  1
  H  H133  1  0.12595900  0.07653300  0.30910000  1
  H  H134  1  0.14738400  0.13170500  0.28759400  1
  H  H135  1  0.15998800  0.09436400  0.31948400  1
  H  H136  1  0.10760900  0.14940000  0.39512400  1
  H  H137  1  0.08672900  0.09426800  0.41707600  1
  H  H138  1  0.05282300  0.10744000  0.37716800  1
  H  H139  1  0.07744400  0.15940500  0.34956700  1
  H  H140  1  0.87379000  0.07643400  0.69080300  1
  H  H141  1  0.85248600  0.13165700  0.71215100  1
  H  H142  1  0.83975500  0.09430500  0.68044400  1
  H  H143  1  0.89225400  0.14925500  0.60465500  1
  H  H144  1  0.91293200  0.09403700  0.58276500  1
  H  H145  1  0.94717200  0.10687700  0.62211800  1
  H  H146  1  0.92254600  0.15879800  0.65020000  1
  H  H147  1  0.62595900  0.57653300  0.30910000  1
  H  H148  1  0.64738400  0.63170500  0.28759400  1
  H  H149  1  0.65998800  0.59436400  0.31948400  1
  H  H150  1  0.60760900  0.64940000  0.39512400  1
  H  H151  1  0.58672900  0.59426800  0.41707600  1
  H  H152  1  0.55282300  0.60744000  0.37716800  1
  H  H153  1  0.57744400  0.65940500  0.34956700  1
  H  H154  1  0.37379000  0.57643400  0.69080300  1
  H  H155  1  0.35248600  0.63165700  0.71215100  1
  H  H156  1  0.33975500  0.59430500  0.68044400  1
  H  H157  1  0.39225400  0.64925500  0.60465500  1
  H  H158  1  0.41293200  0.59403700  0.58276500  1
  H  H159  1  0.44717200  0.60687700  0.62211800  1
  H  H160  1  0.42254600  0.65879800  0.65020000  1
  C  C1  1  0.50197600  0.99367700  0.08434600  1
  C  C2  1  0.49783000  0.99573100  0.91564400  1
  C  C3  1  0.00197600  0.49367700  0.08434600  1
  C  C4  1  0.99783000  0.49573100  0.91564400  1
  C  C5  1  0.41833700  0.99391100  0.08301100  1
  C  C6  1  0.58146000  0.99545600  0.91698900  1
  C  C7  1  0.91833700  0.49391100  0.08301100  1
  C  C8  1  0.08146000  0.49545600  0.91698900  1
  C  C9  1  0.23598600  0.97023400  0.29526500  1
  C  C10  1  0.76374400  0.97003700  0.70546500  1
  C  C11  1  0.73598600  0.47023400  0.29526500  1
  C  C12  1  0.26374400  0.47003700  0.70546500  1
  C  C13  1  0.26373100  0.00960700  0.27620200  1
  C  C14  1  0.73622500  0.00946100  0.72373400  1
  C  C15  1  0.76373100  0.50960700  0.27620200  1
  C  C16  1  0.23622500  0.50946100  0.72373400  1
  C  C17  1  0.37345200  0.99419000  0.12810000  1
  C  C18  1  0.62634500  0.99533500  0.87195800  1
  C  C19  1  0.87345200  0.49419000  0.12810000  1
  C  C20  1  0.12634500  0.49533500  0.87195800  1
  C  C21  1  0.12637400  0.99803300  0.37383800  1
  C  C22  1  0.87343800  0.99779900  0.62670500  1
  C  C23  1  0.62637400  0.49803300  0.37383800  1
  C  C24  1  0.37343800  0.49779900  0.62670500  1
  C  C25  1  0.26286900  0.95546700  0.23018400  1
  C  C26  1  0.73670200  0.95591900  0.77082900  1
  C  C27  1  0.76286900  0.45546700  0.23018400  1
  C  C28  1  0.23670200  0.45591900  0.77082900  1
  C  C29  1  0.29006000  0.99530200  0.21116200  1
  C  C30  1  0.70974100  0.99581100  0.78904500  1
  C  C31  1  0.79006000  0.49530200  0.21116200  1
  C  C32  1  0.20974100  0.49581100  0.78904500  1
  C  C33  1  0.23620400  0.98294000  0.22539100  1
  C  C34  1  0.76345000  0.98363300  0.77524700  1
  C  C35  1  0.73620400  0.48294000  0.22539100  1
  C  C36  1  0.26345000  0.48363300  0.77524700  1
  C  C37  1  0.20977500  0.99718000  0.29043900  1
  C  C38  1  0.79003400  0.99721900  0.70992800  1
  C  C39  1  0.70977500  0.49718000  0.29043900  1
  C  C40  1  0.29003400  0.49721900  0.70992800  1
  C  C41  1  0.26419000  0.02266000  0.20553400  1
  C  C42  1  0.73569300  0.02341200  0.79429800  1
  C  C43  1  0.76419000  0.52266000  0.20553400  1
  C  C44  1  0.23569300  0.52341200  0.79429800  1
  C  C45  1  0.23706700  0.03690300  0.27128300  1
  C  C46  1  0.76296600  0.03699600  0.72828400  1
  C  C47  1  0.73706700  0.53690300  0.27128300  1
  C  C48  1  0.26296600  0.53699600  0.72828400  1
  C  C49  1  0.33581300  0.99460000  0.16568000  1
  C  C50  1  0.66398600  0.99543600  0.83444000  1
  C  C51  1  0.83581300  0.49460000  0.16568000  1
  C  C52  1  0.16398600  0.49543600  0.83444000  1
  C  C53  1  0.16401100  0.99762200  0.33612800  1
  C  C54  1  0.83580000  0.99746200  0.66434500  1
  C  C55  1  0.66401100  0.49762200  0.33612800  1
  C  C56  1  0.33579900  0.49746200  0.66434500  1
  C  C57  1  0.50755700  0.03410300  0.19482800  1
  C  C58  1  0.49296400  0.03545700  0.80416800  1
  C  C59  1  0.00755700  0.53410300  0.19482800  1
  C  C60  1  0.99296400  0.53545700  0.80416800  1
  C  C61  1  0.50590600  0.03358900  0.15105300  1
  C  C62  1  0.49460800  0.03523600  0.84795500  1
  C  C63  1  0.00590600  0.53358900  0.15105300  1
  C  C64  1  0.99460800  0.53523600  0.84795500  1
  C  C65  1  0.50358000  0.99405100  0.13098100  1
  C  C66  1  0.49625500  0.99581500  0.86897800  1
  C  C67  1  0.00358000  0.49405100  0.13098100  1
  C  C68  1  0.99625500  0.49581500  0.86897800  1
  C  C69  1  0.50290500  0.95502900  0.15506900  1
  C  C70  1  0.49631000  0.95662000  0.84578400  1
  C  C71  1  0.00290500  0.45502900  0.15506900  1
  C  C72  1  0.99631000  0.45662000  0.84578400  1
  C  C73  1  0.50440000  0.95561100  0.19906000  1
  C  C74  1  0.49493900  0.95691400  0.80166200  1
  C  C75  1  0.00440000  0.45561100  0.19906000  1
  C  C76  1  0.99493900  0.45691400  0.80166200  1
  C  C77  1  0.50682000  0.99514400  0.21901900  1
  C  C78  1  0.49314800  0.99632600  0.78081500  1
  C  C79  1  0.00682000  0.49514400  0.21901900  1
  C  C80  1  0.99314800  0.49632600  0.78081500  1
  C  C81  1  0.48159500  0.96888500  0.31615700  1
  C  C82  1  0.51837100  0.96946600  0.68391700  1
  C  C83  1  0.98159500  0.46888500  0.31615700  1
  C  C84  1  0.01837100  0.46946600  0.68391700  1
  C  C85  1  0.48123300  0.97096300  0.36185600  1
  C  C86  1  0.51884800  0.97129700  0.63808800  1
  C  C87  1  0.98123300  0.47096300  0.36185600  1
  C  C88  1  0.01884800  0.47129700  0.63808800  1
  C  C89  1  0.50723700  0.99952900  0.35821500  1
  C  C90  1  0.49294400  0.99980300  0.64145200  1
  C  C91  1  0.00723700  0.49952900  0.35821500  1
  C  C92  1  0.99294400  0.49980300  0.64145200  1
  C  C93  1  0.53359700  0.02722500  0.30823100  1
  C  C94  1  0.46663300  0.02771200  0.69113700  1
  C  C95  1  0.03359700  0.52722500  0.30823100  1
  C  C96  1  0.96663300  0.52771200  0.69113700  1
  C  C97  1  0.53370700  0.02480000  0.26251700  1
  C  C98  1  0.46647400  0.02564300  0.73690700  1
  C  C99  1  0.03370700  0.52480000  0.26251700  1
  C  C100  1  0.96647400  0.52564300  0.73690700  1
  C  C101  1  0.50775500  0.99590700  0.26638900  1
  C  C102  1  0.49227900  0.99676600  0.73339100  1
  C  C103  1  0.00775500  0.49590600  0.26638900  1
  C  C104  1  0.99227900  0.49676600  0.73339100  1
  C  C105  1  0.99992700  0.91244400  0.50109100  1
  C  C106  1  0.49992700  0.41244400  0.50109100  1
  C  C107  1  0.08149800  0.99856300  0.41916900  1
  C  C108  1  0.91831500  0.99836300  0.58141600  1
  C  C109  1  0.58149800  0.49856300  0.41916900  1
  C  C110  1  0.41831500  0.49836300  0.58141600  1
  C  C111  1  0.99990100  0.08504700  0.49953100  1
  C  C112  1  0.49990100  0.58504700  0.49953100  1
  C  C113  1  0.50100900  0.08561300  0.49888600  1
  C  C114  1  0.00100900  0.58561300  0.49888600  1
  C  C115  1  0.50463500  0.99992000  0.40898400  1
  C  C116  1  0.49556800  0.00004300  0.59070000  1
  C  C117  1  0.00463500  0.49992000  0.40898400  1
  C  C118  1  0.99556800  0.50004300  0.59070000  1
  C  C119  1  0.49926300  0.91324700  0.50074800  1
  C  C120  1  0.99926300  0.41324700  0.50074800  1
  C  C121  1  0.98847400  0.79607900  0.47447900  1
  C  C122  1  0.01202600  0.79580400  0.52590500  1
  C  C123  1  0.48847400  0.29607900  0.47447900  1
  C  C124  1  0.51202600  0.29580400  0.52590500  1
  C  C125  1  0.98876500  0.84145200  0.47423000  1
  C  C126  1  0.01140600  0.84116500  0.52693900  1
  C  C127  1  0.48876500  0.34145200  0.47423000  1
  C  C128  1  0.51140600  0.34116500  0.52693900  1
  C  C129  1  0.00001200  0.86423100  0.50077100  1
  C  C130  1  0.50001200  0.36423100  0.50077100  1
  C  C131  1  0.00034800  0.77304500  0.49997600  1
  C  C132  1  0.50034800  0.27304500  0.49997600  1
  C  C133  1  0.53411700  0.20203900  0.48322900  1
  C  C134  1  0.46719100  0.20185600  0.51548700  1
  C  C135  1  0.03411700  0.70203900  0.48322900  1
  C  C136  1  0.96719100  0.70185600  0.51548700  1
  C  C137  1  0.53451100  0.15669500  0.48226100  1
  C  C138  1  0.46712600  0.15650500  0.51591000  1
  C  C139  1  0.03451100  0.65669500  0.48226100  1
  C  C140  1  0.96712600  0.65650500  0.51591000  1
  C  C141  1  0.50089100  0.13373900  0.49898500  1
  C  C142  1  0.00089100  0.63373900  0.49898500  1
  C  C143  1  0.50056100  0.22483500  0.49953000  1
  C  C144  1  0.00056100  0.72483500  0.49953000  1
  C  C145  1  0.02888000  0.20257700  0.44686000  1
  C  C146  1  0.97077700  0.20235800  0.55323900  1
  C  C147  1  0.52888000  0.70257700  0.44686000  1
  C  C148  1  0.47077700  0.70235800  0.55323900  1
  C  C149  1  0.02936700  0.15710800  0.44599000  1
  C  C150  1  0.97042900  0.15688900  0.55375300  1
  C  C151  1  0.52936700  0.65710800  0.44599000  1
  C  C152  1  0.47042900  0.65688900  0.55375300  1
  C  C153  1  0.99990800  0.13360200  0.49976800  1
  C  C154  1  0.49990800  0.63360200  0.49976800  1
  C  C155  1  0.99977400  0.22533500  0.50013700  1
  C  C156  1  0.49977400  0.72533500  0.50013700  1
  C  C157  1  0.46253000  0.79654700  0.53466100  1
  C  C158  1  0.53662800  0.79677100  0.46617600  1
  C  C159  1  0.96253000  0.29654700  0.53466100  1
  C  C160  1  0.03662800  0.29677100  0.46617600  1
  C  C161  1  0.46238500  0.84191400  0.53472900  1
  C  C162  1  0.53651700  0.84213800  0.46642900  1
  C  C163  1  0.96238500  0.34191400  0.53472900  1
  C  C164  1  0.03651700  0.34213800  0.46642900  1
  C  C165  1  0.49938700  0.86499300  0.50065300  1
  C  C166  1  0.99938700  0.36499300  0.50065300  1
  C  C167  1  0.49964400  0.77366200  0.50033100  1
  C  C168  1  0.99964400  0.27366200  0.50033100  1
  C  C169  1  0.55981900  0.06211500  0.30350300  1
  C  C170  1  0.53269100  0.10007100  0.34604200  1
  C  C171  1  0.55964200  0.13574500  0.33942900  1
  C  C172  1  0.44058100  0.06248500  0.69530600  1
  C  C173  1  0.46783000  0.10045200  0.65293000  1
  C  C174  1  0.44105600  0.13608600  0.65903300  1
  C  C175  1  0.05981900  0.56211500  0.30350300  1
  C  C176  1  0.03269100  0.60007100  0.34604200  1
  C  C177  1  0.05964200  0.63574500  0.33942900  1
  C  C178  1  0.94058100  0.56248500  0.69530600  1
  C  C179  1  0.96783000  0.60045200  0.65293000  1
  C  C180  1  0.94105600  0.63608600  0.65903300  1
  C  C181  1  0.21801700  0.94040600  0.34847100  1
  C  C182  1  0.25285200  0.91831200  0.33946400  1
  C  C183  1  0.23460700  0.88878600  0.39302500  1
  C  C184  1  0.78162900  0.93966100  0.65276900  1
  C  C185  1  0.74673200  0.91746500  0.66202400  1
  C  C186  1  0.76489500  0.88740400  0.60895400  1
  C  C187  1  0.71801700  0.44040600  0.34847100  1
  C  C188  1  0.75285200  0.41831200  0.33946400  1
  C  C189  1  0.73460700  0.38878600  0.39302500  1
  C  C190  1  0.28162900  0.43966100  0.65276900  1
  C  C191  1  0.24673200  0.41746500  0.66202400  1
  C  C192  1  0.26489500  0.38740400  0.60895400  1
  C  C193  1  0.06385700  0.13533100  0.38650400  1
  C  C194  1  0.09802800  0.12097100  0.38401700  1
  C  C195  1  0.13523600  0.10482300  0.32085800  1
  C  C196  1  0.93605100  0.13490000  0.61311000  1
  C  C197  1  0.90176900  0.12075000  0.61575500  1
  C  C198  1  0.86455400  0.10472200  0.67898300  1
  C  C199  1  0.56385700  0.63533100  0.38650400  1
  C  C200  1  0.59802800  0.62097100  0.38401700  1
  C  C201  1  0.63523600  0.60482300  0.32085800  1
  C  C202  1  0.43605100  0.63490000  0.61311000  1
  C  C203  1  0.40176900  0.62075000  0.61575500  1
  C  C204  1  0.36455400  0.60472200  0.67898300  1
  O  O1  1  0.50039000  0.95563000  0.06554100  1
  O  O2  1  0.49744100  0.95777900  0.93670200  1
  O  O3  1  0.00039000  0.45563000  0.06554100  1
  O  O4  1  0.99744100  0.45777900  0.93670200  1
  O  O5  1  0.50242400  0.03154700  0.06313600  1
  O  O6  1  0.49933400  0.03370500  0.93462200  1
  O  O7  1  0.00242400  0.53154700  0.06313600  1
  O  O8  1  0.99933400  0.53370500  0.93462200  1
  O  O9  1  0.43763300  0.95582000  0.06443800  1
  O  O10  1  0.56186900  0.95753200  0.93791100  1
  O  O11  1  0.93763300  0.45582000  0.06443800  1
  O  O12  1  0.06186900  0.45753200  0.93791100  1
  O  O13  1  0.43796500  0.03180700  0.06208000  1
  O  O14  1  0.56212800  0.03351900  0.93557400  1
  O  O15  1  0.93796500  0.53180700  0.06208000  1
  O  O16  1  0.06212800  0.53351900  0.93557400  1
  O  O17  1  0.00167400  0.93282800  0.53757700  1
  O  O18  1  0.99822100  0.93322100  0.46474800  1
  O  O19  1  0.50167400  0.43282800  0.53757700  1
  O  O20  1  0.49822100  0.43322100  0.46474800  1
  O  O21  1  0.06272900  0.99754300  0.47633300  1
  O  O22  1  0.93708200  0.99968900  0.52426400  1
  O  O23  1  0.56272900  0.49754300  0.47633300  1
  O  O24  1  0.43708200  0.49968900  0.52426400  1
  O  O25  1  0.06131900  0.99996500  0.40145000  1
  O  O26  1  0.93849800  0.99764100  0.59914800  1
  O  O27  1  0.56131900  0.49996500  0.40145000  1
  O  O28  1  0.43849800  0.49764100  0.59914800  1
  O  O29  1  0.00172700  0.06408600  0.53564600  1
  O  O30  1  0.99801500  0.06448600  0.46328200  1
  O  O31  1  0.50172700  0.56408600  0.53564600  1
  O  O32  1  0.49801500  0.56448600  0.46328200  1
  O  O33  1  0.46528800  0.06499300  0.53036200  1
  O  O34  1  0.53679900  0.06518900  0.46745800  1
  O  O35  1  0.96528800  0.56499300  0.53036200  1
  O  O36  1  0.03679900  0.56518900  0.46745800  1
  O  O37  1  0.46747300  0.99811300  0.46369400  1
  O  O38  1  0.53278000  0.00006400  0.53596700  1
  O  O39  1  0.96747300  0.49811300  0.46369400  1
  O  O40  1  0.03278000  0.50006400  0.53596700  1
  O  O41  1  0.53906800  0.00047300  0.39802000  1
  O  O42  1  0.46112900  0.99875800  0.60170300  1
  O  O43  1  0.03906800  0.50047300  0.39802000  1
  O  O44  1  0.96112900  0.49875800  0.60170300  1
  O  O45  1  0.46347200  0.93376000  0.53279000  1
  O  O46  1  0.53497800  0.93396000  0.46868200  1
  O  O47  1  0.96347200  0.43376000  0.53279000  1
  O  O48  1  0.03497800  0.43396000  0.46868200  1
