# generated using pymatgen
data_ZnH13C24(NO2)3
_symmetry_space_group_name_H-M   'P 1'
_cell_length_a   14.13369600
_cell_length_b   14.84524000
_cell_length_c   16.02163900
_cell_angle_alpha   93.96493100
_cell_angle_beta   91.40343200
_cell_angle_gamma   98.77127000
_symmetry_Int_Tables_number   1
_chemical_formula_structural   ZnH13C24(NO2)3
_chemical_formula_sum   'Zn2 H26 C48 N6 O12'
_cell_volume   3312.27053253
_cell_formula_units_Z   2
loop_
 _symmetry_equiv_pos_site_id
 _symmetry_equiv_pos_as_xyz
  1  'x, y, z'
loop_
 _atom_site_type_symbol
 _atom_site_label
 _atom_site_symmetry_multiplicity
 _atom_site_fract_x
 _atom_site_fract_y
 _atom_site_fract_z
 _atom_site_occupancy
  Zn  Zn1  1  0.52437500  0.59994700  0.48084000  1
  Zn  Zn2  1  0.47650800  0.40187200  0.52330800  1
  H  H1  1  0.55573900  0.74308500  0.01999000  1
  H  H2  1  0.44255700  0.25901800  0.98412700  1
  H  H3  1  0.51298400  0.55171400  0.21648800  1
  H  H4  1  0.48866800  0.45012700  0.78770000  1
  H  H5  1  0.44832700  0.27515100  0.27245900  1
  H  H6  1  0.55141200  0.72678400  0.73164500  1
  H  H7  1  0.56259900  0.77510300  0.87942000  1
  H  H8  1  0.43632800  0.22693000  0.12467100  1
  H  H9  1  0.53308500  0.64252600  0.12651000  1
  H  H10  1  0.46512900  0.35958600  0.87761800  1
  H  H11  1  0.34076300  0.98873300  0.66891400  1
  H  H12  1  0.67760600  0.01683000  0.34914500  1
  H  H13  1  0.46093800  0.77083900  0.53642700  1
  H  H14  1  0.53482000  0.23004700  0.46349000  1
  H  H15  1  0.65153500  0.69672400  0.36133700  1
  H  H16  1  0.34796400  0.30471400  0.64171700  1
  H  H17  1  0.41129800  0.87375000  0.60448300  1
  H  H18  1  0.60712100  0.13187200  0.41346500  1
  H  H19  1  0.88728000  0.66968800  0.43799300  1
  H  H20  1  0.93526800  0.63987500  0.34657800  1
  H  H21  1  0.05162500  0.27613800  0.46707900  1
  H  H22  1  0.11058900  0.32569000  0.55548200  1
  H  H23  1  0.19145300  0.03173200  0.71382400  1
  H  H24  1  0.19942700  0.05679400  0.61210700  1
  H  H25  1  0.71814000  0.94965500  0.21608600  1
  H  H26  1  0.60367500  0.90108500  0.23149800  1
  C  C1  1  0.51235200  0.55430400  0.66186700  1
  C  C2  1  0.48853200  0.44752900  0.34228800  1
  C  C3  1  0.31813600  0.51434800  0.49803200  1
  C  C4  1  0.68271900  0.48736500  0.50590400  1
  C  C5  1  0.78255800  0.47906500  0.50534600  1
  C  C6  1  0.21781400  0.52048800  0.49294400  1
  C  C7  1  0.96576300  0.46085000  0.50056200  1
  C  C8  1  0.03258000  0.52950400  0.47880600  1
  C  C9  1  0.13333300  0.52449600  0.48730500  1
  C  C10  1  0.86626000  0.47154300  0.50355200  1
  C  C11  1  0.51891400  0.58398500  0.75153400  1
  C  C12  1  0.48161400  0.41790400  0.25261400  1
  C  C13  1  0.54605900  0.70301300  0.86035200  1
  C  C14  1  0.45331700  0.29898600  0.14376100  1
  C  C15  1  0.53975600  0.67560200  0.77663600  1
  C  C16  1  0.46010800  0.32633900  0.22748500  1
  C  C17  1  0.50429200  0.52029800  0.81105100  1
  C  C18  1  0.49636400  0.48160800  0.19311400  1
  C  C19  1  0.51025000  0.54716800  0.89670300  1
  C  C20  1  0.48958200  0.45481600  0.10744600  1
  C  C21  1  0.53161000  0.63972800  0.91967300  1
  C  C22  1  0.46776300  0.36228900  0.08445700  1
  C  C23  1  0.49580800  0.48491600  0.95973400  1
  C  C24  1  0.50373600  0.51709800  0.04441400  1
  C  C25  1  0.52555200  0.61099100  0.06394000  1
  C  C26  1  0.47340300  0.39106700  0.94019600  1
  C  C27  1  0.53897800  0.67067200  0.00239800  1
  C  C28  1  0.45983600  0.33139300  0.00172800  1
  C  C29  1  0.35766700  0.16271700  0.63153500  1
  C  C30  1  0.63954100  0.83821300  0.36952400  1
  C  C31  1  0.38184900  0.25138800  0.61122800  1
  C  C32  1  0.61908700  0.75037700  0.39295200  1
  C  C33  1  0.48695300  0.20705700  0.51119200  1
  C  C34  1  0.51225900  0.79446000  0.49152300  1
  C  C35  1  0.46844400  0.11602200  0.53148400  1
  C  C36  1  0.53330500  0.88599300  0.47318900  1
  C  C37  1  0.40302300  0.09477600  0.59304000  1
  C  C38  1  0.59817300  0.90705800  0.41118300  1
  C  C39  1  0.51334800  0.04631800  0.49227200  1
  C  C40  1  0.49120400  0.95631500  0.51461800  1
  C  C41  1  0.42886200  0.93913200  0.57943400  1
  C  C42  1  0.58167400  0.06477600  0.43225900  1
  C  C43  1  0.38638800  0.00699200  0.61788000  1
  C  C44  1  0.62354600  0.99674500  0.39337200  1
  C  C45  1  0.00823100  0.61555900  0.44945500  1
  C  C46  1  0.98918200  0.37325800  0.52717800  1
  C  C47  1  0.28433400  0.14479400  0.69431600  1
  C  C48  1  0.70509600  0.85436200  0.30043500  1
  N  N1  1  0.44494700  0.27186700  0.55177100  1
  N  N2  1  0.55598400  0.72996500  0.45242400  1
  N  N3  1  0.91947000  0.61916800  0.40629600  1
  N  N4  1  0.07347200  0.33848000  0.50149600  1
  N  N5  1  0.19682600  0.08448500  0.67353500  1
  N  N6  1  0.67379600  0.88830000  0.22482800  1
  O  O1  1  0.52768000  0.61674400  0.60752100  1
  O  O2  1  0.47321000  0.38504900  0.39662700  1
  O  O3  1  0.49143700  0.46661800  0.63954700  1
  O  O4  1  0.50949100  0.53523100  0.36459200  1
  O  O5  1  0.37963600  0.58639800  0.48297200  1
  O  O6  1  0.62121600  0.41536300  0.52098200  1
  O  O7  1  0.34334900  0.43599000  0.51497200  1
  O  O8  1  0.65753100  0.56576000  0.48900600  1
  O  O9  1  0.06926800  0.68342200  0.45547000  1
  O  O10  1  0.93062300  0.32578200  0.56642200  1
  O  O11  1  0.29317400  0.19008300  0.76127100  1
  O  O12  1  0.78265100  0.82810000  0.30358900  1
