# generated using pymatgen
data_Cu3H46C52(N5O11)2
_symmetry_space_group_name_H-M   'P 1'
_cell_length_a   27.46941900
_cell_length_b   27.46774000
_cell_length_c   27.46938800
_cell_angle_alpha   109.46888500
_cell_angle_beta   109.47135900
_cell_angle_gamma   109.47168200
_symmetry_Int_Tables_number   1
_chemical_formula_structural   Cu3H46C52(N5O11)2
_chemical_formula_sum   'Cu6 H92 C104 N20 O44'
_cell_volume   15955.44047809
_cell_formula_units_Z   2
loop_
 _symmetry_equiv_pos_site_id
 _symmetry_equiv_pos_as_xyz
  1  'x, y, z'
loop_
 _atom_site_type_symbol
 _atom_site_label
 _atom_site_symmetry_multiplicity
 _atom_site_fract_x
 _atom_site_fract_y
 _atom_site_fract_z
 _atom_site_occupancy
  Cu  Cu1  1  0.49828800  0.45579800  0.45624300  1
  Cu  Cu2  1  0.50040500  0.54249700  0.53962500  1
  Cu  Cu3  1  0.95742700  0.45791500  0.99926500  1
  Cu  Cu4  1  0.04091700  0.54278600  0.99958500  1
  Cu  Cu5  1  0.95629700  0.99890800  0.45757700  1
  Cu  Cu6  1  0.04310100  0.00203500  0.54186200  1
  H  H1  1  0.65375500  0.41824700  0.69840400  1
  H  H2  1  0.34499800  0.58715400  0.30612100  1
  H  H3  1  0.73602700  0.58259600  0.78838100  1
  H  H4  1  0.27323400  0.42676600  0.20866000  1
  H  H5  1  0.66963400  0.51719100  0.76436600  1
  H  H6  1  0.33603100  0.49719000  0.23719400  1
  H  H7  1  0.71798200  0.48204700  0.81222000  1
  H  H8  1  0.28191700  0.52990000  0.19032600  1
  H  H9  1  0.76877700  0.49948000  0.67440600  1
  H  H10  1  0.22798800  0.49335700  0.31937400  1
  H  H11  1  0.68100800  0.41197400  0.64661100  1
  H  H12  1  0.31405000  0.58651400  0.35426800  1
  H  H13  1  0.76766500  0.42439800  0.70980700  1
  H  H14  1  0.22550900  0.56959400  0.29087500  1
  H  H15  1  0.83687900  0.58808000  0.80533500  1
  H  H16  1  0.16658000  0.41007900  0.18729200  1
  H  H17  1  0.15325800  0.19478900  0.40615200  1
  H  H18  1  0.84485000  0.80560800  0.59350600  1
  H  H19  1  0.22630400  0.32791100  0.48723500  1
  H  H20  1  0.77609600  0.67434400  0.51525500  1
  H  H21  1  0.34504200  0.26178800  0.53264800  1
  H  H22  1  0.65347800  0.73429600  0.46155700  1
  H  H23  1  0.33961800  0.30915700  0.59105700  1
  H  H24  1  0.66215300  0.68773300  0.40570200  1
  H  H25  1  0.26455700  0.18013100  0.50752100  1
  H  H26  1  0.73364600  0.81730900  0.48826100  1
  H  H27  1  0.27496100  0.21964000  0.43317100  1
  H  H28  1  0.72182300  0.77929600  0.56197700  1
  H  H29  1  0.18870900  0.15211200  0.41416600  1
  H  H30  1  0.80919900  0.84785500  0.58368900  1
  H  H31  1  0.27063700  0.22257400  0.57630700  1
  H  H32  1  0.73022100  0.77533500  0.42093700  1
  H  H33  1  0.00487200  0.17604400  0.76489700  1
  H  H34  1  0.00115000  0.82928300  0.23826300  1
  H  H35  1  0.98657000  0.23565300  0.82646100  1
  H  H36  1  0.01534700  0.76685000  0.17510000  1
  H  H37  1  0.08949600  0.35326800  0.81323500  1
  H  H38  1  0.90779300  0.64926100  0.18497800  1
  H  H39  1  0.08463900  0.30485400  0.84471800  1
  H  H40  1  0.91475900  0.69588200  0.15152400  1
  H  H41  1  0.09015200  0.24457400  0.77023600  1
  H  H42  1  0.91190900  0.76172500  0.22392000  1
  H  H43  1  0.08427200  0.28712500  0.73368200  1
  H  H44  1  0.90805900  0.71715700  0.25864500  1
  H  H45  1  0.92775500  0.29049300  0.72225300  1
  H  H46  1  0.06983100  0.71163100  0.27893400  1
  H  H47  1  0.99958500  0.33203700  0.73324600  1
  H  H48  1  0.99636600  0.66459200  0.26208700  1
  H  H49  1  0.91951600  0.21877100  0.76591100  1
  H  H50  1  0.08084800  0.78028800  0.23479400  1
  H  H51  1  0.93023100  0.14531000  0.70781000  1
  H  H52  1  0.07306000  0.85448200  0.29616400  1
  H  H53  1  0.69392300  0.37809800  0.80371200  1
  H  H54  1  0.75426300  0.37046500  0.81219900  1
  H  H55  1  0.32705700  0.69093000  0.26920000  1
  H  H56  1  0.33801200  0.63290200  0.24494000  1
  H  H57  1  0.21185400  0.31874000  0.38559000  1
  H  H58  1  0.15666800  0.24746100  0.33550400  1
  H  H59  1  0.78484000  0.68414100  0.61863900  1
  H  H60  1  0.84029400  0.75581800  0.66522900  1
  H  H61  1  0.36916600  0.44884300  0.61808300  1
  H  H62  1  0.35595800  0.41775000  0.65920800  1
  H  H63  1  0.63607800  0.54967200  0.38287700  1
  H  H64  1  0.65016900  0.57980600  0.34133600  1
  H  H65  1  0.10607000  0.31528600  0.51662600  1
  H  H66  1  0.12320900  0.32129100  0.46458200  1
  H  H67  1  0.92871700  0.79053600  0.59326500  1
  H  H68  1  0.94147100  0.79394400  0.53817500  1
  H  H69  1  0.18262500  0.33170700  0.63363300  1
  H  H70  1  0.16063500  0.26030500  0.61733900  1
  H  H71  1  0.82295900  0.66937300  0.37018800  1
  H  H72  1  0.84370300  0.74026000  0.38510600  1
  H  H73  1  0.85944600  0.10148300  0.58156300  1
  H  H74  1  0.84560400  0.14190800  0.54966800  1
  H  H75  1  0.16062000  0.85551400  0.45029300  1
  H  H76  1  0.09570900  0.85401600  0.43790300  1
  H  H77  1  0.97187200  0.30129600  0.59329000  1
  H  H78  1  0.90722200  0.25772000  0.58655000  1
  H  H79  1  0.92532900  0.70094700  0.34656800  1
  H  H80  1  0.98112800  0.76413100  0.41057400  1
  H  H81  1  0.80679200  0.59966400  0.96103800  1
  H  H82  1  0.73446600  0.54860200  0.91037100  1
  H  H83  1  0.20264400  0.41746600  0.03976600  1
  H  H84  1  0.27305500  0.47192700  0.09325200  1
  H  H85  1  0.79073400  0.66418700  0.76062300  1
  H  H86  1  0.74310000  0.62807600  0.68651400  1
  H  H87  1  0.20352600  0.35764400  0.31765200  1
  H  H88  1  0.24985200  0.43122200  0.36672400  1
  H  H89  1  0.95646500  0.57503800  0.79451500  1
  H  H90  1  0.92998400  0.62278300  0.80091100  1
  H  H91  1  0.04041500  0.40579500  0.19520100  1
  H  H92  1  0.07371200  0.36402200  0.19010100  1
  C  C1  1  0.41830700  0.42124200  0.50065200  1
  C  C2  1  0.58055300  0.57706200  0.49541400  1
  C  C3  1  0.58014700  0.49998100  0.57965900  1
  C  C4  1  0.41870500  0.49847800  0.41618400  1
  C  C5  1  0.69302900  0.43813600  0.69358000  1
  C  C6  1  0.30445800  0.56407900  0.30765800  1
  C  C7  1  0.71500200  0.53385200  0.77005600  1
  C  C8  1  0.28991200  0.47521800  0.22899700  1
  C  C9  1  0.75058800  0.51917300  0.81261000  1
  C  C10  1  0.25187600  0.48923600  0.18752800  1
  C  C11  1  0.87272100  0.50001400  0.87360400  1
  C  C12  1  0.12571900  0.50075600  0.12523200  1
  C  C13  1  0.71058100  0.50241500  0.70995900  1
  C  C14  1  0.29030700  0.50008000  0.28787900  1
  C  C15  1  0.74489900  0.43627200  0.73423300  1
  C  C16  1  0.25011500  0.56348600  0.26689400  1
  C  C17  1  0.78777200  0.49889300  0.78932100  1
  C  C18  1  0.21096600  0.50221000  0.20948600  1
  C  C19  1  0.81759200  0.54168800  0.77065000  1
  C  C20  1  0.18243100  0.45434500  0.22361000  1
  C  C21  1  0.77080600  0.53127200  0.71366200  1
  C  C22  1  0.22963800  0.46548100  0.28073500  1
  C  C23  1  0.83439700  0.49953300  0.83555600  1
  C  C24  1  0.16420600  0.50145600  0.16334100  1
  C  C25  1  0.66415300  0.50164200  0.66346200  1
  C  C26  1  0.33606900  0.49897000  0.33309400  1
  C  C27  1  0.62572000  0.50075600  0.62514100  1
  C  C28  1  0.37381500  0.49854800  0.37082200  1
  C  C29  1  0.24849000  0.24144600  0.44001500  1
  C  C30  1  0.74946400  0.75832500  0.55753900  1
  C  C31  1  0.25039000  0.32052500  0.52247000  1
  C  C32  1  0.75189500  0.68008000  0.47856700  1
  C  C33  1  0.20365500  0.27359000  0.52560400  1
  C  C34  1  0.79849100  0.72723200  0.47550000  1
  C  C35  1  0.12175300  0.12749400  0.49683900  1
  C  C36  1  0.87780200  0.87320200  0.50249400  1
  C  C37  1  0.28746400  0.29583600  0.50287300  1
  C  C38  1  0.71262500  0.70321400  0.49526400  1
  C  C39  1  0.19392400  0.19703500  0.43527300  1
  C  C40  1  0.80459000  0.80312600  0.56337400  1
  C  C41  1  0.20400000  0.21452400  0.49806100  1
  C  C42  1  0.79622700  0.78544200  0.50111500  1
  C  C43  1  0.26390300  0.22043500  0.53345800  1
  C  C44  1  0.73591800  0.77766900  0.46362700  1
  C  C45  1  0.31414900  0.27450400  0.54355500  1
  C  C46  1  0.68594300  0.72289500  0.45283300  1
  C  C47  1  0.15866800  0.16658600  0.49699500  1
  C  C48  1  0.84121000  0.83381700  0.50233900  1
  C  C49  1  0.33449700  0.34077200  0.50259800  1
  C  C50  1  0.66530500  0.65780200  0.49474300  1
  C  C51  1  0.37288400  0.37752600  0.50183200  1
  C  C52  1  0.62647900  0.62081200  0.49481000  1
  C  C53  1  0.99983000  0.42033800  0.91852800  1
  C  C54  1  0.99849400  0.58036000  0.08030500  1
  C  C55  1  0.91814300  0.50036300  0.91877700  1
  C  C56  1  0.08021500  0.50032300  0.08004800  1
  C  C57  1  0.99984200  0.91959200  0.41919500  1
  C  C58  1  0.99957000  0.08139300  0.58021800  1
  C  C59  1  0.07810400  0.08147200  0.49744800  1
  C  C60  1  0.92131600  0.91945300  0.50199400  1
  C  C61  1  0.96724300  0.23248600  0.78232000  1
  C  C62  1  0.03354700  0.76842300  0.21854500  1
  C  C63  1  0.06353200  0.30745500  0.80421400  1
  C  C64  1  0.93464700  0.69439800  0.19300900  1
  C  C65  1  0.06314000  0.26341800  0.75293300  1
  C  C66  1  0.93441200  0.74010600  0.24240600  1
  C  C67  1  0.99981100  0.12734700  0.62491700  1
  C  C68  1  0.99941100  0.87359200  0.37436100  1
  C  C69  1  0.00001200  0.29239300  0.78801000  1
  C  C70  1  0.99817100  0.70812400  0.21085100  1
  C  C71  1  0.97376500  0.18706500  0.73932600  1
  C  C72  1  0.02863100  0.81453900  0.26261700  1
  C  C73  1  0.99927500  0.21324700  0.70677700  1
  C  C74  1  0.99842400  0.78709400  0.29166300  1
  C  C75  1  0.96133000  0.23728000  0.67840700  1
  C  C76  1  0.03076100  0.75847900  0.31928600  1
  C  C77  1  0.96980500  0.29036400  0.72942200  1
  C  C78  1  0.02583200  0.70811100  0.26874100  1
  C  C79  1  0.99971500  0.16612000  0.66198600  1
  C  C80  1  0.99895000  0.83460700  0.33695200  1
  C  C81  1  0.00020600  0.33811300  0.83469200  1
  C  C82  1  0.99808500  0.66249900  0.16418900  1
  C  C83  1  0.00014200  0.37568900  0.87301700  1
  C  C84  1  0.99819000  0.62499000  0.12584200  1
  C  C85  1  0.72063400  0.38599200  0.74575200  1
  C  C86  1  0.26609100  0.61518000  0.25552000  1
  C  C87  1  0.23256200  0.25682100  0.39157900  1
  C  C88  1  0.76414500  0.74443300  0.60720400  1
  C  C89  1  0.28598900  0.38108600  0.57820300  1
  C  C90  1  0.71860200  0.61900000  0.42401200  1
  C  C91  1  0.14394200  0.26794700  0.49157400  1
  C  C92  1  0.85836500  0.73371900  0.51071800  1
  C  C93  1  0.21510700  0.29198700  0.58835700  1
  C  C94  1  0.78825100  0.70817300  0.41303900  1
  C  C95  1  0.89691500  0.18850400  0.63872700  1
  C  C96  1  0.09530600  0.80389400  0.36489100  1
  C  C97  1  0.97954600  0.25934700  0.64037200  1
  C  C98  1  0.00477700  0.73183800  0.35087300  1
  C  C99  1  0.78683100  0.56958800  0.87583300  1
  C  C100  1  0.21935500  0.44134500  0.12343000  1
  C  C101  1  0.78823300  0.58905100  0.71306900  1
  C  C102  1  0.21931600  0.40835200  0.28067600  1
  C  C103  1  0.86870900  0.53737300  0.76505400  1
  C  C104  1  0.12839700  0.45166600  0.22724300  1
  N  N1  1  0.73424600  0.39536400  0.80413000  1
  N  N2  1  0.32625700  0.65467000  0.27418300  1
  N  N3  1  0.19014100  0.27644600  0.38006100  1
  N  N4  1  0.80641400  0.72493500  0.62114600  1
  N  N5  1  0.34864200  0.40836100  0.61650700  1
  N  N6  1  0.65611800  0.58984800  0.38375700  1
  N  N7  1  0.13866300  0.32015700  0.50421700  1
  N  N8  1  0.91087200  0.79045800  0.55319500  1
  N  N9  1  0.16787400  0.28918600  0.60035900  1
  N  N10  1  0.83653800  0.71185500  0.40261800  1
  N  N11  1  0.87864200  0.14168000  0.58221300  1
  N  N12  1  0.11444400  0.82760100  0.42691100  1
  N  N13  1  0.95233600  0.28854700  0.61690400  1
  N  N14  1  0.96209100  0.74240400  0.36427400  1
  N  N15  1  0.77820100  0.55945700  0.92072000  1
  N  N16  1  0.22825700  0.45660900  0.08110600  1
  N  N17  1  0.75876600  0.62224700  0.72318800  1
  N  N18  1  0.21038700  0.40003100  0.32616800  1
  N  N19  1  0.92783600  0.58642900  0.80638100  1
  N  N20  1  0.07171600  0.39928000  0.18464000  1
  O  O1  1  0.43530600  0.40271600  0.46223900  1
  O  O2  1  0.56342000  0.59559800  0.53368700  1
  O  O3  1  0.44055500  0.47769000  0.53788100  1
  O  O4  1  0.55815600  0.52062000  0.45801800  1
  O  O5  1  0.56130100  0.46393300  0.52379800  1
  O  O6  1  0.43743000  0.53437000  0.47204900  1
  O  O7  1  0.55967400  0.53557200  0.59610000  1
  O  O8  1  0.43902900  0.46272400  0.39974700  1
  O  O9  1  0.96525800  0.40286800  0.93967200  1
  O  O10  1  0.03307700  0.59783300  0.05917200  1
  O  O11  1  0.03399500  0.47653500  0.93674600  1
  O  O12  1  0.96435300  0.52416600  0.06210700  1
  O  O13  1  0.90174900  0.46199300  0.93643300  1
  O  O14  1  0.09659000  0.53870900  0.06241600  1
  O  O15  1  0.97391700  0.53894200  0.94021600  1
  O  O16  1  0.02443200  0.46175100  0.05862900  1
  O  O17  1  0.96054300  0.93604200  0.40215200  1
  O  O18  1  0.03886200  0.06492100  0.59728700  1
  O  O19  1  0.03898300  0.94247300  0.47520300  1
  O  O20  1  0.96040700  0.05845900  0.52422700  1
  O  O21  1  0.02162400  0.05868600  0.45981500  1
  O  O22  1  0.97778300  0.94226900  0.53963200  1
  O  O23  1  0.09674000  0.06497000  0.53626800  1
  O  O24  1  0.90266000  0.93595800  0.46316500  1
  O  O25  1  0.68826400  0.33532400  0.70344700  1
  O  O26  1  0.22810100  0.62799500  0.23667500  1
  O  O27  1  0.25490200  0.25035600  0.35998800  1
  O  O28  1  0.74100800  0.75226700  0.63784800  1
  O  O29  1  0.26089200  0.40874900  0.58967300  1
  O  O30  1  0.74551000  0.59268100  0.41518500  1
  O  O31  1  0.09923400  0.21945100  0.45501200  1
  O  O32  1  0.86291400  0.68913900  0.50009500  1
  O  O33  1  0.26327600  0.30807600  0.62893800  1
  O  O34  1  0.74018000  0.69061700  0.37134600  1
  O  O35  1  0.85965500  0.18892200  0.65332300  1
  O  O36  1  0.13236900  0.81840200  0.34981600  1
  O  O37  1  0.01713200  0.25303600  0.62916700  1
  O  O38  1  0.02350300  0.70307000  0.36866100  1
  O  O39  1  0.82263300  0.61920000  0.88942200  1
  O  O40  1  0.18673900  0.38951500  0.10707500  1
  O  O41  1  0.82974200  0.60871900  0.70483500  1
  O  O42  1  0.21721100  0.36838300  0.24173800  1
  O  O43  1  0.86061200  0.49328600  0.72527500  1
  O  O44  1  0.13208900  0.49281700  0.26642400  1
