# generated using pymatgen
data_ZnH25C43N3(ClO2)2
_symmetry_space_group_name_H-M   'P 1'
_cell_length_a   13.69917300
_cell_length_b   15.88435500
_cell_length_c   17.02752500
_cell_angle_alpha   90.00000000
_cell_angle_beta   98.99391300
_cell_angle_gamma   90.00000000
_symmetry_Int_Tables_number   1
_chemical_formula_structural   ZnH25C43N3(ClO2)2
_chemical_formula_sum   'Zn2 H50 C86 N6 Cl4 O8'
_cell_volume   3659.67646849
_cell_formula_units_Z   2
loop_
 _symmetry_equiv_pos_site_id
 _symmetry_equiv_pos_as_xyz
  1  'x, y, z'
loop_
 _atom_site_type_symbol
 _atom_site_label
 _atom_site_symmetry_multiplicity
 _atom_site_fract_x
 _atom_site_fract_y
 _atom_site_fract_z
 _atom_site_occupancy
  Zn  Zn1  1  0.11017100  0.49846800  0.49931700  1
  Zn  Zn2  1  0.88982900  0.49846800  0.50068100  1
  H  H1  1  0.18042500  0.91583300  0.78309000  1
  H  H2  1  0.81950600  0.08260100  0.21620500  1
  H  H3  1  0.81957600  0.91583300  0.21690800  1
  H  H4  1  0.18049400  0.08260100  0.78379300  1
  H  H5  1  0.01673900  0.32362700  0.92740400  1
  H  H6  1  0.98582000  0.67368300  0.07268300  1
  H  H7  1  0.98326100  0.32362700  0.07259200  1
  H  H8  1  0.01418100  0.67368200  0.92731600  1
  H  H9  1  0.03735400  0.99875400  0.08152000  1
  H  H10  1  0.96264600  0.99875300  0.91847700  1
  H  H11  1  0.95702800  0.86420900  0.72090300  1
  H  H12  1  0.05843200  0.13999800  0.27263900  1
  H  H13  1  0.04297200  0.86420900  0.27909600  1
  H  H14  1  0.94156700  0.13999800  0.72735800  1
  H  H15  1  0.13841500  0.59663900  0.75478400  1
  H  H16  1  0.85171900  0.39437200  0.24898500  1
  H  H17  1  0.86158500  0.59663900  0.24521400  1
  H  H18  1  0.14828100  0.39437100  0.75101200  1
  H  H19  1  0.15188400  0.69663400  0.86554300  1
  H  H20  1  0.84066800  0.29562700  0.13697500  1
  H  H21  1  0.84811600  0.69663400  0.13445500  1
  H  H22  1  0.15933100  0.29562600  0.86302200  1
  H  H23  1  0.94060600  0.23374300  0.61434700  1
  H  H24  1  0.04011500  0.76972400  0.39246200  1
  H  H25  1  0.05939300  0.23374300  0.38565100  1
  H  H26  1  0.95988400  0.76972400  0.60753600  1
  H  H27  1  0.58391300  0.70971900  0.50384600  1
  H  H28  1  0.41496400  0.28784400  0.49181500  1
  H  H29  1  0.41608700  0.70971900  0.49615200  1
  H  H30  1  0.58503400  0.28784400  0.50818000  1
  H  H31  1  0.45210000  0.65380800  0.41302400  1
  H  H32  1  0.54717100  0.34795300  0.58699600  1
  H  H33  1  0.54790000  0.65380700  0.58697400  1
  H  H34  1  0.45282800  0.34795400  0.41299900  1
  H  H35  1  0.75145500  0.64955200  0.64726600  1
  H  H36  1  0.76762500  0.80197800  0.66679400  1
  H  H37  1  0.77656200  0.83449500  0.41995500  1
  H  H38  1  0.74693400  0.68366100  0.39867700  1
  H  H39  1  0.31359600  0.36948800  0.65122700  1
  H  H40  1  0.28307900  0.22631400  0.69582300  1
  H  H41  1  0.18937200  0.15260900  0.45601400  1
  H  H42  1  0.21686500  0.29729200  0.41150700  1
  H  H43  1  0.24854500  0.64955400  0.35273300  1
  H  H44  1  0.23237400  0.80197900  0.33320500  1
  H  H45  1  0.22343800  0.83449400  0.58004500  1
  H  H46  1  0.25306600  0.68366000  0.60132100  1
  H  H47  1  0.68640500  0.36948700  0.34877000  1
  H  H48  1  0.71692200  0.22631300  0.30417500  1
  H  H49  1  0.81062600  0.15260900  0.54398500  1
  H  H50  1  0.78313300  0.29729200  0.58849100  1
  C  C1  1  0.00902200  0.26746300  0.96150500  1
  C  C2  1  0.99185100  0.73016800  0.03870100  1
  C  C3  1  0.99097800  0.26746300  0.03849200  1
  C  C4  1  0.00815000  0.73016800  0.96129700  1
  C  C5  1  0.98254200  0.18407100  0.05965700  1
  C  C6  1  0.01676200  0.81350100  0.93989200  1
  C  C7  1  0.01745800  0.18407000  0.94034000  1
  C  C8  1  0.98323900  0.81350100  0.06010600  1
  C  C9  1  0.95824900  0.15621900  0.12835400  1
  C  C10  1  0.04107400  0.84140400  0.87080700  1
  C  C11  1  0.04175100  0.15621900  0.87164300  1
  C  C12  1  0.95892600  0.84140400  0.12919000  1
  C  C13  1  0.93542900  0.06702300  0.14093600  1
  C  C14  1  0.06445000  0.93070900  0.85875800  1
  C  C15  1  0.06457100  0.06702300  0.85906200  1
  C  C16  1  0.93555000  0.93070900  0.14124000  1
  C  C17  1  0.86594200  0.04225500  0.18669900  1
  C  C18  1  0.13408000  0.95580400  0.81310900  1
  C  C19  1  0.13405800  0.04225500  0.81329900  1
  C  C20  1  0.86592000  0.95580500  0.18688900  1
  C  C21  1  0.99758200  0.80568300  0.72925800  1
  C  C22  1  0.01261600  0.19575100  0.26670300  1
  C  C23  1  0.00241800  0.80568300  0.27074000  1
  C  C24  1  0.98738400  0.19575100  0.73329400  1
  C  C25  1  0.99622300  0.75181100  0.66577500  1
  C  C26  1  0.01573400  0.24965900  0.33003800  1
  C  C27  1  0.00377700  0.75181200  0.33422300  1
  C  C28  1  0.98426500  0.24965900  0.66995900  1
  C  C29  1  0.03971900  0.67411900  0.67619400  1
  C  C30  1  0.96223800  0.32300600  0.32318500  1
  C  C31  1  0.96028100  0.67411900  0.32380400  1
  C  C32  1  0.03776200  0.32300500  0.67681200  1
  C  C33  1  0.09893300  0.65574800  0.74735400  1
  C  C34  1  0.89679900  0.33818500  0.25431600  1
  C  C35  1  0.90106700  0.65574900  0.25264400  1
  C  C36  1  0.10320100  0.33818400  0.74568100  1
  C  C37  1  0.10493600  0.71163300  0.81023800  1
  C  C38  1  0.89153200  0.28297400  0.19087700  1
  C  C39  1  0.89506400  0.71163300  0.18976000  1
  C  C40  1  0.10846700  0.28297400  0.80912000  1
  C  C41  1  0.04762800  0.78401800  0.80332300  1
  C  C42  1  0.95381500  0.21377700  0.19551300  1
  C  C43  1  0.95237200  0.78401800  0.19667500  1
  C  C44  1  0.04618500  0.21377700  0.80448400  1
  C  C45  1  0.02463500  0.61279300  0.61136300  1
  C  C46  1  0.97618300  0.38408200  0.38846700  1
  C  C47  1  0.97536500  0.61279400  0.38863500  1
  C  C48  1  0.02381700  0.38408200  0.61153000  1
  C  C49  1  0.70578300  0.42533100  0.49618900  1
  C  C50  1  0.29067700  0.57216500  0.49152300  1
  C  C51  1  0.29421600  0.42533100  0.50380800  1
  C  C52  1  0.70932300  0.57216500  0.50847500  1
  C  C53  1  0.60636400  0.57279400  0.50561000  1
  C  C54  1  0.39451700  0.42565800  0.49639400  1
  C  C55  1  0.39363600  0.57279400  0.49438800  1
  C  C56  1  0.60548300  0.42565800  0.50360200  1
  C  C57  1  0.55417400  0.49939700  0.50093000  1
  C  C58  1  0.44582500  0.49939700  0.49906700  1
  C  C59  1  0.55159300  0.65075100  0.52241900  1
  C  C60  1  0.44839200  0.34788800  0.47748300  1
  C  C61  1  0.44840600  0.65075100  0.47757900  1
  C  C62  1  0.55160700  0.34788800  0.52251200  1
  C  C63  1  0.75648500  0.65486200  0.52250200  1
  C  C64  1  0.76169400  0.68941400  0.59774300  1
  C  C65  1  0.76788900  0.77540100  0.60839500  1
  C  C66  1  0.77555300  0.82740700  0.54493400  1
  C  C67  1  0.77363500  0.79353000  0.47022700  1
  C  C68  1  0.76069600  0.70804200  0.45863600  1
  C  C69  1  0.25789500  0.34467000  0.52905500  1
  C  C70  1  0.28171800  0.32291900  0.60846700  1
  C  C71  1  0.26576200  0.24230800  0.63349700  1
  C  C72  1  0.23047300  0.18159000  0.57875700  1
  C  C73  1  0.21225200  0.20149500  0.49912400  1
  C  C74  1  0.22543000  0.28295000  0.47423600  1
  C  C75  1  0.24351400  0.65486200  0.47749600  1
  C  C76  1  0.23830500  0.68941400  0.40225600  1
  C  C77  1  0.23211000  0.77540200  0.39160400  1
  C  C78  1  0.22444600  0.82740800  0.45506600  1
  C  C79  1  0.22636500  0.79353000  0.52977200  1
  C  C80  1  0.23930400  0.70804100  0.54136300  1
  C  C81  1  0.74210500  0.34467000  0.47094300  1
  C  C82  1  0.71828200  0.32291800  0.39153100  1
  C  C83  1  0.73423800  0.24230800  0.36650100  1
  C  C84  1  0.76952600  0.18158900  0.42124100  1
  C  C85  1  0.78774700  0.20149500  0.50087400  1
  C  C86  1  0.77456900  0.28295000  0.52576200  1
  N  N1  1  0.00000000  0.13326600  0.99999900  1
  N  N2  1  0.00000000  0.86427900  0.99999900  1
  N  N3  1  0.97829100  0.99881000  0.11334400  1
  N  N4  1  0.02170900  0.99881000  0.88665300  1
  N  N5  1  0.76053500  0.49856800  0.50101000  1
  N  N6  1  0.23946500  0.49856800  0.49898800  1
  Cl  Cl1  1  0.78606300  0.93633300  0.55929300  1
  Cl  Cl2  1  0.21343100  0.07835800  0.60987200  1
  Cl  Cl3  1  0.21393600  0.93633400  0.44070700  1
  Cl  Cl4  1  0.78656800  0.07835800  0.39012600  1
  O  O1  1  0.93436700  0.58421200  0.58670300  1
  O  O2  1  0.06647700  0.41148100  0.41436300  1
  O  O3  1  0.06563300  0.58421200  0.41329500  1
  O  O4  1  0.93352300  0.41148100  0.58563400  1
  O  O5  1  0.10283800  0.58776900  0.58224000  1
  O  O6  1  0.89755300  0.41045300  0.41651600  1
  O  O7  1  0.89716100  0.58776900  0.41775800  1
  O  O8  1  0.10244600  0.41045300  0.58348100  1
