# generated using pymatgen
data_ZnH15C21NO4
_symmetry_space_group_name_H-M   'P 1'
_cell_length_a   15.99097500
_cell_length_b   16.13170600
_cell_length_c   14.98216000
_cell_angle_alpha   90.00835200
_cell_angle_beta   89.98981900
_cell_angle_gamma   89.99430500
_symmetry_Int_Tables_number   1
_chemical_formula_structural   ZnH15C21NO4
_chemical_formula_sum   'Zn2 H30 C42 N2 O8'
_cell_volume   3864.82345226
_cell_formula_units_Z   2
loop_
 _symmetry_equiv_pos_site_id
 _symmetry_equiv_pos_as_xyz
  1  'x, y, z'
loop_
 _atom_site_type_symbol
 _atom_site_label
 _atom_site_symmetry_multiplicity
 _atom_site_fract_x
 _atom_site_fract_y
 _atom_site_fract_z
 _atom_site_occupancy
  Zn  Zn1  1  0.50029000  0.49986800  0.60168400  1
  Zn  Zn2  1  0.50017200  0.49967900  0.39831700  1
  H  H1  1  0.05252000  0.37742500  0.42364000  1
  H  H2  1  0.94794200  0.62212400  0.57636200  1
  H  H3  1  0.94797700  0.37714600  0.57581100  1
  H  H4  1  0.05248400  0.62240300  0.42419000  1
  H  H5  1  0.94821900  0.50004600  0.34765200  1
  H  H6  1  0.05224300  0.49950200  0.65235000  1
  H  H7  1  0.50095100  0.07590100  0.64226800  1
  H  H8  1  0.49951100  0.92364600  0.35773400  1
  H  H9  1  0.50094900  0.92339200  0.64208300  1
  H  H10  1  0.49951400  0.07615400  0.35791900  1
  H  H11  1  0.40841300  0.40873300  0.91266300  1
  H  H12  1  0.59205200  0.59081000  0.08733800  1
  H  H13  1  0.34886800  0.42878600  0.14146100  1
  H  H14  1  0.42866000  0.34970900  0.14143200  1
  H  H15  1  0.37296900  0.29362800  0.99957600  1
  H  H16  1  0.29230300  0.37357000  0.99960700  1
  H  H17  1  0.24050900  0.32158800  0.14489800  1
  H  H18  1  0.32055000  0.24226200  0.14486200  1
  H  H19  1  0.18298500  0.26465200  0.00356100  1
  H  H20  1  0.18513100  0.18735200  0.09090700  1
  H  H21  1  0.26311200  0.18523300  0.00353400  1
  H  H22  1  0.57180200  0.64983700  0.85857100  1
  H  H23  1  0.65159400  0.57076000  0.85853900  1
  H  H24  1  0.70816300  0.62597300  0.00039200  1
  H  H25  1  0.62749600  0.70591600  0.00042800  1
  H  H26  1  0.67991200  0.75728500  0.85514200  1
  H  H27  1  0.75995200  0.67796000  0.85510100  1
  H  H28  1  0.73735300  0.81430800  0.99647200  1
  H  H29  1  0.81533000  0.81219600  0.90909500  1
  H  H30  1  0.81748200  0.73489100  0.99643500  1
  C  C1  1  0.50023600  0.33779700  0.50018700  1
  C  C2  1  0.50022600  0.66174900  0.49981500  1
  C  C3  1  0.33682900  0.49978000  0.50013900  1
  C  C4  1  0.66363300  0.49976700  0.49986200  1
  C  C5  1  0.97295800  0.43275100  0.54143900  1
  C  C6  1  0.02750400  0.56679800  0.45856300  1
  C  C7  1  0.02752300  0.43290300  0.45826200  1
  C  C8  1  0.97293800  0.56664500  0.54173900  1
  C  C9  1  0.24710700  0.49978100  0.50018900  1
  C  C10  1  0.75335500  0.49976700  0.49981300  1
  C  C11  1  0.02737300  0.49962500  0.58326800  1
  C  C12  1  0.97308800  0.49992300  0.41673300  1
  C  C13  1  0.08031000  0.49977800  0.50009100  1
  C  C14  1  0.92015200  0.49977100  0.49991100  1
  C  C15  1  0.17176600  0.49978000  0.50016900  1
  C  C16  1  0.82869600  0.49976800  0.49983300  1
  C  C17  1  0.50063300  0.95696700  0.57965300  1
  C  C18  1  0.49982900  0.04258000  0.42034800  1
  C  C19  1  0.50023000  0.91431000  0.49989700  1
  C  C20  1  0.50023300  0.08523600  0.50010400  1
  C  C21  1  0.49982800  0.95710700  0.42024400  1
  C  C22  1  0.50063500  0.04244000  0.57975700  1
  C  C23  1  0.50022800  0.82537600  0.49980200  1
  C  C24  1  0.50023500  0.17417100  0.50020000  1
  C  C25  1  0.50023600  0.24885900  0.50023100  1
  C  C26  1  0.50022700  0.75068700  0.49977000  1
  C  C27  1  0.44791400  0.44789900  0.95292900  1
  C  C28  1  0.55255000  0.55164600  0.04707200  1
  C  C29  1  0.50119600  0.50073000  0.90826400  1
  C  C30  1  0.49926700  0.49881600  0.09173700  1
  C  C31  1  0.55413900  0.55322400  0.95449300  1
  C  C32  1  0.44632400  0.44632200  0.04550900  1
  C  C33  1  0.50078400  0.50032700  0.81239700  1
  C  C34  1  0.49967800  0.49921900  0.18760400  1
  C  C35  1  0.38968200  0.39015800  0.09837500  1
  C  C36  1  0.33390300  0.33485400  0.04170100  1
  C  C37  1  0.28005100  0.28145400  0.10210000  1
  C  C38  1  0.22420800  0.22609200  0.04620200  1
  C  C39  1  0.61078100  0.60938700  0.90162600  1
  C  C40  1  0.66656100  0.66469000  0.95830000  1
  C  C41  1  0.72041200  0.71809200  0.89790200  1
  C  C42  1  0.77625600  0.77345200  0.95380000  1
  N  N1  1  0.49999800  0.49953100  0.26482700  1
  N  N2  1  0.50046400  0.50001500  0.73517400  1
  O  O1  1  0.50030200  0.37633100  0.57730800  1
  O  O2  1  0.50016000  0.62321600  0.42269400  1
  O  O3  1  0.50016800  0.37620400  0.42300800  1
  O  O4  1  0.50029400  0.62334200  0.57699300  1
  O  O5  1  0.37568100  0.49984200  0.57725900  1
  O  O6  1  0.62478100  0.49970400  0.42274200  1
  O  O7  1  0.37559500  0.49971500  0.42296100  1
  O  O8  1  0.62486700  0.49983100  0.57704100  1
