# generated using pymatgen
data_FeH20C43S4NO10
_symmetry_space_group_name_H-M   'P 1'
_cell_length_a   24.81604100
_cell_length_b   20.98109400
_cell_length_c   20.67306100
_cell_angle_alpha   90.24607200
_cell_angle_beta   111.26886300
_cell_angle_gamma   116.93288400
_symmetry_Int_Tables_number   1
_chemical_formula_structural   FeH20C43S4NO10
_chemical_formula_sum   'Fe2 H40 C86 S8 N2 O20'
_cell_volume   8756.63612870
_cell_formula_units_Z   2
loop_
 _symmetry_equiv_pos_site_id
 _symmetry_equiv_pos_as_xyz
  1  'x, y, z'
loop_
 _atom_site_type_symbol
 _atom_site_label
 _atom_site_symmetry_multiplicity
 _atom_site_fract_x
 _atom_site_fract_y
 _atom_site_fract_z
 _atom_site_occupancy
  Fe  Fe1  1  0.48182500  0.98329300  0.12271200  1
  Fe  Fe2  1  0.50247900  0.00750400  0.86281200  1
  H  H1  1  0.25539600  0.94955900  0.75897600  1
  H  H2  1  0.16723100  0.93983300  0.79114500  1
  H  H3  1  0.98043400  0.79603100  0.84810900  1
  H  H4  1  0.69003100  0.98985400  0.97177800  1
  H  H5  1  0.76541700  0.81777600  0.95733600  1
  H  H6  1  0.84205700  0.80332700  0.92707000  1
  H  H7  1  0.90103500  0.80457600  0.87782400  1
  H  H8  1  0.28173600  0.95140200  0.00622200  1
  H  H9  1  0.21473900  0.11889000  0.05511400  1
  H  H10  1  0.06623500  0.15284200  0.08940200  1
  H  H11  1  0.72102500  0.03651100  0.21891500  1
  H  H12  1  0.98689900  0.16210500  0.11837000  1
  H  H13  1  0.80653800  0.03045000  0.19275400  1
  H  H14  1  0.13895500  0.13153100  0.08838000  1
  H  H15  1  0.51302000  0.50044100  0.39032400  1
  H  H16  1  0.42612000  0.20849500  0.40427300  1
  H  H17  1  0.59884000  0.30511000  0.65199700  1
  H  H18  1  0.42925200  0.70012000  0.57057500  1
  H  H19  1  0.56961700  0.79600100  0.41595000  1
  H  H20  1  0.56969900  0.22560400  0.22050400  1
  H  H21  1  0.57436100  0.32757000  0.29282800  1
  H  H22  1  0.41360700  0.61881300  0.20361600  1
  H  H23  1  0.65923500  0.94995800  0.80327100  1
  H  H24  1  0.65622600  0.85162000  0.72894600  1
  H  H25  1  0.45815600  0.31840000  0.75985100  1
  H  H26  1  0.45438600  0.23086000  0.84508700  1
  H  H27  1  0.60016800  0.72713300  0.50776800  1
  H  H28  1  0.42725000  0.59436300  0.50686500  1
  H  H29  1  0.60572900  0.39499000  0.56949500  1
  H  H30  1  0.43560700  0.30994900  0.48140200  1
  H  H31  1  0.51670800  0.59915400  0.69687700  1
  H  H32  1  0.46388300  0.50769500  0.64359000  1
  H  H33  1  0.51734700  0.52309100  0.73600500  1
  H  H34  1  0.58881900  0.51836900  0.69460100  1
  H  H35  1  0.61086500  0.60720400  0.68817100  1
  H  H36  1  0.37044500  0.57980400  0.08061500  1
  H  H37  1  0.30691600  0.58192100  0.10385300  1
  H  H38  1  0.30093600  0.58264200  0.01442800  1
  H  H39  1  0.33712400  0.70443200  0.07087700  1
  H  H40  1  0.40383900  0.70278200  0.05573200  1
  C  C1  1  0.10758400  0.89379500  0.89432100  1
  C  C2  1  0.18951700  0.00827400  0.96602800  1
  C  C3  1  0.27538300  0.94877200  0.95153000  1
  C  C4  1  0.32708400  0.95781100  0.93479600  1
  C  C5  1  0.26169700  0.94930000  0.81348800  1
  C  C6  1  0.21125300  0.94272100  0.83132600  1
  C  C7  1  0.21841700  0.94380800  0.90069100  1
  C  C8  1  0.07934900  0.95999500  0.95877500  1
  C  C9  1  0.06120200  0.89906400  0.91292100  1
  C  C10  1  0.99656400  0.84398100  0.88521800  1
  C  C11  1  0.14421300  0.01470200  0.98550700  1
  C  C12  1  0.32036900  0.95805600  0.86479300  1
  C  C13  1  0.65541000  0.01647500  0.10981600  1
  C  C14  1  0.92271600  0.91511200  0.97262400  1
  C  C15  1  0.00483400  0.03808600  0.03653500  1
  C  C16  1  0.94082300  0.98005400  0.01339700  1
  C  C17  1  0.85913300  0.85692300  0.95443200  1
  C  C18  1  0.81419000  0.86436800  0.97297300  1
  C  C19  1  0.83126000  0.92973200  0.01038800  1
  C  C20  1  0.89443900  0.98713900  0.03100900  1
  C  C21  1  0.91058900  0.05179200  0.06923900  1
  C  C22  1  0.86379500  0.05843000  0.08567500  1
  C  C23  1  0.78548600  0.93757700  0.02785800  1
  C  C24  1  0.69695300  0.00062500  0.02620500  1
  C  C25  1  0.64827400  0.00478000  0.04020000  1
  C  C26  1  0.71352000  0.02712400  0.16416100  1
  C  C27  1  0.76237100  0.02389000  0.14962800  1
  C  C28  1  0.75372100  0.00935600  0.08046000  1
  C  C29  1  0.96834100  0.90967900  0.95138700  1
  C  C30  1  0.03316300  0.96644500  0.97733300  1
  C  C31  1  0.05221200  0.02975200  0.02150000  1
  C  C32  1  0.95071000  0.84907800  0.90393000  1
  C  C33  1  0.16380700  0.07577700  0.03186300  1
  C  C34  1  0.01954900  0.10365800  0.07348800  1
  C  C35  1  0.97309200  0.11014600  0.08966300  1
  C  C36  1  0.11871000  0.08320800  0.04997600  1
  C  C37  1  0.60164500  0.01188400  0.12806300  1
  C  C38  1  0.45065100  0.84815500  0.15281800  1
  C  C39  1  0.39004200  0.97657500  0.99408500  1
  C  C40  1  0.48159000  0.08015800  0.21290900  1
  C  C41  1  0.54312600  0.94637700  0.79002200  1
  C  C42  1  0.58870100  0.99133900  0.97941300  1
  C  C43  1  0.51091700  0.14235100  0.84490300  1
  C  C44  1  0.37480200  0.97114400  0.84405800  1
  C  C45  1  0.52534900  0.62423300  0.43232500  1
  C  C46  1  0.56139500  0.69925300  0.45577300  1
  C  C47  1  0.47167900  0.63772500  0.54785600  1
  C  C48  1  0.53210800  0.63961400  0.57316700  1
  C  C49  1  0.54034800  0.58526200  0.54655700  1
  C  C50  1  0.52888600  0.57335200  0.47519400  1
  C  C51  1  0.54450500  0.53283500  0.58669100  1
  C  C52  1  0.53213000  0.46593300  0.55400200  1
  C  C53  1  0.52126000  0.45499800  0.48251600  1
  C  C54  1  0.52159100  0.50950300  0.44528600  1
  C  C55  1  0.53474500  0.41298600  0.59393000  1
  C  C56  1  0.57338900  0.38107600  0.59688300  1
  C  C57  1  0.46310700  0.32057600  0.44879300  1
  C  C58  1  0.50615400  0.38958400  0.44438100  1
  C  C59  1  0.45681900  0.26538500  0.40564400  1
  C  C60  1  0.49458500  0.29059400  0.36682600  1
  C  C61  1  0.52848100  0.32666400  0.67435700  1
  C  C62  1  0.56967600  0.33253500  0.64168800  1
  C  C63  1  0.47289300  0.69460100  0.58257400  1
  C  C64  1  0.53496800  0.74252900  0.63343200  1
  C  C65  1  0.49916300  0.69263200  0.34004200  1
  C  C66  1  0.54594800  0.73713400  0.40488700  1
  C  C67  1  0.49978400  0.24498200  0.32340300  1
  C  C68  1  0.52111200  0.28631100  0.72632700  1
  C  C69  1  0.54829400  0.80246400  0.67737100  1
  C  C70  1  0.47499500  0.71963400  0.28167200  1
  C  C71  1  0.49609700  0.14711000  0.25389400  1
  C  C72  1  0.54036000  0.21563900  0.25102600  1
  C  C73  1  0.54222400  0.27061400  0.28964400  1
  C  C74  1  0.43206200  0.67687000  0.21486500  1
  C  C75  1  0.41812600  0.71677100  0.16453400  1
  C  C76  1  0.44970600  0.79068700  0.19310400  1
  C  C77  1  0.55187600  0.89766200  0.74962500  1
  C  C78  1  0.61370500  0.90654500  0.76356200  1
  C  C79  1  0.61178200  0.85281200  0.72362100  1
  C  C80  1  0.48357700  0.28697000  0.76627000  1
  C  C81  1  0.48236100  0.24065900  0.81304600  1
  C  C82  1  0.51635700  0.20433300  0.81103800  1
  C  C83  1  0.56789500  0.55181700  0.66621400  1
  C  C84  1  0.51278100  0.54502700  0.68674400  1
  C  C85  1  0.37375800  0.68473800  0.08737700  1
  C  C86  1  0.33583200  0.60189400  0.07112200  1
  S  S1  1  0.53792500  0.38812000  0.37926200  1
  S  S2  1  0.48711400  0.37892100  0.64607000  1
  S  S3  1  0.59742100  0.71892200  0.64031100  1
  S  S4  1  0.47392700  0.59764700  0.33870600  1
  S  S5  1  0.45322300  0.14717900  0.30732600  1
  S  S6  1  0.49813400  0.81429900  0.28661000  1
  S  S7  1  0.48521800  0.82010200  0.68198500  1
  S  S8  1  0.55586900  0.22720200  0.75056500  1
  N  N1  1  0.17086000  0.94813900  0.92115600  1
  N  N2  1  0.80215800  0.00157800  0.06476700  1
  O  O1  1  0.08986000  0.83387100  0.85015600  1
  O  O2  1  0.72426200  0.88077500  0.00892200  1
  O  O3  1  0.25217000  0.06336000  0.99024400  1
  O  O4  1  0.87921900  0.12236100  0.12112300  1
  O  O5  1  0.54585100  0.00376000  0.07964400  1
  O  O6  1  0.44256300  0.83920700  0.08647200  1
  O  O7  1  0.60742000  0.01007100  0.19358800  1
  O  O8  1  0.46858200  0.91259500  0.18617200  1
  O  O9  1  0.39124900  0.93712400  0.04318900  1
  O  O10  1  0.44329200  0.03832100  0.00350700  1
  O  O11  1  0.51922900  0.08196600  0.18098200  1
  O  O12  1  0.42938900  0.01846900  0.20609900  1
  O  O13  1  0.48581100  0.92725800  0.79257200  1
  O  O14  1  0.59495900  0.00836900  0.82910200  1
  O  O15  1  0.58150200  0.04634400  0.95615900  1
  O  O16  1  0.54715700  0.92480500  0.94188800  1
  O  O17  1  0.37725900  0.99897300  0.78782300  1
  O  O18  1  0.52321000  0.09520100  0.82008000  1
  O  O19  1  0.42296600  0.95931000  0.88373400  1
  O  O20  1  0.48842500  0.13035800  0.89458200  1
