# generated using pymatgen
data_CuH9C21NO8
_symmetry_space_group_name_H-M   'P 1'
_cell_length_a   15.98051800
_cell_length_b   12.97937300
_cell_length_c   11.54346800
_cell_angle_alpha   99.70256000
_cell_angle_beta   94.25518500
_cell_angle_gamma   89.99622200
_symmetry_Int_Tables_number   1
_chemical_formula_structural   CuH9C21NO8
_chemical_formula_sum   'Cu2 H18 C42 N2 O16'
_cell_volume   2353.37028058
_cell_formula_units_Z   2
loop_
 _symmetry_equiv_pos_site_id
 _symmetry_equiv_pos_as_xyz
  1  'x, y, z'
loop_
 _atom_site_type_symbol
 _atom_site_label
 _atom_site_symmetry_multiplicity
 _atom_site_fract_x
 _atom_site_fract_y
 _atom_site_fract_z
 _atom_site_occupancy
  Cu  Cu1  1  0.50644400  0.50767600  0.61730200  1
  Cu  Cu2  1  0.49355900  0.49227500  0.38258100  1
  H  H1  1  0.49625000  0.81480400  0.34735100  1
  H  H2  1  0.50356900  0.18507400  0.65248500  1
  H  H3  1  0.50601400  0.84244100  0.72294200  1
  H  H4  1  0.49378600  0.15749100  0.27688900  1
  H  H5  1  0.49364200  0.96807400  0.25899500  1
  H  H6  1  0.50609500  0.03181400  0.74083100  1
  H  H7  1  0.42152700  0.40883800  0.78753900  1
  H  H8  1  0.57860200  0.59157900  0.21238300  1
  H  H9  1  0.60727500  0.63882700  0.81559700  1
  H  H10  1  0.39300900  0.36136100  0.18430600  1
  H  H11  1  0.99975500  0.25654100  0.32410600  1
  H  H12  1  0.00026900  0.74344200  0.67572400  1
  H  H13  1  0.99728100  0.27725400  0.62677600  1
  H  H14  1  0.00275200  0.72270600  0.37303900  1
  H  H15  1  0.97597700  0.47924100  0.19690300  1
  H  H16  1  0.02405000  0.52071100  0.80292000  1
  H  H17  1  0.31698300  0.28922900  0.99937200  1
  H  H18  1  0.68338100  0.71080100  0.00092800  1
  C  C1  1  0.49900600  0.29944000  0.47783000  1
  C  C2  1  0.50094100  0.70051600  0.52204900  1
  C  C3  1  0.33944100  0.49976500  0.50073400  1
  C  C4  1  0.66057500  0.50012500  0.49914000  1
  C  C5  1  0.97471400  0.42035000  0.54520500  1
  C  C6  1  0.02529700  0.57962600  0.45463400  1
  C  C7  1  0.02422600  0.41288300  0.43713300  1
  C  C8  1  0.97578300  0.58709400  0.56270500  1
  C  C9  1  0.24964500  0.49977100  0.50086400  1
  C  C10  1  0.75036900  0.50013500  0.49900400  1
  C  C11  1  0.03296300  0.50738200  0.60849400  1
  C  C12  1  0.96704800  0.49259600  0.39134100  1
  C  C13  1  0.08249400  0.49991100  0.50042800  1
  C  C14  1  0.91751900  0.50006200  0.49941000  1
  C  C15  1  0.17422100  0.49981900  0.50079300  1
  C  C16  1  0.82579200  0.50011100  0.49906200  1
  C  C17  1  0.50118100  0.81489700  0.53370000  1
  C  C18  1  0.49870300  0.18503700  0.46614400  1
  C  C19  1  0.49581200  0.01564000  0.34560300  1
  C  C20  1  0.50395300  0.98427200  0.65421300  1
  C  C21  1  0.49589800  0.12306000  0.35599500  1
  C  C22  1  0.50391500  0.87686600  0.64383300  1
  C  C23  1  0.50135600  0.13819500  0.56556900  1
  C  C24  1  0.49846800  0.86171500  0.43425600  1
  C  C25  1  0.50126600  0.03062000  0.55486100  1
  C  C26  1  0.49851900  0.96929100  0.44495300  1
  C  C27  1  0.42544800  0.39821900  0.02031600  1
  C  C28  1  0.57471400  0.60209900  0.97961900  1
  C  C29  1  0.43041500  0.41108300  0.14159900  1
  C  C30  1  0.56982900  0.58915900  0.85831100  1
  C  C31  1  0.53362400  0.54108600  0.15599900  1
  C  C32  1  0.46655500  0.45924600  0.84393800  1
  C  C33  1  0.52707300  0.53677700  0.03452300  1
  C  C34  1  0.47308300  0.46355800  0.96541900  1
  C  C35  1  0.04815700  0.31240200  0.36467200  1
  C  C36  1  0.95186300  0.68757900  0.63516400  1
  C  C37  1  0.94956200  0.32847100  0.59748800  1
  C  C38  1  0.05046500  0.67149200  0.40235000  1
  C  C39  1  0.93312000  0.48407300  0.26609700  1
  C  C40  1  0.06690500  0.51590100  0.73372900  1
  C  C41  1  0.37039100  0.31282800  0.95690000  1
  C  C42  1  0.62974000  0.68749200  0.04312000  1
  N  N1  1  0.51635600  0.51904200  0.79282000  1
  N  N2  1  0.48388500  0.48118900  0.20709500  1
  O  O1  1  0.50189800  0.35511700  0.58386300  1
  O  O2  1  0.49814400  0.64482500  0.41609900  1
  O  O3  1  0.49661000  0.34176200  0.38219900  1
  O  O4  1  0.50333900  0.65817600  0.61760100  1
  O  O5  1  0.38395600  0.51012500  0.60197700  1
  O  O6  1  0.61604200  0.48978000  0.39797100  1
  O  O7  1  0.37289700  0.48960700  0.39933500  1
  O  O8  1  0.62709500  0.51038500  0.60046600  1
  O  O9  1  0.12167900  0.29269700  0.35073100  1
  O  O10  1  0.87834300  0.70728000  0.64911100  1
  O  O11  1  0.87580600  0.31062600  0.60756300  1
  O  O12  1  0.12422800  0.68933900  0.39232300  1
  O  O13  1  0.85762500  0.48252300  0.24104300  1
  O  O14  1  0.14240200  0.51749100  0.75877800  1
  O  O15  1  0.39003700  0.25841900  0.86649100  1
  O  O16  1  0.60992100  0.74209100  0.13332300  1
