# generated using pymatgen
data_ZnH5C11NO9
_symmetry_space_group_name_H-M   'P 1'
_cell_length_a   10.86108100
_cell_length_b   12.94941200
_cell_length_c   14.09872500
_cell_angle_alpha   88.91106700
_cell_angle_beta   90.01835400
_cell_angle_gamma   93.67242800
_symmetry_Int_Tables_number   1
_chemical_formula_structural   ZnH5C11NO9
_chemical_formula_sum   'Zn2 H10 C22 N2 O18'
_cell_volume   1978.47974996
_cell_formula_units_Z   2
loop_
 _symmetry_equiv_pos_site_id
 _symmetry_equiv_pos_as_xyz
  1  'x, y, z'
loop_
 _atom_site_type_symbol
 _atom_site_label
 _atom_site_symmetry_multiplicity
 _atom_site_fract_x
 _atom_site_fract_y
 _atom_site_fract_z
 _atom_site_occupancy
  Zn  Zn1  1  0.49022300  0.38246900  0.49336800  1
  Zn  Zn2  1  0.50977700  0.61753100  0.50663200  1
  H  H1  1  0.99805000  0.36055900  0.68094700  1
  H  H2  1  0.00195000  0.63944100  0.31905300  1
  H  H3  1  0.98114800  0.26159700  0.48240700  1
  H  H4  1  0.01885300  0.73840200  0.51759300  1
  H  H5  1  0.00033500  0.40170700  0.30147800  1
  H  H6  1  0.99966500  0.59829300  0.69852200  1
  H  H7  1  0.56623100  0.33749300  0.01766400  1
  H  H8  1  0.43376900  0.66250700  0.98233600  1
  H  H9  1  0.58729400  0.01758900  0.64611300  1
  H  H10  1  0.41270600  0.98241000  0.35388700  1
  C  C1  1  0.49848500  0.48390200  0.68502900  1
  C  C2  1  0.50151500  0.51609800  0.31497100  1
  C  C3  1  0.74053600  0.49888300  0.50016300  1
  C  C4  1  0.25946500  0.50111700  0.49983700  1
  C  C5  1  0.95405500  0.40464600  0.49310600  1
  C  C6  1  0.04594600  0.59535300  0.50689400  1
  C  C7  1  0.03702700  0.44502400  0.57180400  1
  C  C8  1  0.96297400  0.55497500  0.42819700  1
  C  C9  1  0.12252400  0.50152600  0.49996500  1
  C  C10  1  0.87747700  0.49847400  0.50003500  1
  C  C11  1  0.03791300  0.46115400  0.42127400  1
  C  C12  1  0.96208800  0.53884600  0.57872600  1
  C  C13  1  0.50273600  0.52511400  0.21336700  1
  C  C14  1  0.49726400  0.47488500  0.78663300  1
  C  C15  1  0.50546400  0.54216900  0.02623600  1
  C  C16  1  0.49453700  0.45783100  0.97376400  1
  C  C17  1  0.49608000  0.46718200  0.87194700  1
  C  C18  1  0.50392000  0.53281800  0.12805300  1
  C  C19  1  0.46179200  0.02783900  0.47485100  1
  C  C20  1  0.53820900  0.97216100  0.52514900  1
  C  C21  1  0.52954800  0.86114100  0.51965700  1
  C  C22  1  0.47045300  0.13885800  0.48034300  1
  N  N1  1  0.47747300  0.22816500  0.48483700  1
  N  N2  1  0.52252700  0.77183400  0.51516300  1
  O  O1  1  0.49142900  0.39861300  0.63602400  1
  O  O2  1  0.50857100  0.60138700  0.36397600  1
  O  O3  1  0.50629900  0.57694900  0.64614500  1
  O  O4  1  0.49370200  0.42305000  0.35385500  1
  O  O5  1  0.67594100  0.41001500  0.49506900  1
  O  O6  1  0.32406000  0.58998500  0.50493100  1
  O  O7  1  0.69080900  0.58833200  0.50522700  1
  O  O8  1  0.30919100  0.41166800  0.49477300  1
  O  O9  1  0.07545800  0.38625100  0.64891600  1
  O  O10  1  0.92454200  0.61374900  0.35108400  1
  O  O11  1  0.90721000  0.30230800  0.48568100  1
  O  O12  1  0.09279100  0.69769100  0.51432000  1
  O  O13  1  0.07731300  0.41976300  0.33675200  1
  O  O14  1  0.92268700  0.58023600  0.66324800  1
  O  O15  1  0.48171400  0.36196800  0.01660400  1
  O  O16  1  0.51828600  0.63803100  0.98339600  1
  O  O17  1  0.62524600  0.02046100  0.58219400  1
  O  O18  1  0.37475400  0.97953800  0.41780600  1
