# generated using pymatgen
data_ZnH11C18N3ClO4
_symmetry_space_group_name_H-M   'P 1'
_cell_length_a   11.15784300
_cell_length_b   15.91657900
_cell_length_c   17.10180600
_cell_angle_alpha   89.11953200
_cell_angle_beta   89.99653500
_cell_angle_gamma   92.80664100
_symmetry_Int_Tables_number   1
_chemical_formula_structural   ZnH11C18N3ClO4
_chemical_formula_sum   'Zn2 H22 C36 N6 Cl2 O8'
_cell_volume   3033.18754428
_cell_formula_units_Z   2
loop_
 _symmetry_equiv_pos_site_id
 _symmetry_equiv_pos_as_xyz
  1  'x, y, z'
loop_
 _atom_site_type_symbol
 _atom_site_label
 _atom_site_symmetry_multiplicity
 _atom_site_fract_x
 _atom_site_fract_y
 _atom_site_fract_z
 _atom_site_occupancy
  Zn  Zn1  1  0.50065200  0.40402300  0.50842500  1
  Zn  Zn2  1  0.51788400  0.59507300  0.51594100  1
  H  H1  1  0.12540500  0.62287200  0.48749700  1
  H  H2  1  0.10165100  0.44245400  0.55143700  1
  H  H3  1  0.90759100  0.61904900  0.53112900  1
  H  H4  1  0.48935400  0.38079700  0.25750100  1
  H  H5  1  0.49405500  0.38873700  0.11759800  1
  H  H6  1  0.50941000  0.34095000  0.89772500  1
  H  H7  1  0.51427600  0.34944700  0.75560200  1
  H  H8  1  0.50570900  0.64963600  0.26874800  1
  H  H9  1  0.52273100  0.61028200  0.90677500  1
  H  H10  1  0.51048400  0.65808500  0.12662900  1
  H  H11  1  0.52748600  0.61826100  0.76689500  1
  H  H12  1  0.61399200  0.26559100  0.59526800  1
  H  H13  1  0.60958100  0.11405800  0.59102300  1
  H  H14  1  0.67251400  0.87753600  0.61495700  1
  H  H15  1  0.66292500  0.72352100  0.60714200  1
  H  H16  1  0.36444000  0.27606100  0.41176400  1
  H  H17  1  0.39880400  0.88426700  0.43932300  1
  H  H18  1  0.35449200  0.12207900  0.40391600  1
  H  H19  1  0.39455400  0.73268400  0.43520100  1
  H  H20  1  0.95901700  0.21319800  0.48983500  1
  H  H21  1  0.02650500  0.36153900  0.28377200  1
  H  H22  1  0.95718100  0.48573000  0.35045500  1
  C  C1  1  0.51980100  0.49013100  0.66503900  1
  C  C2  1  0.74361700  0.49779300  0.50452700  1
  C  C3  1  0.49867100  0.50897000  0.35933100  1
  C  C4  1  0.27531400  0.50092000  0.52002000  1
  C  C5  1  0.07976400  0.56429700  0.50614200  1
  C  C6  1  0.14458200  0.49940100  0.52763100  1
  C  C7  1  0.94719200  0.56174900  0.51278600  1
  C  C8  1  0.87455400  0.49437400  0.49613300  1
  C  C9  1  0.52116700  0.48458700  0.75076900  1
  C  C10  1  0.52396200  0.55681300  0.79478200  1
  C  C11  1  0.52089500  0.55180000  0.87539200  1
  C  C12  1  0.51509500  0.47375200  0.91294500  1
  C  C13  1  0.51373300  0.40192300  0.86885800  1
  C  C14  1  0.51656500  0.40701100  0.78836200  1
  C  C15  1  0.49664200  0.44722700  0.14898600  1
  C  C16  1  0.49356600  0.44224000  0.22960000  1
  C  C17  1  0.50330500  0.52526700  0.11142700  1
  C  C18  1  0.49727000  0.51448700  0.27360100  1
  C  C19  1  0.50273600  0.59205800  0.23599800  1
  C  C20  1  0.50550500  0.59711900  0.15550400  1
  C  C21  1  0.45617500  0.76508400  0.47457700  1
  C  C22  1  0.45911200  0.85172500  0.47738100  1
  C  C23  1  0.53740400  0.89324700  0.52837100  1
  C  C24  1  0.61085400  0.84640100  0.57476300  1
  C  C25  1  0.60547800  0.75988800  0.57029100  1
  C  C26  1  0.55394900  0.14691600  0.55013000  1
  C  C27  1  0.55695500  0.23355200  0.55302800  1
  C  C28  1  0.48086800  0.10575300  0.49588500  1
  C  C29  1  0.41793100  0.23945300  0.45100300  1
  C  C30  1  0.41228600  0.15293600  0.44654400  1
  C  C31  1  0.91912600  0.41969300  0.45810000  1
  C  C32  1  0.91893800  0.34264900  0.49695900  1
  C  C33  1  0.95789900  0.27305500  0.45917400  1
  C  C34  1  0.99629500  0.27976100  0.38263400  1
  C  C35  1  0.99644300  0.35626600  0.34381600  1
  C  C36  1  0.95793600  0.42604100  0.38144000  1
  N  N1  1  0.50990600  0.46514800  0.99539400  1
  N  N2  1  0.50851100  0.53384800  0.02897800  1
  N  N3  1  0.52856500  0.72064600  0.52066000  1
  N  N4  1  0.54403700  0.98190500  0.53470600  1
  N  N5  1  0.47435900  0.01710900  0.48942600  1
  N  N6  1  0.49006200  0.27838000  0.50366900  1
  Cl  Cl1  1  0.87725200  0.33346400  0.59570000  1
  Cl  Cl2  1  0.04558600  0.19122500  0.33489700  1
  O  O1  1  0.51169100  0.42003300  0.62554600  1
  O  O2  1  0.52338600  0.56488800  0.63137200  1
  O  O3  1  0.68067100  0.42619200  0.50282100  1
  O  O4  1  0.69437400  0.57089600  0.50970700  1
  O  O5  1  0.49355500  0.43423700  0.39304900  1
  O  O6  1  0.50839000  0.57904200  0.39877500  1
  O  O7  1  0.32453000  0.42805600  0.51579000  1
  O  O8  1  0.33745800  0.57315900  0.52028100  1
