# generated using pymatgen
data_CuH10C20I2N5O4
_symmetry_space_group_name_H-M   'P 1'
_cell_length_a   15.55329500
_cell_length_b   16.99608500
_cell_length_c   19.25407700
_cell_angle_alpha   90.00619700
_cell_angle_beta   92.77910100
_cell_angle_gamma   96.36323500
_symmetry_Int_Tables_number   1
_chemical_formula_structural   CuH10C20I2N5O4
_chemical_formula_sum   'Cu2 H20 C40 I4 N10 O8'
_cell_volume   5052.33858377
_cell_formula_units_Z   2
loop_
 _symmetry_equiv_pos_site_id
 _symmetry_equiv_pos_as_xyz
  1  'x, y, z'
loop_
 _atom_site_type_symbol
 _atom_site_label
 _atom_site_symmetry_multiplicity
 _atom_site_fract_x
 _atom_site_fract_y
 _atom_site_fract_z
 _atom_site_occupancy
  Cu  Cu1  1  0.41359500  0.49722200  0.49629900  1
  Cu  Cu2  1  0.58618100  0.50265500  0.50399500  1
  H  H1  1  0.37773000  0.44045100  0.27836500  1
  H  H2  1  0.62211200  0.55919700  0.72197500  1
  H  H3  1  0.37523500  0.43759800  0.15258400  1
  H  H4  1  0.62452900  0.56204200  0.84774900  1
  H  H5  1  0.62370200  0.57424500  0.15805200  1
  H  H6  1  0.37586600  0.42573200  0.84219000  1
  H  H7  1  0.38054000  0.74226200  0.50411500  1
  H  H8  1  0.61926100  0.25763500  0.49615900  1
  H  H9  1  0.38746200  0.88329500  0.50259200  1
  H  H10  1  0.61234700  0.11659700  0.49771000  1
  H  H11  1  0.33517800  0.09953400  0.49679300  1
  H  H12  1  0.66465200  0.90033400  0.50363000  1
  H  H13  1  0.34271500  0.24361300  0.49530000  1
  H  H14  1  0.65708000  0.75624400  0.50510500  1
  H  H15  1  0.28734700  0.57733700  0.57121900  1
  H  H16  1  0.71242300  0.42203000  0.42950200  1
  H  H17  1  0.88975200  0.58037000  0.60580200  1
  H  H18  1  0.11009400  0.42033600  0.39401200  1
  H  H19  1  0.73255400  0.58435100  0.59556800  1
  H  H20  1  0.26725900  0.41617400  0.40429000  1
  C  C1  1  0.48754600  0.34786100  0.49622100  1
  C  C2  1  0.51222800  0.65201500  0.50409500  1
  C  C3  1  0.50176200  0.50563500  0.36667900  1
  C  C4  1  0.49800700  0.49422600  0.63361600  1
  C  C5  1  0.43197800  0.47031100  0.25227800  1
  C  C6  1  0.56780400  0.52940400  0.74803800  1
  C  C7  1  0.43084700  0.46833700  0.18064100  1
  C  C8  1  0.56889300  0.53138700  0.81966800  1
  C  C9  1  0.50006100  0.50461700  0.14590900  1
  C  C10  1  0.49960300  0.49521000  0.85437000  1
  C  C11  1  0.56957000  0.54377900  0.18380000  1
  C  C12  1  0.43006300  0.45611700  0.81646000  1
  C  C13  1  0.57124800  0.54585900  0.25545800  1
  C  C14  1  0.42842600  0.45402400  0.74480800  1
  C  C15  1  0.50235700  0.50775300  0.29041500  1
  C  C16  1  0.49738600  0.49205900  0.70987900  1
  C  C17  1  0.49984700  0.49759000  0.93063800  1
  C  C18  1  0.49978900  0.50225800  0.06963900  1
  C  C19  1  0.48154000  0.26114600  0.49563000  1
  C  C20  1  0.51824800  0.73873300  0.50470300  1
  C  C21  1  0.55619200  0.22381900  0.49618000  1
  C  C22  1  0.44360400  0.77607000  0.50412800  1
  C  C23  1  0.55184300  0.14239200  0.49715800  1
  C  C24  1  0.44796000  0.85749500  0.50317100  1
  C  C25  1  0.47199000  0.09711700  0.49756800  1
  C  C26  1  0.52782100  0.90277200  0.50280800  1
  C  C27  1  0.39759000  0.13449900  0.49653900  1
  C  C28  1  0.60222100  0.86538000  0.50385800  1
  C  C29  1  0.40204400  0.21599300  0.49563100  1
  C  C30  1  0.59775400  0.78388300  0.50474800  1
  C  C31  1  0.75228100  0.45891700  0.46693800  1
  C  C32  1  0.24751100  0.54072500  0.53357900  1
  C  C33  1  0.84034100  0.45429200  0.47129600  1
  C  C34  1  0.15946700  0.54544400  0.52922900  1
  C  C35  1  0.89144000  0.50021000  0.52071200  1
  C  C36  1  0.10836400  0.49987100  0.47956500  1
  C  C37  1  0.85149500  0.54588100  0.56583000  1
  C  C38  1  0.14832800  0.45451000  0.43419600  1
  C  C39  1  0.76317600  0.54844400  0.55984600  1
  C  C40  1  0.23663200  0.45185200  0.44019200  1
  I  I1  1  0.11530400  0.63237500  0.59360300  1
  I  I2  1  0.88462100  0.36701200  0.40738400  1
  I  I3  1  0.67800200  0.61550100  0.30503500  1
  I  I4  1  0.32164300  0.38446200  0.69520700  1
  N  N1  1  0.56765800  0.53753200  0.03630700  1
  N  N2  1  0.43197000  0.46232900  0.96396900  1
  N  N3  1  0.56769300  0.53526700  0.96767800  1
  N  N4  1  0.43193500  0.46459200  0.03259900  1
  N  N5  1  0.46427100  0.01339600  0.49919000  1
  N  N6  1  0.53555000  0.98650000  0.50118700  1
  N  N7  1  0.71530000  0.50672800  0.50953900  1
  N  N8  1  0.28448100  0.49314700  0.49075700  1
  N  N9  1  0.98231700  0.49996600  0.52846600  1
  N  N10  1  0.01748000  0.50014100  0.47181200  1
  O  O1  1  0.41631800  0.38256400  0.49620000  1
  O  O2  1  0.58345600  0.61731200  0.50409500  1
  O  O3  1  0.56466800  0.38746100  0.49785500  1
  O  O4  1  0.43510600  0.61241500  0.50244500  1
  O  O5  1  0.42721500  0.50357200  0.39604700  1
  O  O6  1  0.57256300  0.49630300  0.60424900  1
  O  O7  1  0.57492000  0.50278700  0.40257100  1
  O  O8  1  0.42485700  0.49708400  0.59772200  1
