# generated using pymatgen
data_Zn2H24C57N2O9
_symmetry_space_group_name_H-M   'P 1'
_cell_length_a   8.52627600
_cell_length_b   13.04126200
_cell_length_c   17.46777100
_cell_angle_alpha   90.61127300
_cell_angle_beta   93.31950900
_cell_angle_gamma   86.46359600
_symmetry_Int_Tables_number   1
_chemical_formula_structural   Zn2H24C57N2O9
_chemical_formula_sum   'Zn2 H24 C57 N2 O9'
_cell_volume   1935.30056514
_cell_formula_units_Z   1
loop_
 _symmetry_equiv_pos_site_id
 _symmetry_equiv_pos_as_xyz
  1  'x, y, z'
loop_
 _atom_site_type_symbol
 _atom_site_label
 _atom_site_symmetry_multiplicity
 _atom_site_fract_x
 _atom_site_fract_y
 _atom_site_fract_z
 _atom_site_occupancy
  Zn  Zn1  1  0.56173700  0.50978400  0.90525600  1
  Zn  Zn2  1  0.57960500  0.49969900  0.07619500  1
  H  H1  1  0.64577200  0.81778900  0.99256100  1
  H  H2  1  0.61413100  0.00294700  0.98778600  1
  H  H3  1  0.06076100  0.43288200  0.96629900  1
  H  H4  1  0.36244800  0.16499400  0.99448100  1
  H  H5  1  0.25764400  0.00771700  0.99662300  1
  H  H6  1  0.71960700  0.16573600  0.98776200  1
  H  H7  1  0.28581600  0.85257300  0.97911600  1
  H  H8  1  0.07607000  0.57757300  0.01866900  1
  H  H9  1  0.51446000  0.67399400  0.79625800  1
  H  H10  1  0.49022300  0.76370700  0.67554700  1
  H  H11  1  0.62457200  0.25711700  0.68349500  1
  H  H12  1  0.47219100  0.85188700  0.55582100  1
  H  H13  1  0.66315000  0.16270300  0.56679400  1
  H  H14  1  0.67743000  0.15920800  0.42726600  1
  H  H15  1  0.51084100  0.75063900  0.29492200  1
  H  H16  1  0.65674000  0.24693800  0.30668400  1
  H  H17  1  0.63043600  0.33585600  0.18577900  1
  H  H18  1  0.59008600  0.35238800  0.79946700  1
  H  H19  1  0.54898200  0.65695200  0.18144100  1
  H  H20  1  0.44783600  0.07635600  0.36707400  1
  H  H21  1  0.22901900  0.20000800  0.39171800  1
  H  H22  1  0.00339600  0.14666400  0.45973000  1
  H  H23  1  0.99636200  0.96796000  0.50208000  1
  H  H24  1  0.21209100  0.84300300  0.47704800  1
  C  C1  1  0.03114000  0.86873600  0.99100900  1
  C  C2  1  0.89857800  0.81201400  0.99361100  1
  C  C3  1  0.74982400  0.86079600  0.99116900  1
  C  C4  1  0.73127400  0.96603100  0.98878700  1
  C  C5  1  0.86068700  0.02408100  0.98939100  1
  C  C6  1  0.01110500  0.97639200  0.99030500  1
  C  C7  1  0.83769000  0.13030500  0.98910900  1
  C  C8  1  0.96457100  0.19072900  0.98834700  1
  C  C9  1  0.11466200  0.14346700  0.99019900  1
  C  C10  1  0.13773800  0.03818400  0.99260600  1
  C  C11  1  0.94573300  0.29734400  0.98396700  1
  C  C12  1  0.07599200  0.35182700  0.97556900  1
  C  C13  1  0.22462900  0.30538600  0.98160500  1
  C  C14  1  0.24476200  0.20115800  0.99010000  1
  C  C15  1  0.17921900  0.81573500  0.98808100  1
  C  C16  1  0.19397800  0.71047000  0.99710100  1
  C  C17  1  0.06309900  0.65836500  0.00792200  1
  C  C18  1  0.91584000  0.70632100  0.00043800  1
  C  C19  1  0.35830700  0.36925600  0.98447300  1
  C  C20  1  0.34401800  0.64939000  0.99383800  1
  C  C21  1  0.78250900  0.64113900  0.99714900  1
  C  C22  1  0.79573800  0.35873200  0.98742200  1
  C  C23  1  0.53175600  0.60214000  0.76558000  1
  C  C24  1  0.57479400  0.42307600  0.76749400  1
  C  C25  1  0.51143100  0.69159200  0.64569500  1
  C  C26  1  0.53378400  0.60134700  0.68645200  1
  C  C27  1  0.56001200  0.50976000  0.64804500  1
  C  C28  1  0.58031700  0.42002600  0.68886100  1
  C  C29  1  0.60796700  0.32766700  0.65130000  1
  C  C30  1  0.49336200  0.77973600  0.52600600  1
  C  C31  1  0.51640600  0.68971300  0.56675800  1
  C  C32  1  0.54533000  0.59801600  0.52861600  1
  C  C33  1  0.49990600  0.77903900  0.44725900  1
  C  C34  1  0.53036400  0.68675900  0.40870200  1
  C  C35  1  0.56664100  0.50782100  0.56939100  1
  C  C36  1  0.59511800  0.41568000  0.53170100  1
  C  C37  1  0.61612700  0.32556400  0.57266200  1
  C  C38  1  0.64581100  0.23352700  0.53496800  1
  C  C39  1  0.55252300  0.59634700  0.44983900  1
  C  C40  1  0.58066300  0.50379600  0.41221200  1
  C  C41  1  0.60232000  0.41366600  0.45306900  1
  C  C42  1  0.63082900  0.32148500  0.41524200  1
  C  C43  1  0.65357900  0.23153500  0.45637400  1
  C  C44  1  0.53410200  0.68285900  0.32947500  1
  C  C45  1  0.56278500  0.59024100  0.29245700  1
  C  C46  1  0.58590800  0.50108500  0.33357400  1
  C  C47  1  0.61217800  0.40922700  0.29539400  1
  C  C48  1  0.63574900  0.31921200  0.33635600  1
  C  C49  1  0.56595700  0.58658100  0.21371400  1
  C  C50  1  0.61254100  0.40784700  0.21621000  1
  C  C51  1  0.48007200  0.87764800  0.40703800  1
  C  C52  1  0.34825900  0.95162200  0.42239800  1
  C  C53  1  0.34997800  0.05174900  0.39736400  1
  C  C54  1  0.22663600  0.12168600  0.41105900  1
  C  C55  1  0.10021000  0.09184200  0.44917500  1
  C  C56  1  0.09655100  0.99174900  0.47308900  1
  C  C57  1  0.21980800  0.92161100  0.45960400  1
  N  N1  1  0.55375900  0.51346400  0.80476900  1
  N  N2  1  0.58795000  0.49610400  0.17669200  1
  O  O1  1  0.41352200  0.39897900  0.05215800  1
  O  O2  1  0.40422000  0.40371300  0.91975900  1
  O  O3  1  0.38852600  0.61697200  0.92637600  1
  O  O4  1  0.40795300  0.61170000  0.05853700  1
  O  O5  1  0.72780100  0.61059800  0.92949400  1
  O  O6  1  0.73666100  0.60607900  0.06162300  1
  O  O7  1  0.75254200  0.39232200  0.05489700  1
  O  O8  1  0.73271300  0.39734000  0.92289500  1
  O  O9  1  0.57980900  0.90135300  0.36429100  1
