# generated using pymatgen
data_Zn2H20C33N3O8F
_symmetry_space_group_name_H-M   'P 1'
_cell_length_a   8.52503100
_cell_length_b   10.69545300
_cell_length_c   14.25086900
_cell_angle_alpha   97.80652400
_cell_angle_beta   90.10271300
_cell_angle_gamma   90.00840400
_symmetry_Int_Tables_number   1
_chemical_formula_structural   Zn2H20C33N3O8F
_chemical_formula_sum   'Zn2 H20 C33 N3 O8 F1'
_cell_volume   1287.33662271
_cell_formula_units_Z   1
loop_
 _symmetry_equiv_pos_site_id
 _symmetry_equiv_pos_as_xyz
  1  'x, y, z'
loop_
 _atom_site_type_symbol
 _atom_site_label
 _atom_site_symmetry_multiplicity
 _atom_site_fract_x
 _atom_site_fract_y
 _atom_site_fract_z
 _atom_site_occupancy
  Zn  Zn1  1  0.49806300  0.49760600  0.11068800  1
  Zn  Zn2  1  0.49735800  0.51038800  0.90255100  1
  H  H1  1  0.99469700  0.59596200  0.06297200  1
  H  H2  1  0.99360200  0.41099000  0.94940300  1
  H  H3  1  0.25293700  0.90771800  0.00067300  1
  H  H4  1  0.25269000  0.10068800  0.01372900  1
  H  H5  1  0.60880500  0.10759500  0.99211300  1
  H  H6  1  0.71882900  0.60665600  0.59428400  1
  H  H7  1  0.72328400  0.58998500  0.43633400  1
  H  H8  1  0.49985500  0.29476300  0.41176200  1
  H  H9  1  0.69124900  0.36718200  0.42028300  1
  H  H10  1  0.68362500  0.37225200  0.57882000  1
  H  H11  1  0.48817100  0.30646700  0.57093400  1
  H  H12  1  0.27173300  0.41911300  0.42887100  1
  H  H13  1  0.28082600  0.61526500  0.59358300  1
  H  H14  1  0.56256900  0.69690700  0.43736400  1
  H  H15  1  0.54966900  0.70839800  0.59927400  1
  H  H16  1  0.25713600  0.44781100  0.58400600  1
  H  H17  1  0.33964600  0.76892400  0.50705900  1
  H  H18  1  0.18962000  0.92807100  0.43952800  1
  H  H19  1  0.96630000  0.64225700  0.24849000  1
  H  H20  1  0.11733600  0.48054800  0.31401900  1
  C  C1  1  0.99637500  0.69406700  0.05251500  1
  C  C2  1  0.13673000  0.75136600  0.03874500  1
  C  C3  1  0.13986300  0.87257700  0.01755400  1
  C  C4  1  0.85777300  0.75482900  0.03951800  1
  C  C5  1  0.85960400  0.87955100  0.02268400  1
  C  C6  1  0.00153600  0.94091900  0.01474000  1
  C  C7  1  0.00138700  0.06681400  0.99905800  1
  C  C8  1  0.13954600  0.13546900  0.99642900  1
  C  C9  1  0.13621900  0.25634200  0.97457800  1
  C  C10  1  0.72069000  0.06225000  0.99896600  1
  C  C11  1  0.85909100  0.12734300  0.99062400  1
  C  C12  1  0.85688700  0.25233100  0.97358100  1
  C  C13  1  0.99554300  0.31306500  0.96034800  1
  C  C14  1  0.27789900  0.67453900  0.02893000  1
  C  C15  1  0.27749500  0.33346800  0.98426800  1
  C  C16  1  0.71563800  0.33073700  0.98389600  1
  C  C17  1  0.71570700  0.67742500  0.02940600  1
  C  C18  1  0.60079200  0.60730800  0.46074500  1
  C  C19  1  0.56800000  0.37758700  0.44484900  1
  C  C20  1  0.56318400  0.38380800  0.55174100  1
  C  C21  1  0.49882300  0.49799700  0.41746600  1
  C  C22  1  0.59759500  0.61588400  0.56773200  1
  C  C23  1  0.49706000  0.51016800  0.59580800  1
  C  C24  1  0.33043600  0.52392800  0.56132700  1
  C  C25  1  0.33082900  0.50981800  0.45389200  1
  C  C26  1  0.49707000  0.51587000  0.69895100  1
  C  C27  1  0.49897200  0.49218500  0.31430100  1
  C  C28  1  0.24106900  0.61220800  0.41489900  1
  C  C29  1  0.25997900  0.73881200  0.44960000  1
  C  C30  1  0.17442300  0.82956100  0.41195100  1
  C  C31  1  0.06919600  0.79506900  0.33967000  1
  C  C32  1  0.04914700  0.66953600  0.30507800  1
  C  C33  1  0.13447800  0.57852200  0.34249900  1
  N  N1  1  0.72340000  0.94065600  0.01407800  1
  N  N2  1  0.49704100  0.51848600  0.78037900  1
  N  N3  1  0.49900500  0.48950000  0.23286300  1
  O  O1  1  0.32856500  0.63809500  0.94273100  1
  O  O2  1  0.33324600  0.63120000  0.10420900  1
  O  O3  1  0.32903600  0.36986400  0.07041300  1
  O  O4  1  0.33240400  0.37684000  0.90896700  1
  O  O5  1  0.66646400  0.36948400  0.07015200  1
  O  O6  1  0.66145700  0.37613400  0.90915400  1
  O  O7  1  0.66594200  0.63857500  0.94317700  1
  O  O8  1  0.66223000  0.63184100  0.10416000  1
  F  F1  1  0.98515600  0.88442700  0.30290900  1
