# generated using pymatgen
data_CoH6C12NO4
_symmetry_space_group_name_H-M   'P 1'
_cell_length_a   6.69517100
_cell_length_b   9.16391100
_cell_length_c   12.40825300
_cell_angle_alpha   90.09359700
_cell_angle_beta   80.20665900
_cell_angle_gamma   90.06019300
_symmetry_Int_Tables_number   1
_chemical_formula_structural   CoH6C12NO4
_chemical_formula_sum   'Co2 H12 C24 N2 O8'
_cell_volume   750.20027296
_cell_formula_units_Z   2
loop_
 _symmetry_equiv_pos_site_id
 _symmetry_equiv_pos_as_xyz
  1  'x, y, z'
loop_
 _atom_site_type_symbol
 _atom_site_label
 _atom_site_symmetry_multiplicity
 _atom_site_fract_x
 _atom_site_fract_y
 _atom_site_fract_z
 _atom_site_occupancy
  Co  Co1  1  0.99182900  0.14324700  0.99900800  1
  Co  Co2  1  0.00464900  0.85275900  0.00086600  1
  H  H1  1  0.93891700  0.59284600  0.18002500  1
  H  H2  1  0.24539800  0.39643200  0.09258600  1
  H  H3  1  0.31700600  0.58864500  0.91392300  1
  H  H4  1  0.05752900  0.40315800  0.81983600  1
  H  H5  1  0.75104800  0.59957200  0.90727400  1
  H  H6  1  0.67943700  0.40735300  0.08593700  1
  H  H7  1  0.96269100  0.92003900  0.65190200  1
  H  H8  1  0.10840700  0.07030900  0.72165900  1
  H  H9  1  0.98039300  0.08444400  0.54727100  1
  H  H10  1  0.03027600  0.05351100  0.35527000  1
  H  H11  1  0.84347000  0.92494900  0.47939200  1
  H  H12  1  0.75557700  0.97013300  0.34539300  1
  C  C1  1  0.22771700  0.00717000  0.15526600  1
  C  C2  1  0.76544200  0.98738300  0.84651700  1
  C  C3  1  0.32619700  0.00426000  0.84510500  1
  C  C4  1  0.66805800  0.99281000  0.15288600  1
  C  C5  1  0.12944700  0.44407300  0.04901000  1
  C  C6  1  0.96624100  0.54852900  0.09557900  1
  C  C7  1  0.16753800  0.54636700  0.95406400  1
  C  C8  1  0.03020200  0.44747600  0.90428100  1
  C  C9  1  0.86699700  0.55193200  0.95085100  1
  C  C10  1  0.82890500  0.44963500  0.04579700  1
  C  C11  1  0.67893900  0.98025500  0.74648000  1
  C  C12  1  0.80669000  0.94848000  0.65030400  1
  C  C13  1  0.73807100  0.95271000  0.55195900  1
  C  C14  1  0.47655700  0.00565300  0.74497600  1
  C  C15  1  0.40887500  0.01519800  0.64600500  1
  C  C16  1  0.53932300  0.99079700  0.54863100  1
  C  C17  1  0.46722900  0.00015900  0.45011000  1
  C  C18  1  0.59470500  0.98379700  0.35068400  1
  C  C19  1  0.52081900  0.99193900  0.25377000  1
  C  C20  1  0.20851500  0.04843500  0.64535400  1
  C  C21  1  0.13682500  0.05609600  0.54784000  1
  C  C22  1  0.26514100  0.03020100  0.45058100  1
  C  C23  1  0.19002700  0.03434500  0.35370700  1
  C  C24  1  0.31639000  0.01223900  0.25502600  1
  N  N1  1  0.00409000  0.64545300  0.00060800  1
  N  N2  1  0.99235800  0.35055400  0.99925200  1
  O  O1  1  0.16477700  0.12865000  0.11671400  1
  O  O2  1  0.81592700  0.11474400  0.88305100  1
  O  O3  1  0.23840300  0.12653000  0.88136800  1
  O  O4  1  0.74399200  0.11837400  0.11502000  1
  O  O5  1  0.83196800  0.86664500  0.88377700  1
  O  O6  1  0.17786100  0.88040800  0.11785200  1
  O  O7  1  0.25277200  0.87839200  0.88439000  1
  O  O8  1  0.75625000  0.87021400  0.11731700  1
