# generated using pymatgen
data_VH18(C4O)5
_symmetry_space_group_name_H-M   'P 1'
_cell_length_a   26.89599200
_cell_length_b   6.20783000
_cell_length_c   22.05905000
_cell_angle_alpha   90.00000000
_cell_angle_beta   101.25911500
_cell_angle_gamma   90.00000000
_symmetry_Int_Tables_number   1
_chemical_formula_structural   VH18(C4O)5
_chemical_formula_sum   'V4 H72 C80 O20'
_cell_volume   3612.22154001
_cell_formula_units_Z   4
loop_
 _symmetry_equiv_pos_site_id
 _symmetry_equiv_pos_as_xyz
  1  'x, y, z'
loop_
 _atom_site_type_symbol
 _atom_site_label
 _atom_site_symmetry_multiplicity
 _atom_site_fract_x
 _atom_site_fract_y
 _atom_site_fract_z
 _atom_site_occupancy
  V  V1  1  0.49754000  0.98271600  0.48371300  1
  V  V2  1  0.50246000  0.48271600  0.51628700  1
  V  V3  1  0.00216800  0.83944100  0.01644500  1
  V  V4  1  0.99783200  0.33944100  0.98355500  1
  H  H1  1  0.11202800  0.68125100  0.91563200  1
  H  H2  1  0.88797200  0.18125100  0.08436800  1
  H  H3  1  0.17779300  0.63363600  0.85433000  1
  H  H4  1  0.82220700  0.13363600  0.14567000  1
  H  H5  1  0.16028900  0.29250300  0.79761800  1
  H  H6  1  0.83971100  0.79250300  0.20238300  1
  H  H7  1  0.09565400  0.33845400  0.86022500  1
  H  H8  1  0.90434600  0.83845400  0.13977500  1
  H  H9  1  0.23075600  0.27139400  0.78504100  1
  H  H10  1  0.76924400  0.77139300  0.21495900  1
  H  H11  1  0.29683600  0.22915400  0.72540200  1
  H  H12  1  0.70316400  0.72915400  0.27459800  1
  H  H13  1  0.27234600  0.54890500  0.71922700  1
  H  H14  1  0.72765400  0.04890500  0.28077300  1
  H  H15  1  0.20624400  0.59117600  0.77890200  1
  H  H16  1  0.79375700  0.09117600  0.22109900  1
  H  H17  1  0.34258200  0.52799300  0.70567900  1
  H  H18  1  0.65741800  0.02799300  0.29432100  1
  H  H19  1  0.40643900  0.48264100  0.64190600  1
  H  H20  1  0.59356100  0.98264100  0.35809400  1
  H  H21  1  0.38957800  0.14032500  0.58710100  1
  H  H22  1  0.61042200  0.64032500  0.41290000  1
  H  H23  1  0.32460900  0.18731500  0.64952600  1
  H  H24  1  0.67539100  0.68731500  0.35047500  1
  H  H25  1  0.67300000  0.86457600  0.78552700  1
  H  H26  1  0.32700000  0.36457600  0.21447300  1
  H  H27  1  0.74351100  0.92341800  0.85482700  1
  H  H28  1  0.25648900  0.42341800  0.14517300  1
  H  H29  1  0.79651800  0.22954700  0.73758400  1
  H  H30  1  0.20348200  0.72954700  0.26241600  1
  H  H31  1  0.76437100  0.25563400  0.80289400  1
  H  H32  1  0.23562900  0.75563400  0.19710600  1
  H  H33  1  0.68850100  0.18077700  0.74176200  1
  H  H34  1  0.31149900  0.68077700  0.25823900  1
  H  H35  1  0.71901100  0.20524500  0.67552900  1
  H  H36  1  0.28098900  0.70524500  0.32447200  1
  H  H37  1  0.83080200  0.90774800  0.71246300  1
  H  H38  1  0.16919800  0.40774800  0.28753700  1
  H  H39  1  0.74857900  0.61066900  0.67555200  1
  H  H40  1  0.25142100  0.11066900  0.32444800  1
  H  H41  1  0.76814200  0.66649400  0.83790500  1
  H  H42  1  0.23185800  0.16649400  0.16209500  1
  H  H43  1  0.90201200  0.73388000  0.76528300  1
  H  H44  1  0.87863400  0.69654600  0.83633000  1
  H  H45  1  0.89931300  0.46717200  0.79759800  1
  H  H46  1  0.80380300  0.51009000  0.78141600  1
  H  H47  1  0.82913200  0.50095800  0.71141200  1
  H  H48  1  0.09798800  0.23388000  0.23471700  1
  H  H49  1  0.12136600  0.19654600  0.16367100  1
  H  H50  1  0.10068700  0.96717200  0.20240200  1
  H  H51  1  0.19619700  0.01009000  0.21858400  1
  H  H52  1  0.17086800  0.00095800  0.28858800  1
  H  H53  1  0.61610800  0.64625100  0.72707800  1
  H  H54  1  0.64788800  0.52665500  0.67003600  1
  H  H55  1  0.62570300  0.35907400  0.72631900  1
  H  H56  1  0.72338000  0.46379400  0.74383400  1
  H  H57  1  0.69057000  0.47759900  0.80806000  1
  H  H58  1  0.38389200  0.14625100  0.27292300  1
  H  H59  1  0.35211200  0.02665500  0.32996400  1
  H  H60  1  0.37429700  0.85907400  0.27368200  1
  H  H61  1  0.27662000  0.96379400  0.25616600  1
  H  H62  1  0.30943000  0.97759900  0.19194000  1
  H  H63  1  0.69823500  0.72074800  0.57567000  1
  H  H64  1  0.68581600  0.00153900  0.59056600  1
  H  H65  1  0.72203800  0.93263300  0.53266200  1
  H  H66  1  0.77330500  0.06622200  0.63634000  1
  H  H67  1  0.79291200  0.81298000  0.60827100  1
  H  H68  1  0.30176500  0.22074800  0.42433000  1
  H  H69  1  0.31418400  0.50153900  0.40943400  1
  H  H70  1  0.27796200  0.43263300  0.46733800  1
  H  H71  1  0.22669500  0.56622200  0.36366000  1
  H  H72  1  0.20708800  0.31298000  0.39172900  1
  C  C1  1  0.07854100  0.54715500  0.08221200  1
  C  C2  1  0.92145900  0.04715500  0.91778800  1
  C  C3  1  0.42063800  0.27841100  0.41962500  1
  C  C4  1  0.57936200  0.77841100  0.58037500  1
  C  C5  1  0.56117900  0.27643200  0.42838500  1
  C  C6  1  0.43882100  0.77643200  0.57161500  1
  C  C7  1  0.12260900  0.81478900  0.88935600  1
  C  C8  1  0.87739100  0.31478900  0.11064400  1
  C  C9  1  0.15945100  0.78821100  0.85445200  1
  C  C10  1  0.84054900  0.28821100  0.14554800  1
  C  C11  1  0.17378000  0.96009000  0.82188300  1
  C  C12  1  0.82622000  0.46009000  0.17811700  1
  C  C13  1  0.15048600  0.15752200  0.82377700  1
  C  C14  1  0.84951400  0.65752200  0.17622300  1
  C  C15  1  0.11363300  0.18342300  0.85852100  1
  C  C16  1  0.88636700  0.68342300  0.14147900  1
  C  C17  1  0.09992000  0.01271000  0.89151200  1
  C  C18  1  0.90008000  0.51271000  0.10848800  1
  C  C19  1  0.23912100  0.11229800  0.77007700  1
  C  C20  1  0.76087900  0.61229800  0.22992300  1
  C  C21  1  0.27673500  0.08835600  0.73628500  1
  C  C22  1  0.72326500  0.58835600  0.26371600  1
  C  C23  1  0.28933000  0.88611400  0.71819900  1
  C  C24  1  0.71067000  0.38611400  0.28180200  1
  C  C25  1  0.26398700  0.70797700  0.73422100  1
  C  C26  1  0.73601300  0.20797700  0.26577900  1
  C  C27  1  0.22636900  0.73192500  0.76802400  1
  C  C28  1  0.77363100  0.23192500  0.23197600  1
  C  C29  1  0.21370600  0.93423600  0.78599600  1
  C  C30  1  0.78629400  0.43423600  0.21400400  1
  C  C31  1  0.35216000  0.66325500  0.67946000  1
  C  C32  1  0.64784000  0.16325500  0.32054000  1
  C  C33  1  0.38856500  0.63768200  0.64404600  1
  C  C34  1  0.61143500  0.13768200  0.35595400  1
  C  C35  1  0.40189900  0.80870000  0.61086900  1
  C  C36  1  0.59810100  0.30870000  0.38913100  1
  C  C37  1  0.37931800  0.00658500  0.61354500  1
  C  C38  1  0.62068200  0.50658500  0.38645500  1
  C  C39  1  0.34293100  0.03281800  0.64910200  1
  C  C40  1  0.65706900  0.53281800  0.35089800  1
  C  C41  1  0.32895400  0.86065000  0.68184400  1
  C  C42  1  0.67104600  0.36065000  0.31815700  1
  C  C43  1  0.75286700  0.82126800  0.81735500  1
  C  C44  1  0.24713300  0.32126800  0.18264600  1
  C  C45  1  0.76974800  0.15349000  0.76344500  1
  C  C46  1  0.23025200  0.65349000  0.23655600  1
  C  C47  1  0.71932600  0.11978400  0.71973800  1
  C  C48  1  0.28067400  0.61978400  0.28026200  1
  C  C49  1  0.62510600  0.81702900  0.62527300  1
  C  C50  1  0.37489500  0.31702900  0.37472700  1
  C  C51  1  0.79158900  0.93900400  0.78784100  1
  C  C52  1  0.20841100  0.43900400  0.21215900  1
  C  C53  1  0.70489900  0.78365500  0.76958800  1
  C  C54  1  0.29510100  0.28365500  0.23041200  1
  C  C55  1  0.71054400  0.88200100  0.70849500  1
  C  C56  1  0.28945600  0.38200100  0.29150500  1
  C  C57  1  0.75534100  0.78429800  0.68540500  1
  C  C58  1  0.24465900  0.28429800  0.31459500  1
  C  C59  1  0.80352400  0.81346400  0.73352600  1
  C  C60  1  0.19647600  0.31346400  0.26647400  1
  C  C61  1  0.66361900  0.84759000  0.66283900  1
  C  C62  1  0.33638100  0.34759000  0.33716200  1
  C  C63  1  0.83808700  0.97627900  0.83399600  1
  C  C64  1  0.16191300  0.47627900  0.16600400  1
  C  C65  1  0.87620900  0.00816100  0.87210400  1
  C  C66  1  0.12379100  0.50816100  0.12789600  1
  C  C67  1  0.93762600  0.54548400  0.07010500  1
  C  C68  1  0.06237400  0.04548400  0.92989500  1
  C  C69  1  0.82708500  0.59661500  0.75331100  1
  C  C70  1  0.88024300  0.62614700  0.79060700  1
  C  C71  1  0.17291500  0.09661500  0.24668900  1
  C  C72  1  0.11975700  0.12614700  0.20939300  1
  C  C73  1  0.69301100  0.54600300  0.76229000  1
  C  C74  1  0.64244700  0.51737600  0.71850800  1
  C  C75  1  0.30698900  0.04600300  0.23771000  1
  C  C76  1  0.35755300  0.01737600  0.28149200  1
  C  C77  1  0.76232900  0.89577700  0.62642900  1
  C  C78  1  0.71380100  0.88664600  0.57827400  1
  C  C79  1  0.23767100  0.39577700  0.37357200  1
  C  C80  1  0.28619900  0.38664600  0.42172600  1
  O  O1  1  0.54943800  0.44798500  0.45867700  1
  O  O2  1  0.45056200  0.94798500  0.54132400  1
  O  O3  1  0.43931200  0.08063100  0.42147000  1
  O  O4  1  0.56068800  0.58063100  0.57853000  1
  O  O5  1  0.54186400  0.08038200  0.42762500  1
  O  O6  1  0.45813600  0.58038200  0.57237500  1
  O  O7  1  0.55909800  0.94775000  0.54778300  1
  O  O8  1  0.44090200  0.44775000  0.45221700  1
  O  O9  1  0.05016500  0.87447100  0.96003800  1
  O  O10  1  0.94983500  0.37447100  0.03996200  1
  O  O11  1  0.50575400  0.22757600  0.53935900  1
  O  O12  1  0.49424600  0.72757600  0.46064100  1
  O  O13  1  0.05972500  0.74465400  0.08012800  1
  O  O14  1  0.94027500  0.24465400  0.91987300  1
  O  O15  1  0.99540100  0.59489200  0.96100600  1
  O  O16  1  0.00459900  0.09489200  0.03899500  1
  O  O17  1  0.05875600  0.37810400  0.04910500  1
  O  O18  1  0.94124400  0.87810400  0.95089500  1
  O  O19  1  0.95695400  0.74153800  0.07142600  1
  O  O20  1  0.04304600  0.24153800  0.92857400  1
