# generated using pymatgen
data_V2H20C37O10
_symmetry_space_group_name_H-M   'P 1'
_cell_length_a   19.46393700
_cell_length_b   6.75841500
_cell_length_c   16.75015300
_cell_angle_alpha   90.00000000
_cell_angle_beta   108.74198900
_cell_angle_gamma   90.00000000
_symmetry_Int_Tables_number   1
_chemical_formula_structural   V2H20C37O10
_chemical_formula_sum   'V4 H40 C74 O20'
_cell_volume   2086.56956086
_cell_formula_units_Z   2
loop_
 _symmetry_equiv_pos_site_id
 _symmetry_equiv_pos_as_xyz
  1  'x, y, z'
loop_
 _atom_site_type_symbol
 _atom_site_label
 _atom_site_symmetry_multiplicity
 _atom_site_fract_x
 _atom_site_fract_y
 _atom_site_fract_z
 _atom_site_occupancy
  V  V1  1  0.49453800  0.08856000  0.48301300  1
  V  V2  1  0.50546300  0.58856000  0.51698600  1
  V  V3  1  0.00141500  0.41663600  0.01035100  1
  V  V4  1  0.99858500  0.91663600  0.98964900  1
  H  H1  1  0.69084000  0.56200000  0.72287700  1
  H  H2  1  0.30916100  0.06200000  0.27712300  1
  H  H3  1  0.67098700  0.97997800  0.55879600  1
  H  H4  1  0.32901400  0.47997900  0.44120300  1
  H  H5  1  0.72441200  0.65525900  0.58376100  1
  H  H6  1  0.27558900  0.15525900  0.41623800  1
  H  H7  1  0.81493300  0.57502700  0.71975400  1
  H  H8  1  0.18506700  0.07502700  0.28024600  1
  H  H9  1  0.85251800  0.81859000  0.82868300  1
  H  H10  1  0.14748200  0.31859000  0.17131600  1
  H  H11  1  0.80273100  0.51315600  0.84089800  1
  H  H12  1  0.19726900  0.01315600  0.15910100  1
  H  H13  1  0.33605700  0.00601300  0.59369400  1
  H  H14  1  0.66394400  0.50601300  0.40630500  1
  H  H15  1  0.40756600  0.56529500  0.70735900  1
  H  H16  1  0.59243500  0.06529500  0.29264100  1
  H  H17  1  0.35886400  0.69393800  0.81103700  1
  H  H18  1  0.64113600  0.19393800  0.18896200  1
  H  H19  1  0.27347300  0.66737900  0.89136200  1
  H  H20  1  0.72652800  0.16737900  0.10863700  1
  H  H21  1  0.17701600  0.49612800  0.92137300  1
  H  H22  1  0.82298500  0.99612900  0.07862700  1
  H  H23  1  0.15205000  0.81481200  0.69947900  1
  H  H24  1  0.84795100  0.31481100  0.30052000  1
  H  H25  1  0.24081500  0.83489100  0.62452100  1
  H  H26  1  0.75918500  0.33489100  0.37547800  1
  H  H27  1  0.00086000  0.07551400  0.79867800  1
  H  H28  1  0.91283700  0.80476700  0.75244100  1
  H  H29  1  0.89837200  0.47236500  0.66290800  1
  H  H30  1  0.91195800  0.39749700  0.77071600  1
  H  H31  1  0.96739200  0.29219500  0.71263600  1
  H  H32  1  0.08425600  0.40537900  0.76157700  1
  H  H33  1  0.17241700  0.67541600  0.80716400  1
  H  H34  1  0.99914100  0.57551400  0.20132100  1
  H  H35  1  0.08716400  0.30476700  0.24755900  1
  H  H36  1  0.10162900  0.97236500  0.33709200  1
  H  H37  1  0.08804300  0.89749700  0.22928300  1
  H  H38  1  0.03260900  0.79219500  0.28736300  1
  H  H39  1  0.91574500  0.90537900  0.23842200  1
  H  H40  1  0.82758300  0.17541600  0.19283600  1
  C  C1  1  0.57572500  0.80529500  0.40614900  1
  C  C2  1  0.42427600  0.30529500  0.59385000  1
  C  C3  1  0.37860000  0.80138600  0.39209200  1
  C  C4  1  0.62140100  0.30138600  0.60790700  1
  C  C5  1  0.70839100  0.94920900  0.62042100  1
  C  C6  1  0.29160900  0.44920900  0.37957900  1
  C  C7  1  0.74032200  0.76556200  0.63303500  1
  C  C8  1  0.25967900  0.26556200  0.36696400  1
  C  C9  1  0.79148700  0.72146300  0.70875600  1
  C  C10  1  0.20851400  0.22146300  0.29124400  1
  C  C11  1  0.81447800  0.86481300  0.76986300  1
  C  C12  1  0.18552200  0.36481300  0.23013700  1
  C  C13  1  0.78622400  0.05543400  0.75589800  1
  C  C14  1  0.21377600  0.55543400  0.24410100  1
  C  C15  1  0.72830500  0.09208700  0.68320300  1
  C  C16  1  0.27169500  0.59208700  0.31679700  1
  C  C17  1  0.69172900  0.27182200  0.67341800  1
  C  C18  1  0.30827200  0.77182200  0.32658200  1
  C  C19  1  0.71869600  0.42139700  0.73062200  1
  C  C20  1  0.28130500  0.92139700  0.26937700  1
  C  C21  1  0.78090100  0.39267700  0.79774600  1
  C  C22  1  0.21910000  0.89267700  0.20225300  1
  C  C23  1  0.81465100  0.21063100  0.81198600  1
  C  C24  1  0.18535000  0.71063100  0.18801300  1
  C  C25  1  0.33424100  0.12104400  0.63781400  1
  C  C26  1  0.66576000  0.62104400  0.36218500  1
  C  C27  1  0.37744200  0.28627400  0.64611400  1
  C  C28  1  0.62255900  0.78627400  0.35388600  1
  C  C29  1  0.37394500  0.43515000  0.70104500  1
  C  C30  1  0.62605600  0.93515000  0.29895400  1
  C  C31  1  0.32746200  0.41769900  0.74795800  1
  C  C32  1  0.67253900  0.91769900  0.25204200  1
  C  C33  1  0.28341100  0.25361300  0.73854500  1
  C  C34  1  0.71659000  0.75361300  0.26145400  1
  C  C35  1  0.28646400  0.10625300  0.68292800  1
  C  C36  1  0.71353700  0.60625300  0.31707200  1
  C  C37  1  0.32419500  0.56558500  0.80334100  1
  C  C38  1  0.67580600  0.06558500  0.19665800  1
  C  C39  1  0.27610600  0.55082900  0.84821500  1
  C  C40  1  0.72389400  0.05082900  0.15178400  1
  C  C41  1  0.23097800  0.38857700  0.83742600  1
  C  C42  1  0.76902200  0.88857600  0.16257300  1
  C  C43  1  0.23534000  0.23859500  0.78349100  1
  C  C44  1  0.76466000  0.73859500  0.21650900  1
  C  C45  1  0.19017500  0.07636000  0.77261400  1
  C  C46  1  0.80982500  0.57636000  0.22738600  1
  C  C47  1  0.19104100  0.93392100  0.71381000  1
  C  C48  1  0.80896000  0.43392100  0.28619000  1
  C  C49  1  0.24000600  0.94712700  0.67019300  1
  C  C50  1  0.75999500  0.44712700  0.32980700  1
  C  C51  1  0.18072800  0.37777700  0.87953800  1
  C  C52  1  0.81927300  0.87777700  0.12046200  1
  C  C53  1  0.13590700  0.21500400  0.86938500  1
  C  C54  1  0.86409400  0.71500400  0.13061400  1
  C  C55  1  0.14155900  0.06217300  0.81706200  1
  C  C56  1  0.85844100  0.56217300  0.18293700  1
  C  C57  1  0.11723700  0.69700300  0.11710400  1
  C  C58  1  0.88276400  0.19700300  0.88289600  1
  C  C59  1  0.91524100  0.70285900  0.08323800  1
  C  C60  1  0.08476000  0.20285900  0.91676100  1
  C  C61  1  0.09161000  0.89480900  0.80205800  1
  C  C62  1  0.01931900  0.92817200  0.79109900  1
  C  C63  1  0.96993500  0.77615800  0.76553100  1
  C  C64  1  0.99305700  0.58915100  0.75363800  1
  C  C65  1  0.93930300  0.42740700  0.72319900  1
  C  C66  1  0.06590600  0.55293900  0.76930800  1
  C  C67  1  0.11524300  0.70568900  0.79349300  1
  C  C68  1  0.90839000  0.39480900  0.19794100  1
  C  C69  1  0.98068200  0.42817200  0.20890000  1
  C  C70  1  0.03006500  0.27615800  0.23446800  1
  C  C71  1  0.00694300  0.08915100  0.24636100  1
  C  C72  1  0.06069800  0.92740700  0.27680100  1
  C  C73  1  0.93409500  0.05293900  0.23069200  1
  C  C74  1  0.88475800  0.20568900  0.20650600  1
  O  O1  1  0.41125700  0.63765700  0.42976300  1
  O  O2  1  0.58874400  0.13765700  0.57023700  1
  O  O3  1  0.54836800  0.98492800  0.40901700  1
  O  O4  1  0.45163300  0.48492800  0.59098300  1
  O  O5  1  0.40563900  0.98429100  0.39891900  1
  O  O6  1  0.59436200  0.48429100  0.60108000  1
  O  O7  1  0.43697200  0.13743100  0.55923600  1
  O  O8  1  0.56302900  0.63743100  0.44076400  1
  O  O9  1  0.51448000  0.82327100  0.55261300  1
  O  O10  1  0.48552100  0.32327100  0.44738700  1
  O  O11  1  0.93408300  0.86964900  0.05688700  1
  O  O12  1  0.06591700  0.36964900  0.94311300  1
  O  O13  1  0.08647100  0.52462300  0.09895200  1
  O  O14  1  0.91353000  0.02462300  0.90104700  1
  O  O15  1  0.94031500  0.52764700  0.07443800  1
  O  O16  1  0.05968600  0.02764700  0.92556100  1
  O  O17  1  0.91103700  0.36399600  0.91751600  1
  O  O18  1  0.08896300  0.86399600  0.08248300  1
  O  O19  1  0.99149400  0.68899100  0.94836000  1
  O  O20  1  0.00850600  0.18899100  0.05163900  1
