# generated using pymatgen
data_Cu2H31C54N2O8F
_symmetry_space_group_name_H-M   'P 1'
_cell_length_a   10.95646000
_cell_length_b   12.17533400
_cell_length_c   13.66882900
_cell_angle_alpha   115.84529600
_cell_angle_beta   78.94676100
_cell_angle_gamma   102.42187800
_symmetry_Int_Tables_number   1
_chemical_formula_structural   Cu2H31C54N2O8F
_chemical_formula_sum   'Cu2 H31 C54 N2 O8 F1'
_cell_volume   1592.61691441
_cell_formula_units_Z   1
loop_
 _symmetry_equiv_pos_site_id
 _symmetry_equiv_pos_as_xyz
  1  'x, y, z'
loop_
 _atom_site_type_symbol
 _atom_site_label
 _atom_site_symmetry_multiplicity
 _atom_site_fract_x
 _atom_site_fract_y
 _atom_site_fract_z
 _atom_site_occupancy
  Cu  Cu1  1  0.54265200  0.09591700  0.47812200  1
  Cu  Cu2  1  0.48500400  0.89898200  0.52582700  1
  H  H1  1  0.71658800  0.58114000  0.68519700  1
  H  H2  1  0.67435400  0.79520300  0.78216300  1
  H  H3  1  0.76621700  0.94573100  0.70563600  1
  H  H4  1  0.84044200  0.51499700  0.50681300  1
  H  H5  1  0.08509200  0.85582700  0.55592200  1
  H  H6  1  0.94194900  0.14754200  0.46135000  1
  H  H7  1  0.09408500  0.32816700  0.60372200  1
  H  H8  1  0.16955500  0.49120200  0.53852600  1
  H  H9  1  0.29123600  0.44566800  0.35983300  1
  H  H10  1  0.33743600  0.23268200  0.24301500  1
  H  H11  1  0.25549600  0.06862300  0.30531800  1
  H  H12  1  0.47398400  0.07807500  0.87543600  1
  H  H13  1  0.42975100  0.40072700  0.20833700  1
  H  H14  1  0.45215400  0.21102100  0.06751400  1
  H  H15  1  0.52942700  0.38946700  0.79845000  1
  H  H16  1  0.54971900  0.92189500  0.13287300  1
  H  H17  1  0.54733400  0.58158400  0.86122400  1
  H  H18  1  0.56164000  0.80064700  0.93942500  1
  H  H19  1  0.41573000  0.60981700  0.27944500  1
  H  H20  1  0.70029400  0.15547500  0.29844400  1
  H  H21  1  0.70011500  0.52238200  0.27671000  1
  H  H22  1  0.73182300  0.32558400  0.24328800  1
  H  H23  1  0.46356200  0.34044800  0.57597900  1
  H  H24  1  0.32321900  0.84376800  0.69899500  1
  H  H25  1  0.38730500  0.50342800  0.67425700  1
  H  H26  1  0.28922300  0.68536900  0.76866900  1
  H  H27  1  0.62206600  0.70640500  0.38532200  1
  H  H28  1  0.85637900  0.74440100  0.32942400  1
  H  H29  1  0.97592100  0.67123000  0.14934600  1
  H  H30  1  0.16160900  0.46383100  0.24136400  1
  H  H31  1  0.04779500  0.54105800  0.42460400  1
  C  C1  1  0.51365400  0.85245100  0.29524000  1
  C  C2  1  0.74998500  0.99364300  0.49667900  1
  C  C3  1  0.50800500  0.14162700  0.70737100  1
  C  C4  1  0.27777200  0.00361800  0.51049600  1
  C  C5  1  0.72876700  0.76595900  0.70318100  1
  C  C6  1  0.77808500  0.84997500  0.65872600  1
  C  C7  1  0.84882700  0.81432500  0.55787600  1
  C  C8  1  0.87126300  0.69251500  0.50102100  1
  C  C9  1  0.82450600  0.60997900  0.54866800  1
  C  C10  1  0.75354500  0.64657200  0.64915200  1
  C  C11  1  0.05513300  0.91919800  0.53271900  1
  C  C12  1  0.14296100  0.00580300  0.50930800  1
  C  C13  1  0.09856000  0.09020400  0.48586800  1
  C  C14  1  0.97179500  0.08275900  0.48288600  1
  C  C15  1  0.88417000  0.99410400  0.50310800  1
  C  C16  1  0.92813700  0.91087900  0.52890200  1
  C  C17  1  0.15197100  0.30819300  0.52615700  1
  C  C18  1  0.19269600  0.39944300  0.48906200  1
  C  C19  1  0.26037900  0.37309200  0.38792800  1
  C  C20  1  0.28689400  0.25501300  0.32348100  1
  C  C21  1  0.24302900  0.16279600  0.35929400  1
  C  C22  1  0.17605100  0.18949500  0.46105400  1
  C  C23  1  0.46970900  0.25194900  0.00925300  1
  C  C24  1  0.50137200  0.22606400  0.82467100  1
  C  C25  1  0.53675300  0.82268100  0.10365500  1
  C  C26  1  0.54504600  0.75376800  0.99283800  1
  C  C27  1  0.53552400  0.62730600  0.94897300  1
  C  C28  1  0.51018000  0.56452800  0.01622800  1
  C  C29  1  0.49217100  0.63492900  0.13035500  1
  C  C30  1  0.50017600  0.43331000  0.97257500  1
  C  C31  1  0.47623700  0.37759600  0.04456500  1
  C  C32  1  0.45245500  0.44586100  0.15378700  1
  C  C33  1  0.45240600  0.56999800  0.19542500  1
  C  C34  1  0.51286000  0.35438900  0.86033800  1
  C  C35  1  0.48176900  0.17634200  0.90023600  1
  C  C36  1  0.51197700  0.76685500  0.17553500  1
  C  C37  1  0.67324100  0.33183200  0.31824900  1
  C  C38  1  0.36876600  0.76275000  0.65370600  1
  C  C39  1  0.34968400  0.67348900  0.69339000  1
  C  C40  1  0.40656200  0.56920900  0.63839100  1
  C  C41  1  0.48316900  0.55242300  0.54091500  1
  C  C42  1  0.50504700  0.64834100  0.50604400  1
  C  C43  1  0.54086600  0.44434000  0.47820700  1
  C  C44  1  0.61642300  0.43483100  0.38243600  1
  C  C45  1  0.63951100  0.52958700  0.35087800  1
  C  C46  1  0.58996600  0.63585400  0.41368900  1
  C  C47  1  0.52500000  0.34344100  0.50552800  1
  C  C48  1  0.65643100  0.23657400  0.34940200  1
  C  C49  1  0.94434300  0.64979600  0.39159300  1
  C  C50  1  0.92557100  0.68560800  0.31282900  1
  C  C51  1  0.99180100  0.64314400  0.21021300  1
  C  C52  1  0.07678200  0.56372600  0.18465400  1
  C  C53  1  0.09547100  0.52681000  0.26186000  1
  C  C54  1  0.02997300  0.56971600  0.36489200  1
  N  N1  1  0.58511600  0.24441500  0.44291800  1
  N  N2  1  0.44518100  0.75099900  0.56109800  1
  O  O1  1  0.53863600  0.97350500  0.32633100  1
  O  O2  1  0.48626800  0.80623800  0.36786900  1
  O  O3  1  0.71663400  0.08132500  0.47977100  1
  O  O4  1  0.66699700  0.90704200  0.51128100  1
  O  O5  1  0.53009900  0.19032100  0.63645500  1
  O  O6  1  0.48299400  0.02117200  0.67770200  1
  O  O7  1  0.36087000  0.08844800  0.49147200  1
  O  O8  1  0.31068200  0.91503400  0.52715000  1
  F  F1  1  0.14124900  0.52131100  0.08354300  1
