# generated using pymatgen
data_CuH14C25(NO4)3
_symmetry_space_group_name_H-M   'P 1'
_cell_length_a   10.87546500
_cell_length_b   15.64481100
_cell_length_c   17.00021600
_cell_angle_alpha   96.39833200
_cell_angle_beta   90.00247700
_cell_angle_gamma   92.86610000
_symmetry_Int_Tables_number   1
_chemical_formula_structural   CuH14C25(NO4)3
_chemical_formula_sum   'Cu2 H28 C50 N6 O24'
_cell_volume   2870.83639478
_cell_formula_units_Z   2
loop_
 _symmetry_equiv_pos_site_id
 _symmetry_equiv_pos_as_xyz
  1  'x, y, z'
loop_
 _atom_site_type_symbol
 _atom_site_label
 _atom_site_symmetry_multiplicity
 _atom_site_fract_x
 _atom_site_fract_y
 _atom_site_fract_z
 _atom_site_occupancy
  Cu  Cu1  1  0.49302100  0.41461400  0.50240500  1
  Cu  Cu2  1  0.50539700  0.58535400  0.50062600  1
  H  H1  1  0.88465100  0.39207900  0.41684500  1
  H  H2  1  0.89958100  0.48218900  0.62716100  1
  H  H3  1  0.87986400  0.52738000  0.38707200  1
  H  H4  1  0.89239200  0.61961600  0.45551600  1
  H  H5  1  0.46434300  0.39289700  0.74268600  1
  H  H6  1  0.35495600  0.37754200  0.10079200  1
  H  H7  1  0.53029600  0.66527700  0.75928600  1
  H  H8  1  0.61097800  0.59328100  0.11710800  1
  H  H9  1  0.54787800  0.66971600  0.90323700  1
  H  H10  1  0.61390700  0.88573200  0.62005000  1
  H  H11  1  0.62142300  0.72953800  0.60277000  1
  H  H12  1  0.36816500  0.27191400  0.40619300  1
  H  H13  1  0.07196400  0.33457000  0.59107100  1
  H  H14  1  0.19816100  0.65542000  0.58784000  1
  H  H15  1  0.82881700  0.61086100  0.67956400  1
  H  H16  1  0.55544700  0.36657100  0.94458000  1
  H  H17  1  0.28344500  0.31833100  0.22796600  1
  H  H18  1  0.18851900  0.37635600  0.37410700  1
  H  H19  1  0.71360100  0.57915200  0.32069100  1
  H  H20  1  0.65696400  0.35668800  0.62274400  1
  H  H21  1  0.61711700  0.07192700  0.63600000  1
  H  H22  1  0.28739000  0.93820200  0.45301900  1
  H  H23  1  0.29404100  0.14044400  0.33363100  1
  H  H24  1  0.35314800  0.64706800  0.37131100  1
  H  H25  1  0.86440200  0.34024300  0.58569800  1
  H  H26  1  0.05528800  0.45160600  0.68924800  1
  H  H27  1  0.07124000  0.69244600  0.49978300  1
  H  H28  1  0.02880100  0.50951400  0.30813200  1
  C  C1  1  0.51050100  0.47886600  0.34878000  1
  C  C2  1  0.26043900  0.49854100  0.49647500  1
  C  C3  1  0.49245200  0.52109400  0.65385200  1
  C  C4  1  0.73702200  0.50072700  0.50769600  1
  C  C5  1  0.06045400  0.40289600  0.47794000  1
  C  C6  1  0.91922300  0.40641300  0.47832600  1
  C  C7  1  0.07543700  0.53295800  0.58697600  1
  C  C8  1  0.06358900  0.55646500  0.43802800  1
  C  C9  1  0.11868100  0.49840600  0.50002900  1
  C  C10  1  0.87701600  0.49792000  0.50640600  1
  C  C11  1  0.93253400  0.53002900  0.58809900  1
  C  C12  1  0.92350600  0.55329300  0.44395900  1
  C  C13  1  0.51381300  0.47226800  0.26076800  1
  C  C14  1  0.57877300  0.53613300  0.22361700  1
  C  C15  1  0.55919100  0.54370500  0.14414300  1
  C  C16  1  0.47541800  0.48835800  0.10046300  1
  C  C17  1  0.41554700  0.42361300  0.13601600  1
  C  C18  1  0.43677200  0.41311100  0.21416700  1
  C  C19  1  0.49821000  0.45510500  0.85823600  1
  C  C20  1  0.48165800  0.45404100  0.77765800  1
  C  C21  1  0.51855600  0.53392500  0.90450100  1
  C  C22  1  0.49474700  0.52851400  0.74092700  1
  C  C23  1  0.51857200  0.60621500  0.78652600  1
  C  C24  1  0.52960000  0.60860900  0.86782700  1
  C  C25  1  0.44983800  0.75408200  0.44585500  1
  C  C26  1  0.42989000  0.84199400  0.46044700  1
  C  C27  1  0.49483600  0.89051900  0.52135800  1
  C  C28  1  0.56506200  0.84899000  0.57107800  1
  C  C29  1  0.56995900  0.76059800  0.56070200  1
  C  C30  1  0.55580500  0.15649800  0.54753700  1
  C  C31  1  0.54999000  0.24579100  0.55709300  1
  C  C32  1  0.49113500  0.10793200  0.48601200  1
  C  C33  1  0.42164100  0.23966500  0.44609200  1
  C  C34  1  0.42542700  0.15112800  0.43409500  1
  C  C35  1  0.09825000  0.33596000  0.53002800  1
  C  C36  1  0.13045700  0.62018500  0.61943000  1
  C  C37  1  0.87920300  0.61197800  0.62463100  1
  C  C38  1  0.50662300  0.37140000  0.88983600  1
  C  C39  1  0.37883800  0.33634900  0.24294900  1
  C  C40  1  0.09821300  0.36197700  0.39734500  1
  C  C41  1  0.67506100  0.59364000  0.26539500  1
  C  C42  1  0.61268800  0.29420800  0.62629100  1
  C  C43  1  0.64653500  0.11688900  0.59482600  1
  C  C44  1  0.32518400  0.88050300  0.42337100  1
  C  C45  1  0.36066300  0.10649900  0.36409900  1
  C  C46  1  0.40641200  0.70659200  0.37138200  1
  C  C47  1  0.86507200  0.33535300  0.52163800  1
  C  C48  1  0.11874200  0.48096200  0.64975900  1
  C  C49  1  0.09917200  0.65101200  0.44864800  1
  C  C50  1  0.09815000  0.52845400  0.35333200  1
  N  N1  1  0.45704400  0.49047100  0.01826000  1
  N  N2  1  0.53203900  0.53972100  0.98790500  1
  N  N3  1  0.51300300  0.71343300  0.49875400  1
  N  N4  1  0.48955900  0.98129300  0.53503800  1
  N  N5  1  0.49615100  0.01686200  0.47295200  1
  N  N6  1  0.48512600  0.28662100  0.50510800  1
  O  O1  1  0.49528200  0.41032400  0.38693700  1
  O  O2  1  0.51674200  0.55655200  0.38629000  1
  O  O3  1  0.31511200  0.42525800  0.49561600  1
  O  O4  1  0.32558100  0.57192500  0.49817600  1
  O  O5  1  0.48409500  0.44343200  0.61680600  1
  O  O6  1  0.50189300  0.58979500  0.61604300  1
  O  O7  1  0.67236700  0.42775300  0.50341300  1
  O  O8  1  0.68342800  0.57488700  0.50873700  1
  O  O9  1  0.15568700  0.27557200  0.50068900  1
  O  O10  1  0.11482100  0.64629800  0.68890300  1
  O  O11  1  0.88903100  0.67889000  0.59409100  1
  O  O12  1  0.46361400  0.30551600  0.85269100  1
  O  O13  1  0.44278600  0.28407500  0.26890200  1
  O  O14  1  0.03632100  0.30222200  0.36251600  1
  O  O15  1  0.71644500  0.65691400  0.23654400  1
  O  O16  1  0.61087100  0.26602700  0.69039100  1
  O  O17  1  0.75587800  0.13693400  0.59011500  1
  O  O18  1  0.27453400  0.84744100  0.36279400  1
  O  O19  1  0.38723500  0.03487100  0.33568700  1
  O  O20  1  0.43617400  0.73198700  0.30847100  1
  O  O21  1  0.81911400  0.27083200  0.48383400  1
  O  O22  1  0.22831400  0.47687000  0.66222700  1
  O  O23  1  0.13446400  0.68589100  0.39161500  1
  O  O24  1  0.20575400  0.52682900  0.33342300  1
