# generated using pymatgen
data_FeH12C22(NO5)2
_symmetry_space_group_name_H-M   'P 1'
_cell_length_a   9.49928900
_cell_length_b   16.53470800
_cell_length_c   19.76867800
_cell_angle_alpha   102.62990500
_cell_angle_beta   85.68970600
_cell_angle_gamma   76.20888900
_symmetry_Int_Tables_number   1
_chemical_formula_structural   FeH12C22(NO5)2
_chemical_formula_sum   'Fe2 H24 C44 N4 O20'
_cell_volume   2915.88417736
_cell_formula_units_Z   2
loop_
 _symmetry_equiv_pos_site_id
 _symmetry_equiv_pos_as_xyz
  1  'x, y, z'
loop_
 _atom_site_type_symbol
 _atom_site_label
 _atom_site_symmetry_multiplicity
 _atom_site_fract_x
 _atom_site_fract_y
 _atom_site_fract_z
 _atom_site_occupancy
  Fe  Fe1  1  0.48692500  0.01264600  0.36102300  1
  Fe  Fe2  1  0.49848800  0.99915500  0.64624900  1
  H  H1  1  0.96229300  0.98948600  0.66568900  1
  H  H2  1  0.21385100  0.98778500  0.83581200  1
  H  H3  1  0.77274600  0.96892100  0.86014100  1
  H  H4  1  0.78099000  0.06743500  0.96333300  1
  H  H5  1  0.78502800  0.07469700  0.08652300  1
  H  H6  1  0.21865800  0.90863000  0.04156900  1
  H  H7  1  0.21457500  0.90123900  0.91784900  1
  H  H8  1  0.22847900  0.00865700  0.14329100  1
  H  H9  1  0.78891500  0.98985500  0.17026100  1
  H  H10  1  0.21091100  0.28233700  0.45072700  1
  H  H11  1  0.86033400  0.57164400  0.35005100  1
  H  H12  1  0.73562800  0.69203900  0.30741200  1
  H  H13  1  0.11094800  0.47044500  0.72683600  1
  H  H14  1  0.97421600  0.48149500  0.67329400  1
  H  H15  1  0.19527400  0.55429200  0.68935200  1
  H  H16  1  0.38880200  0.27627900  0.72433000  1
  H  H17  1  0.21195500  0.34711600  0.75868600  1
  H  H18  1  0.47318100  0.37171400  0.70140200  1
  H  H19  1  0.85723400  0.68039500  0.59362100  1
  H  H20  1  0.68631700  0.75817200  0.61447500  1
  H  H21  1  0.97117500  0.76908100  0.57640800  1
  H  H22  1  0.10286800  0.08384400  0.38392900  1
  H  H23  1  0.00963900  0.00586200  0.39630600  1
  H  H24  1  0.91436700  0.17821600  0.39236900  1
  C  C1  1  0.10422000  0.98641900  0.74512600  1
  C  C2  1  0.11367600  0.98406500  0.81433800  1
  C  C3  1  0.99334900  0.97993900  0.85663400  1
  C  C4  1  0.86580900  0.97502700  0.82862000  1
  C  C5  1  0.85436900  0.98003100  0.76068300  1
  C  C6  1  0.97261300  0.98671700  0.71923900  1
  C  C7  1  0.87687100  0.03075000  0.97963100  1
  C  C8  1  0.87891600  0.03491200  0.04988100  1
  C  C9  1  0.00176800  0.99208700  0.07317900  1
  C  C10  1  0.12222100  0.94433000  0.02496300  1
  C  C11  1  0.12015000  0.94011900  0.95455900  1
  C  C12  1  0.99740100  0.98343500  0.93139300  1
  C  C13  1  0.13213700  0.00934100  0.17635900  1
  C  C14  1  0.13660100  0.02037200  0.24703600  1
  C  C15  1  0.01252600  0.02691400  0.29206000  1
  C  C16  1  0.88805800  0.01228300  0.26371300  1
  C  C17  1  0.88536100  0.00087300  0.19228700  1
  C  C18  1  0.00626600  0.00078700  0.14854200  1
  C  C19  1  0.75899200  0.00791600  0.30767400  1
  C  C20  1  0.61070000  0.85294900  0.37869100  1
  C  C21  1  0.27482300  0.02403100  0.27321900  1
  C  C22  1  0.34566900  0.13869800  0.47881100  1
  C  C23  1  0.29087100  0.22178700  0.52970000  1
  C  C24  1  0.22137000  0.29107500  0.50575600  1
  C  C25  1  0.14964100  0.36793200  0.55190600  1
  C  C26  1  0.16631500  0.38050400  0.62256900  1
  C  C27  1  0.25268800  0.31339000  0.64575200  1
  C  C28  1  0.30025900  0.23138800  0.60071400  1
  C  C29  1  0.90516300  0.56580100  0.47852900  1
  C  C30  1  0.06092500  0.43585400  0.52411900  1
  C  C31  1  0.81277500  0.63286000  0.38685900  1
  C  C32  1  0.74126900  0.70151800  0.36286600  1
  C  C33  1  0.67870500  0.78066000  0.40850900  1
  C  C34  1  0.68833900  0.78972000  0.47974300  1
  C  C35  1  0.76425900  0.72080600  0.50396400  1
  C  C36  1  0.82413100  0.64120500  0.45691500  1
  C  C37  1  0.71732100  0.97729800  0.73232400  1
  C  C38  1  0.63166200  0.87326700  0.52964700  1
  C  C39  1  0.23108500  0.98946100  0.69892000  1
  C  C40  1  0.35276700  0.15566600  0.62891500  1
  C  C41  1  0.09443000  0.46684100  0.67175100  1
  C  C42  1  0.30491300  0.33114600  0.71637800  1
  C  C43  1  0.79164500  0.73713700  0.57933700  1
  C  C44  1  0.00852900  0.05864500  0.36995000  1
  N  N1  1  0.92197800  0.47531800  0.55322600  1
  N  N2  1  0.84486400  0.53949300  0.53073100  1
  N  N3  1  0.04090800  0.52289200  0.44639900  1
  N  N4  1  0.11797400  0.45851300  0.46890900  1
  O  O1  1  0.62961300  0.02169200  0.28664200  1
  O  O2  1  0.62933000  0.84316900  0.31064700  1
  O  O3  1  0.77233900  0.98632700  0.36730900  1
  O  O4  1  0.53782300  0.92830300  0.41842600  1
  O  O5  1  0.32556300  0.97449100  0.31427100  1
  O  O6  1  0.33992600  0.08218800  0.26146600  1
  O  O7  1  0.44502200  0.12987700  0.42582000  1
  O  O8  1  0.28970200  0.07458500  0.48381200  1
  O  O9  1  0.67147300  0.02583500  0.68985300  1
  O  O10  1  0.64242700  0.92522600  0.74810300  1
  O  O11  1  0.52208000  0.88543800  0.57862600  1
  O  O12  1  0.70111900  0.93314700  0.53024100  1
  O  O13  1  0.29277500  0.15427100  0.69048200  1
  O  O14  1  0.35629300  0.99288400  0.72227500  1
  O  O15  1  0.45438800  0.08817400  0.59266500  1
  O  O16  1  0.21895300  0.98992700  0.63330400  1
  O  O17  1  0.14627200  0.53051900  0.65015000  1
  O  O18  1  0.37029400  0.39909900  0.72257600  1
  O  O19  1  0.86745900  0.80028100  0.59310600  1
  O  O20  1  0.88383800  0.12617400  0.39677500  1
