# generated using pymatgen
data_Cu3H32C54(N4O7)4
_symmetry_space_group_name_H-M   'P 1'
_cell_length_a   35.22041800
_cell_length_b   35.22041800
_cell_length_c   23.49971600
_cell_angle_alpha   90.00000000
_cell_angle_beta   90.00000000
_cell_angle_gamma   90.00000000
_symmetry_Int_Tables_number   1
_chemical_formula_structural   Cu3H32C54(N4O7)4
_chemical_formula_sum   'Cu12 H128 C216 N64 O112'
_cell_volume   29150.87704052
_cell_formula_units_Z   4
loop_
 _symmetry_equiv_pos_site_id
 _symmetry_equiv_pos_as_xyz
  1  'x, y, z'
loop_
 _atom_site_type_symbol
 _atom_site_label
 _atom_site_symmetry_multiplicity
 _atom_site_fract_x
 _atom_site_fract_y
 _atom_site_fract_z
 _atom_site_occupancy
  Cu  Cu1  1  0.03710600  0.50000000  0.50000000  1
  Cu  Cu2  1  0.00000000  0.00000000  0.44433500  1
  Cu  Cu3  1  0.50000000  0.50000000  0.05566500  1
  Cu  Cu4  1  0.50000000  0.50000000  0.94433500  1
  Cu  Cu5  1  0.50000000  0.96289400  0.50000000  1
  Cu  Cu6  1  0.96289400  0.50000000  0.50000000  1
  Cu  Cu7  1  0.50000000  0.03710600  0.50000000  1
  Cu  Cu8  1  0.53710600  0.00000000  0.00000000  1
  Cu  Cu9  1  0.00000000  0.46289400  0.00000000  1
  Cu  Cu10  1  0.46289400  0.00000000  0.00000000  1
  Cu  Cu11  1  0.00000000  0.53710600  0.00000000  1
  Cu  Cu12  1  0.00000000  0.00000000  0.55566500  1
  H  H1  1  0.90665100  0.17004900  0.41373700  1
  H  H2  1  0.90891000  0.78532200  0.61194700  1
  H  H3  1  0.36816100  0.09806600  0.49766600  1
  H  H4  1  0.10699900  0.58869400  0.46984200  1
  H  H5  1  0.09806600  0.63183900  0.49766600  1
  H  H6  1  0.58869500  0.89300000  0.46984300  1
  H  H7  1  0.63183900  0.90193400  0.49766600  1
  H  H8  1  0.89300000  0.58869500  0.53015700  1
  H  H9  1  0.90193300  0.63183800  0.50233400  1
  H  H10  1  0.41130500  0.89300000  0.53015700  1
  H  H11  1  0.36816100  0.90193300  0.50233400  1
  H  H12  1  0.10699900  0.41130600  0.53015800  1
  H  H13  1  0.17004900  0.90665100  0.58626300  1
  H  H14  1  0.09806600  0.36816100  0.50233400  1
  H  H15  1  0.58869500  0.10700000  0.53015700  1
  H  H16  1  0.63183900  0.09806600  0.50233400  1
  H  H17  1  0.39300000  0.91130500  0.96984300  1
  H  H18  1  0.40193400  0.86816100  0.99766600  1
  H  H19  1  0.91130500  0.60700000  0.96984300  1
  H  H20  1  0.86816100  0.59806600  0.99766600  1
  H  H21  1  0.60700000  0.08869400  0.96984200  1
  H  H22  1  0.59806600  0.13183900  0.99766600  1
  H  H23  1  0.08869400  0.39300000  0.96984200  1
  H  H24  1  0.21467800  0.90891000  0.61194700  1
  H  H25  1  0.13183900  0.40193400  0.99766600  1
  H  H26  1  0.39300000  0.08869500  0.03015800  1
  H  H27  1  0.40193400  0.13183900  0.00233400  1
  H  H28  1  0.91130500  0.39300000  0.03015800  1
  H  H29  1  0.86816100  0.40193400  0.00233400  1
  H  H30  1  0.60700000  0.91130500  0.03015800  1
  H  H31  1  0.59806600  0.86816100  0.00233400  1
  H  H32  1  0.08869400  0.60700000  0.03015800  1
  H  H33  1  0.13183900  0.59806600  0.00233400  1
  H  H34  1  0.09334900  0.17004900  0.58626300  1
  H  H35  1  0.09109000  0.21467800  0.61194700  1
  H  H36  1  0.82995100  0.09334900  0.58626300  1
  H  H37  1  0.78532200  0.09109000  0.61194700  1
  H  H38  1  0.40665200  0.67004900  0.91373700  1
  H  H39  1  0.40891000  0.71467800  0.88805300  1
  H  H40  1  0.67004900  0.59334800  0.91373700  1
  H  H41  1  0.90891000  0.21467800  0.38805300  1
  H  H42  1  0.71467800  0.59109000  0.88805300  1
  H  H43  1  0.59334800  0.32995100  0.91373700  1
  H  H44  1  0.59109000  0.28532200  0.88805300  1
  H  H45  1  0.32995000  0.40665100  0.91373700  1
  H  H46  1  0.28532200  0.40891000  0.88805300  1
  H  H47  1  0.40665100  0.32995100  0.08626300  1
  H  H48  1  0.40891000  0.28532200  0.11194700  1
  H  H49  1  0.67004900  0.40665100  0.08626300  1
  H  H50  1  0.71467800  0.40891000  0.11194700  1
  H  H51  1  0.59334800  0.67004900  0.08626300  1
  H  H52  1  0.17004900  0.09334900  0.41373700  1
  H  H53  1  0.59109000  0.71467800  0.11194700  1
  H  H54  1  0.32995100  0.59334900  0.08626300  1
  H  H55  1  0.28532200  0.59109000  0.11194700  1
  H  H56  1  0.97396400  0.08936400  0.34040700  1
  H  H57  1  0.99291400  0.13242400  0.35295700  1
  H  H58  1  0.08936400  0.02603600  0.34040700  1
  H  H59  1  0.13242400  0.00708600  0.35295700  1
  H  H60  1  0.02603600  0.91063600  0.34040700  1
  H  H61  1  0.00708600  0.86757600  0.35295700  1
  H  H62  1  0.91063600  0.97396400  0.34040700  1
  H  H63  1  0.21467800  0.09109000  0.38805300  1
  H  H64  1  0.86757600  0.99291400  0.35295700  1
  H  H65  1  0.97396400  0.91063600  0.65959200  1
  H  H66  1  0.99291400  0.86757600  0.64704300  1
  H  H67  1  0.08936400  0.97396400  0.65959200  1
  H  H68  1  0.13242400  0.99291400  0.64704300  1
  H  H69  1  0.02603600  0.08936400  0.65959300  1
  H  H70  1  0.00708600  0.13242400  0.64704300  1
  H  H71  1  0.91063600  0.02603600  0.65959300  1
  H  H72  1  0.86757600  0.00708600  0.64704300  1
  H  H73  1  0.47396400  0.58936400  0.84040700  1
  H  H74  1  0.09334900  0.82995100  0.41373700  1
  H  H75  1  0.49291400  0.63242400  0.85295700  1
  H  H76  1  0.58936400  0.52603600  0.84040700  1
  H  H77  1  0.63242400  0.50708600  0.85295700  1
  H  H78  1  0.52603600  0.41063600  0.84040700  1
  H  H79  1  0.50708600  0.36757600  0.85295700  1
  H  H80  1  0.41063600  0.47396400  0.84040700  1
  H  H81  1  0.36757600  0.49291400  0.85295700  1
  H  H82  1  0.47396400  0.41063600  0.15959300  1
  H  H83  1  0.49291400  0.36757600  0.14704300  1
  H  H84  1  0.58936400  0.47396400  0.15959300  1
  H  H85  1  0.09109000  0.78532200  0.38805300  1
  H  H86  1  0.63242400  0.49291400  0.14704300  1
  H  H87  1  0.52603600  0.58936400  0.15959300  1
  H  H88  1  0.50708600  0.63242400  0.14704300  1
  H  H89  1  0.41063600  0.52603600  0.15959300  1
  H  H90  1  0.36757600  0.50708600  0.14704300  1
  H  H91  1  0.91271300  0.29406100  0.37144000  1
  H  H92  1  0.95857900  0.30648300  0.36175400  1
  H  H93  1  0.29406100  0.08728700  0.37144000  1
  H  H94  1  0.30648400  0.04142000  0.36175500  1
  H  H95  1  0.08728700  0.70593900  0.37144000  1
  H  H96  1  0.82995100  0.90665100  0.41373700  1
  H  H97  1  0.04142000  0.69351700  0.36175400  1
  H  H98  1  0.70593900  0.91271300  0.37144000  1
  H  H99  1  0.69351700  0.95858000  0.36175400  1
  H  H100  1  0.91271400  0.70593900  0.62856100  1
  H  H101  1  0.95857900  0.69351700  0.63824600  1
  H  H102  1  0.29406100  0.91271300  0.62856000  1
  H  H103  1  0.30648300  0.95857900  0.63824600  1
  H  H104  1  0.08728700  0.29406100  0.62856000  1
  H  H105  1  0.04142000  0.30648400  0.63824500  1
  H  H106  1  0.70593900  0.08728700  0.62856100  1
  H  H107  1  0.78532200  0.90891000  0.38805300  1
  H  H108  1  0.69351700  0.04142100  0.63824600  1
  H  H109  1  0.41271400  0.79406100  0.87143900  1
  H  H110  1  0.45858000  0.80648300  0.86175400  1
  H  H111  1  0.79406100  0.58728700  0.87143900  1
  H  H112  1  0.80648300  0.54142000  0.86175400  1
  H  H113  1  0.58728700  0.20593900  0.87144000  1
  H  H114  1  0.54142000  0.19351700  0.86175400  1
  H  H115  1  0.20593900  0.41271300  0.87144000  1
  H  H116  1  0.19351700  0.45858000  0.86175400  1
  H  H117  1  0.41271300  0.20593900  0.12856100  1
  H  H118  1  0.90665100  0.82995100  0.58626300  1
  H  H119  1  0.45858000  0.19351700  0.13824600  1
  H  H120  1  0.79406100  0.41271300  0.12856000  1
  H  H121  1  0.80648300  0.45858000  0.13824600  1
  H  H122  1  0.58728700  0.79406100  0.12856000  1
  H  H123  1  0.54142000  0.80648300  0.13824600  1
  H  H124  1  0.20593900  0.58728700  0.12856000  1
  H  H125  1  0.19351700  0.54142000  0.13824600  1
  H  H126  1  0.89300000  0.41130500  0.46984300  1
  H  H127  1  0.90193300  0.36816100  0.49766600  1
  H  H128  1  0.41130600  0.10699900  0.46984200  1
  C  C1  1  0.00000000  0.42795800  0.50000000  1
  C  C2  1  0.50000000  0.00000000  0.60768100  1
  C  C3  1  0.67285700  0.97114800  0.47294500  1
  C  C4  1  0.97114800  0.67285700  0.52705500  1
  C  C5  1  0.32714300  0.97114800  0.52705500  1
  C  C6  1  0.02885200  0.32714300  0.52705500  1
  C  C7  1  0.67285700  0.02885200  0.52705500  1
  C  C8  1  0.47114800  0.82714300  0.97294500  1
  C  C9  1  0.82714300  0.52885100  0.97294500  1
  C  C10  1  0.52885100  0.17285700  0.97294500  1
  C  C11  1  0.17285700  0.47114900  0.97294500  1
  C  C12  1  0.47114800  0.17285700  0.02705500  1
  C  C13  1  0.00000000  0.50000000  0.39232000  1
  C  C14  1  0.82714300  0.47114800  0.02705500  1
  C  C15  1  0.52885200  0.82714300  0.02705500  1
  C  C16  1  0.17285700  0.52885200  0.02705500  1
  C  C17  1  0.97117100  0.36649000  0.47270800  1
  C  C18  1  0.36649000  0.02882900  0.47270800  1
  C  C19  1  0.02882900  0.63351000  0.47270800  1
  C  C20  1  0.63351000  0.97117100  0.47270800  1
  C  C21  1  0.97117100  0.63351000  0.52729200  1
  C  C22  1  0.36649000  0.97117100  0.52729200  1
  C  C23  1  0.02882900  0.36649000  0.52729200  1
  C  C24  1  0.50000000  0.00000000  0.39232000  1
  C  C25  1  0.63351000  0.02882900  0.52729200  1
  C  C26  1  0.47117100  0.86649000  0.97270800  1
  C  C27  1  0.86649000  0.52882900  0.97270800  1
  C  C28  1  0.52882900  0.13351000  0.97270800  1
  C  C29  1  0.13351000  0.47117100  0.97270800  1
  C  C30  1  0.47117100  0.13351000  0.02729200  1
  C  C31  1  0.86649000  0.47117100  0.02729200  1
  C  C32  1  0.52882900  0.86649000  0.02729200  1
  C  C33  1  0.13351000  0.52882900  0.02729200  1
  C  C34  1  0.00000000  0.38624000  0.50000000  1
  C  C35  1  0.50000000  0.00000000  0.10768100  1
  C  C36  1  0.38624000  0.00000000  0.50000000  1
  C  C37  1  0.00000000  0.61376000  0.50000000  1
  C  C38  1  0.61376000  0.00000000  0.50000000  1
  C  C39  1  0.50000000  0.88624000  0.00000000  1
  C  C40  1  0.88624000  0.50000000  0.00000000  1
  C  C41  1  0.50000000  0.11376000  0.00000000  1
  C  C42  1  0.11376000  0.50000000  0.00000000  1
  C  C43  1  0.00000000  0.30766600  0.50000000  1
  C  C44  1  0.30766600  0.00000000  0.50000000  1
  C  C45  1  0.00000000  0.69233400  0.50000000  1
  C  C46  1  0.00000000  0.50000000  0.10768000  1
  C  C47  1  0.69233400  0.00000000  0.50000000  1
  C  C48  1  0.50000000  0.80766600  0.00000000  1
  C  C49  1  0.80766600  0.50000000  0.00000000  1
  C  C50  1  0.50000000  0.19233400  0.00000000  1
  C  C51  1  0.19233400  0.50000000  0.00000000  1
  C  C52  1  0.92806400  0.00000000  0.50000000  1
  C  C53  1  0.00000000  0.07193600  0.50000000  1
  C  C54  1  0.07193600  0.00000000  0.50000000  1
  C  C55  1  0.00000000  0.92806400  0.50000000  1
  C  C56  1  0.42806400  0.50000000  0.00000000  1
  C  C57  1  0.50000000  0.00000000  0.89232000  1
  C  C58  1  0.50000000  0.57193600  0.00000000  1
  C  C59  1  0.57193600  0.50000000  0.00000000  1
  C  C60  1  0.50000000  0.42806400  0.00000000  1
  C  C61  1  0.95857000  0.19425000  0.41631700  1
  C  C62  1  0.19425000  0.04143000  0.41631700  1
  C  C63  1  0.04143000  0.80575000  0.41631600  1
  C  C64  1  0.80575000  0.95857000  0.41631600  1
  C  C65  1  0.95857000  0.80575000  0.58368300  1
  C  C66  1  0.19425000  0.95857000  0.58368300  1
  C  C67  1  0.04143000  0.19425000  0.58368400  1
  C  C68  1  0.00000000  0.50000000  0.89232000  1
  C  C69  1  0.80575000  0.04143000  0.58368400  1
  C  C70  1  0.45857000  0.69425000  0.91631600  1
  C  C71  1  0.69425000  0.54142900  0.91631600  1
  C  C72  1  0.54143000  0.30575000  0.91631600  1
  C  C73  1  0.30575000  0.45857000  0.91631600  1
  C  C74  1  0.45857000  0.30575000  0.08368400  1
  C  C75  1  0.69425000  0.45857000  0.08368400  1
  C  C76  1  0.54143000  0.69425000  0.08368400  1
  C  C77  1  0.30575000  0.54143000  0.08368400  1
  C  C78  1  0.95872800  0.11265400  0.41472000  1
  C  C79  1  0.00000000  0.50000000  0.66870300  1
  C  C80  1  0.11265400  0.04127200  0.41472000  1
  C  C81  1  0.04127200  0.88734600  0.41472000  1
  C  C82  1  0.88734600  0.95872800  0.41472000  1
  C  C83  1  0.95872800  0.88734600  0.58528000  1
  C  C84  1  0.11265400  0.95872800  0.58528000  1
  C  C85  1  0.04127200  0.11265400  0.58528000  1
  C  C86  1  0.88734600  0.04127200  0.58528000  1
  C  C87  1  0.45872800  0.61265400  0.91471900  1
  C  C88  1  0.61265400  0.54127200  0.91472000  1
  C  C89  1  0.54127200  0.38734600  0.91472000  1
  C  C90  1  0.50000000  0.00000000  0.66870300  1
  C  C91  1  0.38734600  0.45872800  0.91472000  1
  C  C92  1  0.45872800  0.38734600  0.08528000  1
  C  C93  1  0.61265400  0.45872800  0.08528100  1
  C  C94  1  0.54127200  0.61265400  0.08528000  1
  C  C95  1  0.38734600  0.54127200  0.08528000  1
  C  C96  1  0.94134200  0.30582100  0.44300400  1
  C  C97  1  0.30582100  0.05865800  0.44300400  1
  C  C98  1  0.05865800  0.69417900  0.44300400  1
  C  C99  1  0.69417900  0.94134200  0.44300400  1
  C  C100  1  0.94134200  0.69417900  0.55699600  1
  C  C101  1  0.00000000  0.50000000  0.33129700  1
  C  C102  1  0.30582100  0.94134200  0.55699600  1
  C  C103  1  0.05865800  0.30582100  0.55699600  1
  C  C104  1  0.69417900  0.05865800  0.55699600  1
  C  C105  1  0.44134200  0.80582100  0.94300400  1
  C  C106  1  0.80582100  0.55865800  0.94300400  1
  C  C107  1  0.55865800  0.19417900  0.94300400  1
  C  C108  1  0.19417900  0.44134200  0.94300400  1
  C  C109  1  0.44134200  0.19417900  0.05699600  1
  C  C110  1  0.80582100  0.44134200  0.05699600  1
  C  C111  1  0.55865800  0.80582100  0.05699600  1
  C  C112  1  0.42795800  0.00000000  0.50000000  1
  C  C113  1  0.50000000  0.00000000  0.33129800  1
  C  C114  1  0.19417900  0.55865800  0.05699600  1
  C  C115  1  0.94115800  0.38718900  0.44243000  1
  C  C116  1  0.38718900  0.05884200  0.44243000  1
  C  C117  1  0.05884200  0.61281100  0.44243000  1
  C  C118  1  0.61281100  0.94115800  0.44243000  1
  C  C119  1  0.94115800  0.61281100  0.55757000  1
  C  C120  1  0.38718900  0.94115800  0.55757000  1
  C  C121  1  0.05884200  0.38718900  0.55757000  1
  C  C122  1  0.61281100  0.05884200  0.55757000  1
  C  C123  1  0.44115800  0.88718900  0.94243000  1
  C  C124  1  0.50000000  0.00000000  0.16870300  1
  C  C125  1  0.88718900  0.55884200  0.94243000  1
  C  C126  1  0.55884200  0.11281100  0.94243000  1
  C  C127  1  0.11281100  0.44115800  0.94243000  1
  C  C128  1  0.44115800  0.11281100  0.05757000  1
  C  C129  1  0.88718900  0.44115800  0.05757000  1
  C  C130  1  0.55884200  0.88718900  0.05757000  1
  C  C131  1  0.11281100  0.55884200  0.05757000  1
  C  C132  1  0.00000000  0.50000000  0.16870300  1
  C  C133  1  0.50000000  0.00000000  0.83129800  1
  C  C134  1  0.00000000  0.50000000  0.83129700  1
  C  C135  1  0.00000000  0.50000000  0.71996600  1
  C  C136  1  0.50000000  0.00000000  0.71996600  1
  C  C137  1  0.00000000  0.50000000  0.28003400  1
  C  C138  1  0.50000000  0.00000000  0.28003400  1
  C  C139  1  0.50000000  0.00000000  0.21996600  1
  C  C140  1  0.00000000  0.57204200  0.50000000  1
  C  C141  1  0.00000000  0.50000000  0.21996600  1
  C  C142  1  0.50000000  0.00000000  0.78003400  1
  C  C143  1  0.00000000  0.50000000  0.78003400  1
  C  C144  1  0.98032400  0.17260200  0.45851000  1
  C  C145  1  0.17260200  0.01967600  0.45851000  1
  C  C146  1  0.01967600  0.82739800  0.45851000  1
  C  C147  1  0.82739800  0.98032400  0.45851000  1
  C  C148  1  0.98032400  0.82739800  0.54149000  1
  C  C149  1  0.17260200  0.98032400  0.54149000  1
  C  C150  1  0.01967600  0.17260200  0.54149000  1
  C  C151  1  0.57204200  0.00000000  0.50000000  1
  C  C152  1  0.82739800  0.01967600  0.54149000  1
  C  C153  1  0.48032400  0.67260200  0.95851000  1
  C  C154  1  0.67260200  0.51967600  0.95851000  1
  C  C155  1  0.51967600  0.32739800  0.95851000  1
  C  C156  1  0.32739800  0.48032400  0.95851000  1
  C  C157  1  0.48032400  0.32739800  0.04149000  1
  C  C158  1  0.67260200  0.48032400  0.04149000  1
  C  C159  1  0.51967600  0.67260200  0.04149000  1
  C  C160  1  0.32739800  0.51967600  0.04149000  1
  C  C161  1  0.98048200  0.13329100  0.45808600  1
  C  C162  1  0.50000000  0.92795800  0.00000000  1
  C  C163  1  0.13329100  0.01951800  0.45808600  1
  C  C164  1  0.01951800  0.86670900  0.45808600  1
  C  C165  1  0.86670900  0.98048200  0.45808600  1
  C  C166  1  0.98048200  0.86670900  0.54191400  1
  C  C167  1  0.13329100  0.98048200  0.54191400  1
  C  C168  1  0.01951800  0.13329100  0.54191400  1
  C  C169  1  0.86670900  0.01951800  0.54191400  1
  C  C170  1  0.48048200  0.63329100  0.95808600  1
  C  C171  1  0.63329100  0.51951800  0.95808600  1
  C  C172  1  0.51951800  0.36670900  0.95808600  1
  C  C173  1  0.92795800  0.50000000  0.00000000  1
  C  C174  1  0.36670900  0.48048200  0.95808600  1
  C  C175  1  0.48048200  0.36670900  0.04191400  1
  C  C176  1  0.63329100  0.48048200  0.04191400  1
  C  C177  1  0.51951800  0.63329100  0.04191400  1
  C  C178  1  0.36670900  0.51951800  0.04191400  1
  C  C179  1  0.00000000  0.11357100  0.50000000  1
  C  C180  1  0.11357100  0.00000000  0.50000000  1
  C  C181  1  0.00000000  0.88642900  0.50000000  1
  C  C182  1  0.88642900  0.00000000  0.50000000  1
  C  C183  1  0.50000000  0.61357100  0.00000000  1
  C  C184  1  0.50000000  0.07204200  0.00000000  1
  C  C185  1  0.61357100  0.50000000  0.00000000  1
  C  C186  1  0.50000000  0.38642900  0.00000000  1
  C  C187  1  0.38642900  0.50000000  0.00000000  1
  C  C188  1  0.00000000  0.19199800  0.50000000  1
  C  C189  1  0.19199800  0.00000000  0.50000000  1
  C  C190  1  0.00000000  0.80800200  0.50000000  1
  C  C191  1  0.80800200  0.00000000  0.50000000  1
  C  C192  1  0.50000000  0.69199800  0.00000000  1
  C  C193  1  0.69199800  0.50000000  0.00000000  1
  C  C194  1  0.50000000  0.30800200  0.00000000  1
  C  C195  1  0.07204200  0.50000000  0.00000000  1
  C  C196  1  0.30800200  0.50000000  0.00000000  1
  C  C197  1  0.00000000  0.23271300  0.50000000  1
  C  C198  1  0.23271300  0.00000000  0.50000000  1
  C  C199  1  0.00000000  0.76728700  0.50000000  1
  C  C200  1  0.76728700  0.00000000  0.50000000  1
  C  C201  1  0.50000000  0.73271300  0.00000000  1
  C  C202  1  0.73271300  0.50000000  0.00000000  1
  C  C203  1  0.50000000  0.26728700  0.00000000  1
  C  C204  1  0.26728700  0.50000000  0.00000000  1
  C  C205  1  0.00000000  0.26691000  0.50000000  1
  C  C206  1  0.00000000  0.50000000  0.60768000  1
  C  C207  1  0.26691000  0.00000000  0.50000000  1
  C  C208  1  0.00000000  0.73309000  0.50000000  1
  C  C209  1  0.73309000  0.00000000  0.50000000  1
  C  C210  1  0.50000000  0.76691000  0.00000000  1
  C  C211  1  0.76691000  0.50000000  0.00000000  1
  C  C212  1  0.50000000  0.23309000  0.00000000  1
  C  C213  1  0.23309000  0.50000000  0.00000000  1
  C  C214  1  0.97114800  0.32714300  0.47294500  1
  C  C215  1  0.32714300  0.02885200  0.47294500  1
  C  C216  1  0.02885100  0.67285700  0.47294500  1
  N  N1  1  0.91822400  0.19689700  0.42073600  1
  N  N2  1  0.69689700  0.58177600  0.92073600  1
  N  N3  1  0.58177600  0.30310300  0.92073600  1
  N  N4  1  0.30310300  0.41822400  0.92073600  1
  N  N5  1  0.41822400  0.30310300  0.07926400  1
  N  N6  1  0.69689700  0.41822400  0.07926400  1
  N  N7  1  0.58177600  0.69689700  0.07926400  1
  N  N8  1  0.30310300  0.58177600  0.07926400  1
  N  N9  1  0.96799200  0.11650100  0.35587100  1
  N  N10  1  0.11650100  0.03200800  0.35587100  1
  N  N11  1  0.03200800  0.88349900  0.35587000  1
  N  N12  1  0.19689700  0.08177600  0.42073600  1
  N  N13  1  0.88349900  0.96799200  0.35587100  1
  N  N14  1  0.96799200  0.88349900  0.64412900  1
  N  N15  1  0.11650100  0.96799200  0.64412900  1
  N  N16  1  0.03200800  0.11650100  0.64412900  1
  N  N17  1  0.88349900  0.03200800  0.64412900  1
  N  N18  1  0.46799200  0.61650100  0.85587000  1
  N  N19  1  0.61650100  0.53200800  0.85587000  1
  N  N20  1  0.53200800  0.38349900  0.85587000  1
  N  N21  1  0.38349900  0.46799200  0.85587000  1
  N  N22  1  0.46799200  0.38349900  0.14413000  1
  N  N23  1  0.08177600  0.80310300  0.42073600  1
  N  N24  1  0.61650100  0.46799200  0.14413000  1
  N  N25  1  0.53200800  0.61650100  0.14413000  1
  N  N26  1  0.38349900  0.53200800  0.14413000  1
  N  N27  1  0.93387400  0.31295500  0.38430200  1
  N  N28  1  0.31295500  0.06612600  0.38430200  1
  N  N29  1  0.06612600  0.68704500  0.38430200  1
  N  N30  1  0.68704500  0.93387400  0.38430200  1
  N  N31  1  0.93387400  0.68704500  0.61569800  1
  N  N32  1  0.31295500  0.93387400  0.61569800  1
  N  N33  1  0.06612600  0.31295500  0.61569800  1
  N  N34  1  0.80310300  0.91822400  0.42073600  1
  N  N35  1  0.68704500  0.06612600  0.61569800  1
  N  N36  1  0.43387400  0.81295500  0.88430200  1
  N  N37  1  0.81295500  0.56612600  0.88430200  1
  N  N38  1  0.56612600  0.18704500  0.88430200  1
  N  N39  1  0.18704500  0.43387400  0.88430200  1
  N  N40  1  0.43387400  0.18704500  0.11569800  1
  N  N41  1  0.81295500  0.43387400  0.11569800  1
  N  N42  1  0.56612600  0.81295500  0.11569800  1
  N  N43  1  0.18704500  0.56612600  0.11569800  1
  N  N44  1  0.90251400  0.38399400  0.46012300  1
  N  N45  1  0.91822400  0.80310300  0.57926400  1
  N  N46  1  0.38399400  0.09748600  0.46012300  1
  N  N47  1  0.09748600  0.61600600  0.46012300  1
  N  N48  1  0.61600600  0.90251400  0.46012300  1
  N  N49  1  0.90251400  0.61600600  0.53987700  1
  N  N50  1  0.38399400  0.90251400  0.53987700  1
  N  N51  1  0.09748600  0.38399400  0.53987700  1
  N  N52  1  0.61600600  0.09748600  0.53987700  1
  N  N53  1  0.40251400  0.88399400  0.96012300  1
  N  N54  1  0.88399400  0.59748600  0.96012300  1
  N  N55  1  0.59748600  0.11600600  0.96012300  1
  N  N56  1  0.19689700  0.91822400  0.57926400  1
  N  N57  1  0.11600600  0.40251400  0.96012300  1
  N  N58  1  0.40251400  0.11600600  0.03987700  1
  N  N59  1  0.88399400  0.40251400  0.03987700  1
  N  N60  1  0.59748600  0.88399400  0.03987700  1
  N  N61  1  0.11600600  0.59748600  0.03987700  1
  N  N62  1  0.08177600  0.19689700  0.57926400  1
  N  N63  1  0.80310300  0.08177600  0.57926400  1
  N  N64  1  0.41822400  0.69689700  0.92073600  1
  O  O1  1  0.03132800  0.44582900  0.48438600  1
  O  O2  1  0.94582900  0.46867200  0.98438600  1
  O  O3  1  0.59250100  0.94925500  0.40219800  1
  O  O4  1  0.94925500  0.59250100  0.59780200  1
  O  O5  1  0.40749900  0.94925500  0.59780200  1
  O  O6  1  0.05074500  0.40749900  0.59780200  1
  O  O7  1  0.59250100  0.05074500  0.59780200  1
  O  O8  1  0.44925500  0.90749900  0.90219800  1
  O  O9  1  0.90749900  0.55074500  0.90219800  1
  O  O10  1  0.55074500  0.09250100  0.90219800  1
  O  O11  1  0.09250100  0.44925500  0.90219800  1
  O  O12  1  0.44925500  0.09250100  0.09780200  1
  O  O13  1  0.46867200  0.05417100  0.98438600  1
  O  O14  1  0.90749900  0.44925500  0.09780200  1
  O  O15  1  0.55074500  0.90749900  0.09780200  1
  O  O16  1  0.09250100  0.55074500  0.09780200  1
  O  O17  1  0.05417100  0.53132800  0.98438600  1
  O  O18  1  0.53132800  0.05417100  0.01561400  1
  O  O19  1  0.94582900  0.53132800  0.01561400  1
  O  O20  1  0.46867200  0.94582900  0.01561400  1
  O  O21  1  0.05417100  0.46867200  0.01561400  1
  O  O22  1  0.03136100  0.48961000  0.58114900  1
  O  O23  1  0.48961000  0.96863900  0.58114900  1
  O  O24  1  0.96863900  0.51039000  0.58114900  1
  O  O25  1  0.44582900  0.96867200  0.48438600  1
  O  O26  1  0.51039000  0.03136100  0.58114900  1
  O  O27  1  0.03136100  0.51039000  0.41885100  1
  O  O28  1  0.48961000  0.03136100  0.41885100  1
  O  O29  1  0.96863900  0.48961000  0.41885100  1
  O  O30  1  0.51039000  0.96863900  0.41885100  1
  O  O31  1  0.53136100  0.98960900  0.08114900  1
  O  O32  1  0.98960900  0.46863900  0.08114900  1
  O  O33  1  0.46863900  0.01039000  0.08114900  1
  O  O34  1  0.01039000  0.53136100  0.08114900  1
  O  O35  1  0.53136100  0.01039000  0.91885100  1
  O  O36  1  0.96867200  0.55417100  0.48438600  1
  O  O37  1  0.98960900  0.53136100  0.91885100  1
  O  O38  1  0.46863900  0.98960900  0.91885100  1
  O  O39  1  0.01039000  0.46863900  0.91885100  1
  O  O40  1  0.94589300  0.98988500  0.54705000  1
  O  O41  1  0.98988500  0.05410700  0.54705000  1
  O  O42  1  0.05410700  0.01011500  0.54705000  1
  O  O43  1  0.01011500  0.94589300  0.54705000  1
  O  O44  1  0.94589300  0.01011500  0.45295000  1
  O  O45  1  0.98988500  0.94589300  0.45295000  1
  O  O46  1  0.05410700  0.98988500  0.45295000  1
  O  O47  1  0.55417100  0.03132800  0.48438600  1
  O  O48  1  0.01011500  0.05410700  0.45295000  1
  O  O49  1  0.44589300  0.48988500  0.04705000  1
  O  O50  1  0.48988500  0.55410700  0.04705000  1
  O  O51  1  0.55410700  0.51011500  0.04705000  1
  O  O52  1  0.51011500  0.44589300  0.04705000  1
  O  O53  1  0.44589300  0.51011500  0.95295000  1
  O  O54  1  0.48988500  0.44589300  0.95295000  1
  O  O55  1  0.55410700  0.48988500  0.95295000  1
  O  O56  1  0.51011500  0.55410700  0.95295000  1
  O  O57  1  0.97519400  0.21247900  0.37990300  1
  O  O58  1  0.03132800  0.55417100  0.51561400  1
  O  O59  1  0.21247900  0.02480600  0.37990300  1
  O  O60  1  0.02480600  0.78752100  0.37990300  1
  O  O61  1  0.78752100  0.97519400  0.37990300  1
  O  O62  1  0.97519400  0.78752100  0.62009700  1
  O  O63  1  0.21247900  0.97519400  0.62009700  1
  O  O64  1  0.02480600  0.21247900  0.62009700  1
  O  O65  1  0.78752100  0.02480600  0.62009700  1
  O  O66  1  0.47519400  0.71247900  0.87990300  1
  O  O67  1  0.71247900  0.52480600  0.87990300  1
  O  O68  1  0.52480600  0.28752100  0.87990300  1
  O  O69  1  0.44582900  0.03132800  0.51561400  1
  O  O70  1  0.28752100  0.47519400  0.87990300  1
  O  O71  1  0.47519400  0.28752100  0.12009700  1
  O  O72  1  0.71247900  0.47519400  0.12009700  1
  O  O73  1  0.52480600  0.71247900  0.12009700  1
  O  O74  1  0.28752100  0.52480600  0.12009700  1
  O  O75  1  0.93272700  0.09186100  0.42896700  1
  O  O76  1  0.09186100  0.06727300  0.42896700  1
  O  O77  1  0.06727300  0.90813900  0.42896700  1
  O  O78  1  0.90813900  0.93272700  0.42896700  1
  O  O79  1  0.93272700  0.90813900  0.57103300  1
  O  O80  1  0.96867200  0.44582900  0.51561400  1
  O  O81  1  0.09186100  0.93272700  0.57103300  1
  O  O82  1  0.06727300  0.09186100  0.57103300  1
  O  O83  1  0.90813900  0.06727300  0.57103300  1
  O  O84  1  0.43272700  0.59186100  0.92896700  1
  O  O85  1  0.59186100  0.56727300  0.92896700  1
  O  O86  1  0.56727300  0.40813900  0.92896700  1
  O  O87  1  0.40813900  0.43272700  0.92896700  1
  O  O88  1  0.43272700  0.40813900  0.07103300  1
  O  O89  1  0.59186100  0.43272700  0.07103300  1
  O  O90  1  0.56727300  0.59186100  0.07103300  1
  O  O91  1  0.55417100  0.96867200  0.51561400  1
  O  O92  1  0.40813900  0.56727300  0.07103300  1
  O  O93  1  0.92296900  0.28173200  0.46813200  1
  O  O94  1  0.28173200  0.07703100  0.46813200  1
  O  O95  1  0.07703100  0.71826800  0.46813200  1
  O  O96  1  0.71826800  0.92296900  0.46813200  1
  O  O97  1  0.92296900  0.71826800  0.53186800  1
  O  O98  1  0.28173200  0.92296900  0.53186800  1
  O  O99  1  0.07703100  0.28173200  0.53186800  1
  O  O100  1  0.71826800  0.07703100  0.53186800  1
  O  O101  1  0.42296900  0.78173200  0.96813200  1
  O  O102  1  0.53132800  0.94582900  0.98438600  1
  O  O103  1  0.78173200  0.57703100  0.96813200  1
  O  O104  1  0.57703100  0.21826800  0.96813200  1
  O  O105  1  0.21826800  0.42296900  0.96813200  1
  O  O106  1  0.42296900  0.21826800  0.03186800  1
  O  O107  1  0.78173200  0.42296900  0.03186800  1
  O  O108  1  0.57703100  0.78173200  0.03186800  1
  O  O109  1  0.21826800  0.57703100  0.03186800  1
  O  O110  1  0.94925500  0.40749900  0.40219800  1
  O  O111  1  0.40749900  0.05074500  0.40219800  1
  O  O112  1  0.05074500  0.59250100  0.40219800  1
