# generated using pymatgen
data_FeH15C34(NO5)2
_symmetry_space_group_name_H-M   'P 1'
_cell_length_a   15.74861300
_cell_length_b   9.60718500
_cell_length_c   19.71020600
_cell_angle_alpha   85.58765300
_cell_angle_beta   84.97309800
_cell_angle_gamma   104.41434800
_symmetry_Int_Tables_number   1
_chemical_formula_structural   FeH15C34(NO5)2
_chemical_formula_sum   'Fe2 H30 C68 N4 O20'
_cell_volume   2862.05675404
_cell_formula_units_Z   2
loop_
 _symmetry_equiv_pos_site_id
 _symmetry_equiv_pos_as_xyz
  1  'x, y, z'
loop_
 _atom_site_type_symbol
 _atom_site_label
 _atom_site_symmetry_multiplicity
 _atom_site_fract_x
 _atom_site_fract_y
 _atom_site_fract_z
 _atom_site_occupancy
  Fe  Fe1  1  0.49011500  0.02088700  0.15058600  1
  Fe  Fe2  1  0.50401600  0.05732800  0.84802100  1
  H  H1  1  0.18692300  0.07107300  0.89501000  1
  H  H2  1  0.21469700  0.98593700  0.13811100  1
  H  H3  1  0.07755000  0.12969400  0.86837000  1
  H  H4  1  0.93847900  0.13795300  0.83707400  1
  H  H5  1  0.92171600  0.99149900  0.13524700  1
  H  H6  1  0.78674600  0.10486900  0.86155100  1
  H  H7  1  0.80161500  0.98719300  0.10507800  1
  H  H8  1  0.50516000  0.35003800  0.66340000  1
  H  H9  1  0.48219200  0.28381900  0.36894200  1
  H  H10  1  0.48527400  0.72934100  0.33568200  1
  H  H11  1  0.55719100  0.05876400  0.52012200  1
  H  H12  1  0.68212100  0.14691600  0.43195600  1
  H  H13  1  0.80658500  0.03494900  0.42775700  1
  H  H14  1  0.80592300  0.83421300  0.51312700  1
  H  H15  1  0.68302800  0.74543900  0.60218900  1
  H  H16  1  0.41798200  0.43950300  0.02176800  1
  H  H17  1  0.27191300  0.40615800  0.98325700  1
  H  H18  1  0.14228400  0.38685000  0.06595400  1
  H  H19  1  0.15959700  0.40060600  0.18814500  1
  H  H20  1  0.30422900  0.43275000  0.22816900  1
  H  H21  1  0.02854300  0.94560900  0.32491300  1
  H  H22  1  0.93347500  0.73835600  0.39747200  1
  H  H23  1  0.85237200  0.52661300  0.34617100  1
  H  H24  1  0.86779300  0.52233600  0.22124800  1
  H  H25  1  0.96323300  0.72644900  0.14768000  1
  H  H26  1  0.56488700  0.63139800  0.98114500  1
  H  H27  1  0.70813300  0.66062400  0.02428900  1
  H  H28  1  0.84086900  0.67729600  0.94535700  1
  H  H29  1  0.82952900  0.66489500  0.82230500  1
  H  H30  1  0.68776200  0.63638700  0.77773900  1
  C  C1  1  0.27970500  0.03272700  0.03852400  1
  C  C2  1  0.27192700  0.05618700  0.96936200  1
  C  C3  1  0.19056600  0.06088100  0.94909100  1
  C  C4  1  0.20607100  0.00818700  0.08513000  1
  C  C5  1  0.12537200  0.01827300  0.06511200  1
  C  C6  1  0.11667600  0.04713200  0.99640600  1
  C  C7  1  0.03452000  0.05915400  0.97659700  1
  C  C8  1  0.02438200  0.09946700  0.90897100  1
  C  C9  1  0.94390000  0.10734700  0.89013800  1
  C  C10  1  0.05323800  0.99862000  0.11355400  1
  C  C11  1  0.97279200  0.00461700  0.09384700  1
  C  C12  1  0.96116200  0.03401300  0.02562100  1
  C  C13  1  0.87822800  0.04094900  0.00556100  1
  C  C14  1  0.87107500  0.07691600  0.93750300  1
  C  C15  1  0.79093000  0.08165800  0.91550400  1
  C  C16  1  0.80166400  0.01307900  0.05133100  1
  C  C17  1  0.72108100  0.01860800  0.02972700  1
  C  C18  1  0.71527400  0.04889100  0.96058700  1
  C  C19  1  0.64513000  0.99988200  0.08206200  1
  C  C20  1  0.47769100  0.74577000  0.20151300  1
  C  C21  1  0.36464700  0.04403400  0.06544600  1
  C  C22  1  0.47191300  0.22367500  0.24060400  1
  C  C23  1  0.52867400  0.85285300  0.76297400  1
  C  C24  1  0.63056800  0.03421500  0.93259700  1
  C  C25  1  0.51163500  0.32992800  0.79788000  1
  C  C26  1  0.34639100  0.06966500  0.91602000  1
  C  C27  1  0.51439100  0.46183500  0.75286600  1
  C  C28  1  0.51146700  0.45335600  0.68322000  1
  C  C29  1  0.51482500  0.57439500  0.63883900  1
  C  C30  1  0.52306800  0.70736400  0.66486800  1
  C  C31  1  0.52140700  0.71460900  0.73466900  1
  C  C32  1  0.51835400  0.59388800  0.77849600  1
  C  C33  1  0.49033700  0.52371800  0.43326800  1
  C  C34  1  0.50668500  0.55733400  0.56565800  1
  C  C35  1  0.48132500  0.37739600  0.33514500  1
  C  C36  1  0.47748700  0.36445500  0.26629000  1
  C  C37  1  0.47458400  0.48208100  0.22201800  1
  C  C38  1  0.47738900  0.61518000  0.24680200  1
  C  C39  1  0.48202600  0.62652300  0.31605500  1
  C  C40  1  0.48406000  0.50851300  0.36025100  1
  C  C41  1  0.53437500  0.84221500  0.62040900  1
  C  C42  1  0.61003000  0.89428100  0.56723100  1
  C  C43  1  0.61133000  0.00821900  0.51936200  1
  C  C44  1  0.68169300  0.05825400  0.46935200  1
  C  C45  1  0.75140700  0.99548800  0.46693700  1
  C  C46  1  0.75090000  0.88279700  0.51471900  1
  C  C47  1  0.68062900  0.83217800  0.56479400  1
  C  C48  1  0.46073000  0.45928400  0.15070000  1
  C  C49  1  0.37231700  0.43899500  0.12775800  1
  C  C50  1  0.36194400  0.43087200  0.05905600  1
  C  C51  1  0.27951400  0.41222600  0.03701100  1
  C  C52  1  0.20686900  0.40146500  0.08331100  1
  C  C53  1  0.21663600  0.40925300  0.15177500  1
  C  C54  1  0.29893300  0.42789900  0.17410600  1
  C  C55  1  0.05978400  0.97780600  0.18741900  1
  C  C56  1  0.00180600  0.85271100  0.23083700  1
  C  C57  1  0.99366200  0.85350400  0.30128000  1
  C  C58  1  0.93989900  0.73676900  0.34250000  1
  C  C59  1  0.89438500  0.61815100  0.31378400  1
  C  C60  1  0.90290100  0.61597400  0.24375700  1
  C  C61  1  0.95647600  0.73254500  0.20228900  1
  C  C62  1  0.52856400  0.61334300  0.85063300  1
  C  C63  1  0.61531300  0.63127100  0.87632200  1
  C  C64  1  0.62233300  0.63863800  0.94551800  1
  C  C65  1  0.70315600  0.65507100  0.97016100  1
  C  C66  1  0.77753900  0.66437700  0.92597100  1
  C  C67  1  0.77111800  0.65734600  0.85702200  1
  C  C68  1  0.69043100  0.64086100  0.83210400  1
  N  N1  1  0.48025100  0.65489600  0.52569500  1
  N  N2  1  0.47287200  0.63907400  0.46032600  1
  N  N3  1  0.51444100  0.42370900  0.47343900  1
  N  N4  1  0.52246100  0.44030700  0.53879300  1
  O  O1  1  0.57747100  0.05022900  0.06888200  1
  O  O2  1  0.47872000  0.74305900  0.13500300  1
  O  O3  1  0.64894500  0.94668000  0.14471700  1
  O  O4  1  0.48231600  0.86987500  0.22679800  1
  O  O5  1  0.37032900  0.95690100  0.11862400  1
  O  O6  1  0.43142500  0.15521100  0.04368700  1
  O  O7  1  0.52632500  0.21270100  0.18803200  1
  O  O8  1  0.41041400  0.10988500  0.26842700  1
  O  O9  1  0.46796400  0.86567500  0.81038200  1
  O  O10  1  0.59738500  0.96215400  0.74321000  1
  O  O11  1  0.62396800  0.12163000  0.87983900  1
  O  O12  1  0.56424500  0.92239600  0.95446100  1
  O  O13  1  0.34039600  0.11633400  0.85272800  1
  O  O14  1  0.51153200  0.20823000  0.77184900  1
  O  O15  1  0.41671000  0.02739400  0.92988000  1
  O  O16  1  0.50666200  0.32984600  0.86467100  1
  O  O17  1  0.48076900  0.91342900  0.62862800  1
  O  O18  1  0.52393600  0.46256800  0.10961700  1
  O  O19  1  0.11010300  0.07081500  0.21380300  1
  O  O20  1  0.46374300  0.61031100  0.88996100  1
