# generated using pymatgen
data_ZnH10C17NO8
_symmetry_space_group_name_H-M   'P 1'
_cell_length_a   16.13240200
_cell_length_b   14.98782100
_cell_length_c   15.95751600
_cell_angle_alpha   90.00000000
_cell_angle_beta   89.98896400
_cell_angle_gamma   90.00000000
_symmetry_Int_Tables_number   1
_chemical_formula_structural   ZnH10C17NO8
_chemical_formula_sum   'Zn2 H20 C34 N2 O16'
_cell_volume   3858.36059665
_cell_formula_units_Z   2
loop_
 _symmetry_equiv_pos_site_id
 _symmetry_equiv_pos_as_xyz
  1  'x, y, z'
loop_
 _atom_site_type_symbol
 _atom_site_label
 _atom_site_symmetry_multiplicity
 _atom_site_fract_x
 _atom_site_fract_y
 _atom_site_fract_z
 _atom_site_occupancy
  Zn  Zn1  1  0.50074900  0.60102100  0.49929900  1
  Zn  Zn2  1  0.50074800  0.39772200  0.49926600  1
  H  H1  1  0.38029600  0.55911800  0.93594200  1
  H  H2  1  0.40661300  0.39682200  0.92150500  1
  H  H3  1  0.51104700  0.35686400  0.93527200  1
  H  H4  1  0.46357300  0.63799500  0.92103800  1
  H  H5  1  0.60724300  0.58275500  0.93815700  1
  H  H6  1  0.63233900  0.46931500  0.91722100  1
  H  H7  1  0.92446500  0.64148200  0.49938400  1
  H  H8  1  0.92446500  0.35726100  0.49944700  1
  H  H9  1  0.40729800  0.08142600  0.40499200  1
  H  H10  1  0.40729600  0.91728500  0.40501900  1
  H  H11  1  0.59430000  0.91731700  0.59349000  1
  H  H12  1  0.59430100  0.08145800  0.59346400  1
  H  H13  1  0.35354500  0.64606200  0.05740200  1
  H  H14  1  0.36356900  0.39448700  0.11926200  1
  H  H15  1  0.45553700  0.28953600  0.05756200  1
  H  H16  1  0.48383800  0.67968000  0.11917800  1
  H  H17  1  0.69233100  0.54610600  0.08700400  1
  H  H18  1  0.62978300  0.37971300  0.01927400  1
  H  H19  1  0.08977200  0.67457800  0.55945600  1
  H  H20  1  0.08977400  0.32419600  0.55953300  1
  C  C1  1  0.33878100  0.49937100  0.49933500  1
  C  C2  1  0.50074000  0.49939900  0.33554100  1
  C  C3  1  0.66271600  0.49937200  0.49928000  1
  C  C4  1  0.50074300  0.49934500  0.66308900  1
  C  C5  1  0.45603800  0.58341900  0.04579700  1
  C  C6  1  0.45504800  0.41639300  0.04593600  1
  C  C7  1  0.46709700  0.41096600  0.95171200  1
  C  C8  1  0.44575400  0.57440100  0.95164900  1
  C  C9  1  0.50073400  0.49932900  0.75299200  1
  C  C10  1  0.50057000  0.49961300  0.07842500  1
  C  C11  1  0.50069000  0.49933000  0.92012100  1
  C  C12  1  0.58862500  0.51301900  0.95176500  1
  C  C13  1  0.59044700  0.49917100  0.04649100  1
  C  C14  1  0.50072100  0.49932400  0.82848700  1
  C  C15  1  0.50066300  0.49948500  0.17014100  1
  C  C16  1  0.50071100  0.49942500  0.24564500  1
  C  C17  1  0.95798700  0.57903800  0.49941700  1
  C  C18  1  0.95798700  0.41970500  0.49945200  1
  C  C19  1  0.91526600  0.49937100  0.49940000  1
  C  C20  1  0.04345400  0.41969000  0.49953100  1
  C  C21  1  0.04345400  0.57905200  0.49949600  1
  C  C22  1  0.08620800  0.49937100  0.49952400  1
  C  C23  1  0.82633600  0.49937200  0.49934700  1
  C  C24  1  0.17516100  0.49937100  0.49943300  1
  C  C25  1  0.24985000  0.49937200  0.49938400  1
  C  C26  1  0.75165000  0.49937200  0.49931100  1
  C  C27  1  0.44838300  0.95336400  0.44641900  1
  C  C28  1  0.44838400  0.04536100  0.44640400  1
  C  C29  1  0.50079800  0.90738100  0.49925600  1
  C  C30  1  0.50080100  0.09136200  0.49922500  1
  C  C31  1  0.55321700  0.95338200  0.55207600  1
  C  C32  1  0.55321800  0.04537800  0.55206100  1
  C  C33  1  0.50079100  0.81165300  0.49927600  1
  C  C34  1  0.50079200  0.18709000  0.49922100  1
  N  N1  1  0.50078100  0.26428200  0.49922300  1
  N  N2  1  0.50078100  0.73446100  0.49929100  1
  O  O1  1  0.37724800  0.57649400  0.49935700  1
  O  O2  1  0.37724800  0.42224900  0.49933100  1
  O  O3  1  0.50074300  0.57650800  0.37444300  1
  O  O4  1  0.50074200  0.42227200  0.37441600  1
  O  O5  1  0.62424900  0.57649400  0.49931500  1
  O  O6  1  0.62424900  0.42224900  0.49928700  1
  O  O7  1  0.50074500  0.57647300  0.62421200  1
  O  O8  1  0.50074500  0.42223300  0.62418600  1
  O  O9  1  0.37836800  0.59238200  0.08350300  1
  O  O10  1  0.37034300  0.42171600  0.06313800  1
  O  O11  1  0.48622400  0.33945100  0.08387600  1
  O  O12  1  0.50203200  0.66020900  0.06280100  1
  O  O13  1  0.63489400  0.56891600  0.08290700  1
  O  O14  1  0.63010300  0.41934600  0.06870800  1
  O  O15  1  0.08573600  0.65801500  0.49953400  1
  O  O16  1  0.08573500  0.34072700  0.49960400  1
