# generated using pymatgen
data_ZnH24C19(NO2)3
_symmetry_space_group_name_H-M   'P 1'
_cell_length_a   10.79928700
_cell_length_b   9.59995500
_cell_length_c   15.95707200
_cell_angle_alpha   90.00000000
_cell_angle_beta   89.99184800
_cell_angle_gamma   90.00000000
_symmetry_Int_Tables_number   1
_chemical_formula_structural   ZnH24C19(NO2)3
_chemical_formula_sum   'Zn2 H48 C38 N6 O12'
_cell_volume   1654.31223062
_cell_formula_units_Z   2
loop_
 _symmetry_equiv_pos_site_id
 _symmetry_equiv_pos_as_xyz
  1  'x, y, z'
loop_
 _atom_site_type_symbol
 _atom_site_label
 _atom_site_symmetry_multiplicity
 _atom_site_fract_x
 _atom_site_fract_y
 _atom_site_fract_z
 _atom_site_occupancy
  Zn  Zn1  1  0.49842800  0.65462300  0.50775900  1
  Zn  Zn2  1  0.49855400  0.33692400  0.50714900  1
  H  H1  1  0.32011300  0.59451600  0.93018600  1
  H  H2  1  0.35783300  0.33865600  0.94206000  1
  H  H3  1  0.30671400  0.56013000  0.07022100  1
  H  H4  1  0.37895600  0.31402100  0.08233500  1
  H  H5  1  0.54266900  0.27856000  0.07288600  1
  H  H6  1  0.41548400  0.70180700  0.08193300  1
  H  H7  1  0.51315100  0.27053100  0.93254000  1
  H  H8  1  0.44988300  0.71160800  0.94213700  1
  H  H9  1  0.64134800  0.64934800  0.07281600  1
  H  H10  1  0.69576800  0.47243000  0.08479900  1
  H  H11  1  0.66599600  0.62048600  0.93311000  1
  H  H12  1  0.69083200  0.43537100  0.94478000  1
  H  H13  1  0.09313900  0.70754000  0.47337500  1
  H  H14  1  0.09586600  0.28215100  0.55094000  1
  H  H15  1  0.89649600  0.65808300  0.59789000  1
  H  H16  1  0.88867700  0.42654700  0.63192700  1
  H  H17  1  0.89027300  0.72592600  0.49392000  1
  H  H18  1  0.88712800  0.28750300  0.55746300  1
  H  H19  1  0.11624600  0.53237300  0.38089100  1
  H  H20  1  0.11849300  0.35549000  0.40404100  1
  H  H21  1  0.38117600  0.12341900  0.39973500  1
  H  H22  1  0.42090700  0.89279700  0.38596700  1
  H  H23  1  0.30549100  0.09878200  0.49923300  1
  H  H24  1  0.30990500  0.87040500  0.46901300  1
  H  H25  1  0.60413400  0.09799500  0.39583700  1
  H  H26  1  0.63800200  0.86652100  0.41434000  1
  H  H27  1  0.58472400  0.10096900  0.62263500  1
  H  H28  1  0.54803800  0.87227600  0.63383900  1
  H  H29  1  0.41880100  0.12253200  0.62602400  1
  H  H30  1  0.38492400  0.89199900  0.61247300  1
  H  H31  1  0.69289000  0.11911700  0.49070200  1
  H  H32  1  0.68966400  0.89217200  0.52065400  1
  H  H33  1  0.82816100  0.63762700  0.37156200  1
  H  H34  1  0.90541300  0.76474000  0.22958100  1
  H  H35  1  0.77212000  0.65193300  0.21754400  1
  H  H36  1  0.90621800  0.62891900  0.15091300  1
  H  H37  1  0.80369300  0.35237300  0.34033300  1
  H  H38  1  0.80325700  0.14387000  0.28038400  1
  H  H39  1  0.83575400  0.00970500  0.35665500  1
  H  H40  1  0.95399700  0.06311200  0.28362500  1
  H  H41  1  0.10081800  0.65385100  0.65930500  1
  H  H42  1  0.15326700  0.83486300  0.74193100  1
  H  H43  1  0.02456100  0.94785000  0.71800900  1
  H  H44  1  0.18127800  0.99884200  0.69050000  1
  H  H45  1  0.19740400  0.44880900  0.66523900  1
  H  H46  1  0.21969800  0.38231600  0.80034900  1
  H  H47  1  0.20513200  0.19476700  0.79823600  1
  H  H48  1  0.08598100  0.29979700  0.84644400  1
  C  C1  1  0.25594000  0.49528700  0.51110400  1
  C  C2  1  0.49445700  0.49614500  0.34374300  1
  C  C3  1  0.74115400  0.49640500  0.50428000  1
  C  C4  1  0.50248600  0.49536300  0.67125600  1
  C  C5  1  0.40075300  0.59756100  0.05368300  1
  C  C6  1  0.46730000  0.35100300  0.05473900  1
  C  C7  1  0.45592500  0.35475800  0.96016900  1
  C  C8  1  0.41260100  0.60781100  0.95931000  1
  C  C9  1  0.50240000  0.49489000  0.76119500  1
  C  C10  1  0.49667000  0.49607800  0.08657400  1
  C  C11  1  0.49980100  0.49517700  0.92840200  1
  C  C12  1  0.62902100  0.52344100  0.96132600  1
  C  C13  1  0.62380900  0.53914500  0.05568700  1
  C  C14  1  0.50150600  0.49483400  0.83671400  1
  C  C15  1  0.49506400  0.49651100  0.17827100  1
  C  C16  1  0.49433000  0.49656300  0.25379600  1
  C  C17  1  0.06657400  0.64289700  0.52803900  1
  C  C18  1  0.06556700  0.38592400  0.57258200  1
  C  C19  1  0.92675300  0.63925200  0.53245400  1
  C  C20  1  0.92453000  0.39273100  0.57006900  1
  C  C21  1  0.07512300  0.45412500  0.42359300  1
  C  C22  1  0.11702100  0.49520000  0.51151700  1
  C  C23  1  0.88035000  0.49664500  0.50424000  1
  C  C24  1  0.93234200  0.46083100  0.41643100  1
  C  C25  1  0.38985300  0.07454500  0.46240600  1
  C  C26  1  0.40002800  0.91776800  0.45233800  1
  C  C27  1  0.60797400  0.07290700  0.46363200  1
  C  C28  1  0.61510400  0.91623000  0.47513200  1
  C  C29  1  0.49645700  0.07494600  0.59071600  1
  C  C30  1  0.47939100  0.91819400  0.59026400  1
  C  C31  1  0.92871800  0.55839300  0.27670200  1
  C  C32  1  0.87462000  0.65730100  0.21480000  1
  C  C33  1  0.92080600  0.20522200  0.38382800  1
  C  C34  1  0.87510700  0.09974600  0.32228300  1
  C  C35  1  0.10096000  0.84403200  0.61188400  1
  C  C36  1  0.11587000  0.91032200  0.69580900  1
  C  C37  1  0.08590200  0.30140100  0.71281600  1
  C  C38  1  0.15367400  0.29447200  0.79427500  1
  N  N1  1  0.49860200  0.12821700  0.50541400  1
  N  N2  1  0.49762700  0.86332700  0.50616100  1
  N  N3  1  0.90244400  0.57390600  0.35929500  1
  N  N4  1  0.87121000  0.33534400  0.38461900  1
  N  N5  1  0.11562500  0.70481400  0.60385000  1
  N  N6  1  0.11197600  0.40358400  0.65708400  1
  O  O1  1  0.31400800  0.61551000  0.51002500  1
  O  O2  1  0.31387000  0.37487200  0.50926200  1
  O  O3  1  0.49533900  0.61646900  0.38288300  1
  O  O4  1  0.49513900  0.37536400  0.38232400  1
  O  O5  1  0.68295700  0.61654900  0.50583400  1
  O  O6  1  0.68289600  0.37621800  0.50465700  1
  O  O7  1  0.50133300  0.61586300  0.63261500  1
  O  O8  1  0.50173300  0.37533300  0.63205300  1
  O  O9  1  0.99561300  0.46447100  0.25211400  1
  O  O10  1  0.99453300  0.16754400  0.43677100  1
  O  O11  1  0.07498100  0.91635700  0.55157700  1
  O  O12  1  0.00596900  0.21527600  0.69800000  1
