# generated using pymatgen
data_Zn3H24C42(IO3)4
_symmetry_space_group_name_H-M   'P 1'
_cell_length_a   41.24879900
_cell_length_b   35.54977300
_cell_length_c   21.47160100
_cell_angle_alpha   90.00000000
_cell_angle_beta   59.54434500
_cell_angle_gamma   90.00000000
_symmetry_Int_Tables_number   1
_chemical_formula_structural   Zn3H24C42(IO3)4
_chemical_formula_sum   'Zn12 H96 C168 I16 O48'
_cell_volume   27141.30821792
_cell_formula_units_Z   4
loop_
 _symmetry_equiv_pos_site_id
 _symmetry_equiv_pos_as_xyz
  1  'x, y, z'
loop_
 _atom_site_type_symbol
 _atom_site_label
 _atom_site_symmetry_multiplicity
 _atom_site_fract_x
 _atom_site_fract_y
 _atom_site_fract_z
 _atom_site_occupancy
  Zn  Zn1  1  0.99942800  0.54175900  0.49972800  1
  Zn  Zn2  1  0.49942800  0.04175900  0.49972800  1
  Zn  Zn3  1  0.00072500  0.45667400  0.49902200  1
  Zn  Zn4  1  0.50072500  0.95667400  0.49902200  1
  Zn  Zn5  1  0.95749100  0.50046700  0.03977900  1
  Zn  Zn6  1  0.04262500  0.49951000  0.95899600  1
  Zn  Zn7  1  0.45749100  0.00046700  0.03977900  1
  Zn  Zn8  1  0.54262500  0.99951000  0.95899600  1
  Zn  Zn9  1  0.49927800  0.49990100  0.93087300  1
  Zn  Zn10  1  0.50076800  0.50026200  0.07041500  1
  Zn  Zn11  1  0.99927800  0.99990100  0.93087300  1
  Zn  Zn12  1  0.00076800  0.00026200  0.07041500  1
  H  H1  1  0.01289500  0.55773600  0.28313200  1
  H  H2  1  0.03034600  0.55401700  0.66321300  1
  H  H3  1  0.51289500  0.05773600  0.28313200  1
  H  H4  1  0.53034600  0.05401700  0.66321300  1
  H  H5  1  0.96275900  0.54993700  0.34032600  1
  H  H6  1  0.06149200  0.51430400  0.64247400  1
  H  H7  1  0.46275900  0.04993700  0.34032600  1
  H  H8  1  0.56149200  0.01430400  0.64247400  1
  H  H9  1  0.95511900  0.54191900  0.24479900  1
  H  H10  1  0.05801100  0.52586600  0.74867800  1
  H  H11  1  0.45511900  0.04191900  0.24479900  1
  H  H12  1  0.55801100  0.02586600  0.74867800  1
  H  H13  1  0.00244900  0.55964300  0.18987800  1
  H  H14  1  0.01925900  0.55822100  0.77695300  1
  H  H15  1  0.50244900  0.05964300  0.18987800  1
  H  H16  1  0.51925900  0.05822100  0.77695300  1
  H  H17  1  0.05756800  0.50353400  0.25120100  1
  H  H18  1  0.96115300  0.54271600  0.73824200  1
  H  H19  1  0.55756800  0.00353400  0.25120100  1
  H  H20  1  0.46115300  0.04271600  0.73824200  1
  H  H21  1  0.05604000  0.51450600  0.14935300  1
  H  H22  1  0.95263900  0.53555500  0.84940600  1
  H  H23  1  0.55604000  0.01450600  0.14935300  1
  H  H24  1  0.45263900  0.03555500  0.84940600  1
  H  H25  1  0.97038200  0.44440400  0.33406700  1
  H  H26  1  0.98657400  0.44122900  0.71711200  1
  H  H27  1  0.47038200  0.94440400  0.33406700  1
  H  H28  1  0.48657400  0.94122900  0.71711200  1
  H  H29  1  0.93877900  0.48382800  0.35595900  1
  H  H30  1  0.03679600  0.44843200  0.65982500  1
  H  H31  1  0.43877900  0.98382800  0.35595900  1
  H  H32  1  0.53679600  0.94843200  0.65982500  1
  H  H33  1  0.94236800  0.47298200  0.24939600  1
  H  H34  1  0.04446500  0.45698700  0.75524600  1
  H  H35  1  0.44236800  0.97298200  0.24939600  1
  H  H36  1  0.54446500  0.95698700  0.75524600  1
  H  H37  1  0.98147300  0.44100000  0.22019400  1
  H  H38  1  0.99693000  0.43988100  0.81059600  1
  H  H39  1  0.48147300  0.94100000  0.22019400  1
  H  H40  1  0.49693000  0.93988100  0.81059600  1
  H  H41  1  0.03930700  0.45645400  0.25934300  1
  H  H42  1  0.94250600  0.49574200  0.74777800  1
  H  H43  1  0.53930700  0.95645400  0.25934300  1
  H  H44  1  0.44250600  0.99574200  0.74777800  1
  H  H45  1  0.04785500  0.46445500  0.14838200  1
  H  H46  1  0.94388600  0.48554300  0.84989900  1
  H  H47  1  0.54785500  0.96445500  0.14838200  1
  H  H48  1  0.44388600  0.98554300  0.84989900  1
  H  H49  1  0.68868300  0.44634500  0.85564900  1
  H  H50  1  0.31057600  0.44983800  0.14262800  1
  H  H51  1  0.18868300  0.94634500  0.85564900  1
  H  H52  1  0.81057600  0.94983800  0.14262800  1
  H  H53  1  0.68813700  0.55343200  0.76776000  1
  H  H54  1  0.31278500  0.55486300  0.23540400  1
  H  H55  1  0.18813700  0.05343200  0.76776000  1
  H  H56  1  0.81278500  0.05486300  0.23540400  1
  H  H57  1  0.81079600  0.45260300  0.75309400  1
  H  H58  1  0.19041300  0.45398600  0.24875900  1
  H  H59  1  0.31079600  0.95260300  0.75309400  1
  H  H60  1  0.69041300  0.95398600  0.24875900  1
  H  H61  1  0.88069400  0.54628700  0.56309800  1
  H  H62  1  0.11822700  0.54987400  0.43236300  1
  H  H63  1  0.38069400  0.04628700  0.56309800  1
  H  H64  1  0.61822700  0.04987400  0.43236300  1
  H  H65  1  0.81194900  0.54692100  0.63024400  1
  H  H66  1  0.18703200  0.55180300  0.36583500  1
  H  H67  1  0.31194900  0.04692100  0.63024400  1
  H  H68  1  0.68703200  0.05180300  0.36583500  1
  H  H69  1  0.49976400  0.31158700  0.90341400  1
  H  H70  1  0.50219800  0.31147700  0.09919800  1
  H  H71  1  0.99976400  0.81158700  0.90341400  1
  H  H72  1  0.00219800  0.81147700  0.09919800  1
  H  H73  1  0.49902000  0.38018000  0.90357900  1
  H  H74  1  0.50149700  0.38008600  0.10068200  1
  H  H75  1  0.99902000  0.88018000  0.90357900  1
  H  H76  1  0.00149700  0.88008600  0.10068200  1
  H  H77  1  0.06099400  0.68807800  0.94069800  1
  H  H78  1  0.94133200  0.68912300  0.06028200  1
  H  H79  1  0.56099400  0.18807800  0.94069800  1
  H  H80  1  0.44133200  0.18912300  0.06028200  1
  H  H81  1  0.06078400  0.61942300  0.94018000  1
  H  H82  1  0.94028900  0.62058000  0.06060400  1
  H  H83  1  0.56078400  0.11942300  0.94018000  1
  H  H84  1  0.44028900  0.12058000  0.06060400  1
  H  H85  1  0.49446700  0.62000800  0.10358400  1
  H  H86  1  0.50508600  0.61995200  0.89450700  1
  H  H87  1  0.99446700  0.12000800  0.10358400  1
  H  H88  1  0.00508600  0.11995200  0.89450700  1
  H  H89  1  0.05875300  0.31092000  0.93905400  1
  H  H90  1  0.93911000  0.31200000  0.05964200  1
  H  H91  1  0.55875300  0.81092000  0.93905400  1
  H  H92  1  0.43911000  0.81200000  0.05964200  1
  H  H93  1  0.05982000  0.37946600  0.93801600  1
  H  H94  1  0.93932500  0.38065500  0.05944800  1
  H  H95  1  0.55982000  0.87946600  0.93801600  1
  H  H96  1  0.43932500  0.88065500  0.05944800  1
  C  C1  1  0.92640400  0.49899900  0.57687000  1
  C  C2  1  0.07374700  0.49936700  0.42181800  1
  C  C3  1  0.42640400  0.99899900  0.57687000  1
  C  C4  1  0.57374700  0.99936700  0.42181800  1
  C  C5  1  0.99712900  0.49968600  0.38051300  1
  C  C6  1  0.00299800  0.49877800  0.61825700  1
  C  C7  1  0.49712900  0.99968600  0.38051300  1
  C  C8  1  0.50299800  0.99877800  0.61825700  1
  C  C9  1  0.98919100  0.53875700  0.29431800  1
  C  C10  1  0.03338300  0.52579800  0.68162500  1
  C  C11  1  0.48919100  0.03875700  0.29431800  1
  C  C12  1  0.53338300  0.02579800  0.68162500  1
  C  C13  1  0.98500000  0.53727800  0.22834600  1
  C  C14  1  0.02981700  0.52971700  0.75505600  1
  C  C15  1  0.48500000  0.03727800  0.22834600  1
  C  C16  1  0.52981700  0.02971700  0.75505600  1
  C  C17  1  0.03506800  0.48645400  0.25121300  1
  C  C18  1  0.96516200  0.51277700  0.74722500  1
  C  C19  1  0.53506800  0.98645400  0.25121300  1
  C  C20  1  0.46516200  0.01277700  0.74722500  1
  C  C21  1  0.96700800  0.47271800  0.31646700  1
  C  C22  1  0.01047800  0.46001200  0.70550600  1
  C  C23  1  0.46700800  0.97271800  0.31646700  1
  C  C24  1  0.51047800  0.96001200  0.70550600  1
  C  C25  1  0.99697300  0.49942300  0.31132100  1
  C  C26  1  0.00313100  0.49927000  0.68746300  1
  C  C27  1  0.49697300  0.99942300  0.31132100  1
  C  C28  1  0.50313100  0.99927000  0.68746300  1
  C  C29  1  0.99765400  0.49910400  0.19287900  1
  C  C30  1  0.00243700  0.50038200  0.80590900  1
  C  C31  1  0.49765400  0.99910400  0.19287900  1
  C  C32  1  0.50243700  0.00038200  0.80590900  1
  C  C33  1  0.03682900  0.49091200  0.17954300  1
  C  C34  1  0.96335900  0.50884100  0.81901700  1
  C  C35  1  0.53682900  0.99091200  0.17954300  1
  C  C36  1  0.46335900  0.00884100  0.81901700  1
  C  C37  1  0.97060200  0.46930600  0.24291700  1
  C  C38  1  0.01464900  0.46190300  0.77150400  1
  C  C39  1  0.47060200  0.96930600  0.24291700  1
  C  C40  1  0.51464900  0.96190300  0.77150400  1
  C  C41  1  0.67332500  0.46995300  0.85164500  1
  C  C42  1  0.32630200  0.47272200  0.14781800  1
  C  C43  1  0.17332500  0.96995300  0.85164500  1
  C  C44  1  0.82630200  0.97272200  0.14781800  1
  C  C45  1  0.63454100  0.46987100  0.89030800  1
  C  C46  1  0.36507900  0.47194800  0.10943400  1
  C  C47  1  0.13454100  0.96987100  0.89030800  1
  C  C48  1  0.86507900  0.97194800  0.10943400  1
  C  C49  1  0.61476800  0.49988900  0.88469900  1
  C  C50  1  0.38529900  0.50102200  0.11654700  1
  C  C51  1  0.11476800  0.99988900  0.88469900  1
  C  C52  1  0.88529900  0.00102200  0.11654700  1
  C  C53  1  0.63422900  0.52990400  0.84018000  1
  C  C54  1  0.36631600  0.53079900  0.16229500  1
  C  C55  1  0.13422900  0.02990400  0.84018000  1
  C  C56  1  0.86631600  0.03079900  0.16229500  1
  C  C57  1  0.67301900  0.52981200  0.80192000  1
  C  C58  1  0.32752800  0.53141900  0.20027800  1
  C  C59  1  0.17301900  0.02981200  0.80192000  1
  C  C60  1  0.82752800  0.03141900  0.20027800  1
  C  C61  1  0.69256800  0.49987900  0.80755600  1
  C  C62  1  0.30752000  0.50242700  0.19310400  1
  C  C63  1  0.19256800  0.99987900  0.80755600  1
  C  C64  1  0.80752000  0.00242700  0.19310400  1
  C  C65  1  0.73294300  0.49987400  0.76767500  1
  C  C66  1  0.26714900  0.50308600  0.23265300  1
  C  C67  1  0.23294300  0.99987400  0.76767500  1
  C  C68  1  0.76714900  0.00308600  0.23265300  1
  C  C69  1  0.76684200  0.49975000  0.73436700  1
  C  C70  1  0.23325000  0.50320800  0.26550300  1
  C  C71  1  0.26684200  0.99975000  0.73436700  1
  C  C72  1  0.73325000  0.00320800  0.26550300  1
  C  C73  1  0.82633600  0.47284300  0.71059500  1
  C  C74  1  0.17439300  0.47477800  0.28976000  1
  C  C75  1  0.32633600  0.97284300  0.71059500  1
  C  C76  1  0.67439300  0.97477800  0.28976000  1
  C  C77  1  0.86514100  0.47217800  0.67333100  1
  C  C78  1  0.13564100  0.47337100  0.32664500  1
  C  C79  1  0.36514100  0.97217800  0.67333100  1
  C  C80  1  0.63564100  0.97337100  0.32664500  1
  C  C81  1  0.88513400  0.49852300  0.61917200  1
  C  C82  1  0.11500100  0.50027300  0.37913000  1
  C  C83  1  0.38513400  0.99852300  0.61917200  1
  C  C84  1  0.61500100  0.00027300  0.37913000  1
  C  C85  1  0.86566300  0.52556200  0.60487300  1
  C  C86  1  0.13379800  0.52872000  0.39186200  1
  C  C87  1  0.36566300  0.02556200  0.60487300  1
  C  C88  1  0.63379800  0.02872000  0.39186200  1
  C  C89  1  0.82689800  0.52589400  0.64232100  1
  C  C90  1  0.17257900  0.52978100  0.35477300  1
  C  C91  1  0.32689800  0.02589400  0.64232100  1
  C  C92  1  0.67257900  0.02978100  0.35477300  1
  C  C93  1  0.80721700  0.49940900  0.69496600  1
  C  C94  1  0.19288000  0.50261500  0.30406500  1
  C  C95  1  0.30721700  0.99940900  0.69496600  1
  C  C96  1  0.69288000  0.00261500  0.30406500  1
  C  C97  1  0.99999800  0.57370600  0.00035600  1
  C  C98  1  0.49999800  0.07370600  0.00035600  1
  C  C99  1  0.99812400  0.49923700  0.12306900  1
  C  C100  1  0.00197300  0.50070500  0.87571700  1
  C  C101  1  0.49812400  0.99923700  0.12306900  1
  C  C102  1  0.50197300  0.00070500  0.87571700  1
  C  C103  1  0.00011700  0.42631800  0.99845200  1
  C  C104  1  0.50011700  0.92631800  0.99845200  1
  C  C105  1  0.49993000  0.42640600  0.00249500  1
  C  C106  1  0.99993000  0.92640600  0.00249500  1
  C  C107  1  0.57359700  0.49991100  0.92562500  1
  C  C108  1  0.42645500  0.50039300  0.07563600  1
  C  C109  1  0.07359700  0.99991100  0.92562500  1
  C  C110  1  0.92645500  0.00039300  0.07563600  1
  C  C111  1  0.50009400  0.57376600  0.99880100  1
  C  C112  1  0.00009400  0.07376600  0.99880100  1
  C  C113  1  0.50016600  0.32678700  0.94661400  1
  C  C114  1  0.50151200  0.32672500  0.05633100  1
  C  C115  1  0.00016600  0.82678700  0.94661400  1
  C  C116  1  0.00151200  0.82672500  0.05633100  1
  C  C117  1  0.49974700  0.36556500  0.94696900  1
  C  C118  1  0.50106100  0.36550800  0.05696500  1
  C  C119  1  0.99974700  0.86556500  0.94696900  1
  C  C120  1  0.00106100  0.86550800  0.05696500  1
  C  C121  1  0.50018800  0.38516100  0.00221100  1
  C  C122  1  0.00018800  0.88516100  0.00221100  1
  C  C123  1  0.50107400  0.30736700  0.00120200  1
  C  C124  1  0.00107400  0.80736700  0.00120200  1
  C  C125  1  0.50135100  0.26701100  0.00082300  1
  C  C126  1  0.00135100  0.76701100  0.00082300  1
  C  C127  1  0.00141100  0.73312100  0.00059200  1
  C  C128  1  0.50141100  0.23312100  0.00059200  1
  C  C129  1  0.03455300  0.67308200  0.96698500  1
  C  C130  1  0.96750600  0.67366800  0.03398600  1
  C  C131  1  0.53455300  0.17308200  0.96698500  1
  C  C132  1  0.46750600  0.17366800  0.03398600  1
  C  C133  1  0.03428300  0.63428100  0.96684000  1
  C  C134  1  0.96708400  0.63490200  0.03398900  1
  C  C135  1  0.53428300  0.13428100  0.96684000  1
  C  C136  1  0.46708400  0.13490200  0.03398900  1
  C  C137  1  0.00050000  0.61495800  0.00036800  1
  C  C138  1  0.50050000  0.11495800  0.00036800  1
  C  C139  1  0.00118800  0.69276500  0.00052400  1
  C  C140  1  0.50118800  0.19276500  0.00052400  1
  C  C141  1  0.49624100  0.67337100  0.05769300  1
  C  C142  1  0.50218900  0.67333500  0.94123600  1
  C  C143  1  0.99624100  0.17337100  0.05769300  1
  C  C144  1  0.00218900  0.17333500  0.94123600  1
  C  C145  1  0.49674500  0.63460500  0.05739600  1
  C  C146  1  0.50251900  0.63456900  0.94091400  1
  C  C147  1  0.99674500  0.13460500  0.05739600  1
  C  C148  1  0.00251900  0.13456900  0.94091400  1
  C  C149  1  0.49983600  0.61498200  0.99900300  1
  C  C150  1  0.99983600  0.11498200  0.99900300  1
  C  C151  1  0.49898700  0.69276300  0.99963300  1
  C  C152  1  0.99898700  0.19276300  0.99963300  1
  C  C153  1  0.49872400  0.73312100  0.99979000  1
  C  C154  1  0.99872400  0.23312100  0.99979000  1
  C  C155  1  0.99867400  0.26701200  0.99973300  1
  C  C156  1  0.49867400  0.76701200  0.99973300  1
  C  C157  1  0.03259300  0.32639600  0.96540600  1
  C  C158  1  0.96554400  0.32700200  0.03297500  1
  C  C159  1  0.53259300  0.82639600  0.96540600  1
  C  C160  1  0.46554400  0.82700200  0.03297500  1
  C  C161  1  0.03302400  0.36515100  0.96499300  1
  C  C162  1  0.96582100  0.36579100  0.03269800  1
  C  C163  1  0.53302400  0.86515100  0.96499300  1
  C  C164  1  0.46582100  0.86579100  0.03269800  1
  C  C165  1  0.99961000  0.38508800  0.99869600  1
  C  C166  1  0.49961000  0.88508800  0.99869600  1
  C  C167  1  0.99890700  0.30733200  0.99938100  1
  C  C168  1  0.49890700  0.80733200  0.99938100  1
  I  I1  1  0.60666200  0.42224500  0.95345900  1
  I  I2  1  0.39232700  0.42473500  0.04417500  1
  I  I3  1  0.10666200  0.92224500  0.95345900  1
  I  I4  1  0.89232700  0.92473500  0.04417500  1
  I  I5  1  0.60593400  0.57759400  0.83286600  1
  I  I6  1  0.39540000  0.57712500  0.17193600  1
  I  I7  1  0.10593400  0.07759400  0.83286600  1
  I  I8  1  0.89540000  0.07712500  0.17193600  1
  I  I9  1  0.89080300  0.43269300  0.70853300  1
  I  I10  1  0.11106000  0.43158000  0.29352300  1
  I  I11  1  0.39080300  0.93269300  0.70853300  1
  I  I12  1  0.61106000  0.93158000  0.29352300  1
  I  I13  1  0.49121300  0.70276600  0.14724100  1
  I  I14  1  0.50668700  0.70267600  0.85207100  1
  I  I15  1  0.99121300  0.20276600  0.14724100  1
  I  I16  1  0.00668700  0.20267600  0.85207100  1
  O  O1  1  0.94332900  0.53172500  0.55660200  1
  O  O2  1  0.05545100  0.53148000  0.44008800  1
  O  O3  1  0.44332900  0.03172500  0.55660200  1
  O  O4  1  0.55545100  0.03148000  0.44008800  1
  O  O5  1  0.94471200  0.46696000  0.55873600  1
  O  O6  1  0.05682100  0.46670400  0.44208000  1
  O  O7  1  0.44471200  0.96696000  0.55873600  1
  O  O8  1  0.55682100  0.96670400  0.44208000  1
  O  O9  1  0.99632500  0.53224100  0.40991200  1
  O  O10  1  0.00070900  0.53103000  0.59110100  1
  O  O11  1  0.49632500  0.03224100  0.40991200  1
  O  O12  1  0.50070900  0.03103000  0.59110100  1
  O  O13  1  0.99936000  0.46740100  0.40771200  1
  O  O14  1  0.00390400  0.46619900  0.58877700  1
  O  O15  1  0.49936000  0.96740100  0.40771200  1
  O  O16  1  0.50390400  0.96619900  0.58877700  1
  O  O17  1  0.96732600  0.55659200  0.03261200  1
  O  O18  1  0.03216900  0.55557500  0.96819800  1
  O  O19  1  0.46732600  0.05659200  0.03261200  1
  O  O20  1  0.53216900  0.05557500  0.96819800  1
  O  O21  1  0.96591800  0.50099000  0.12485000  1
  O  O22  1  0.03417900  0.49905000  0.87394800  1
  O  O23  1  0.46591800  0.00099000  0.12485000  1
  O  O24  1  0.53417900  0.99905000  0.87394800  1
  O  O25  1  0.03075100  0.49818800  0.06284900  1
  O  O26  1  0.96935000  0.50188600  0.93593600  1
  O  O27  1  0.53075100  0.99818800  0.06284900  1
  O  O28  1  0.46935000  0.00188600  0.93593600  1
  O  O29  1  0.96794100  0.44443400  0.03063300  1
  O  O30  1  0.03279400  0.44341700  0.96613400  1
  O  O31  1  0.46794100  0.94443400  0.03063300  1
  O  O32  1  0.53279400  0.94341700  0.96613400  1
  O  O33  1  0.50026600  0.44402800  0.94846300  1
  O  O34  1  0.49957800  0.44402400  0.05652100  1
  O  O35  1  0.00026600  0.94402800  0.94846300  1
  O  O36  1  0.99957800  0.94402400  0.05652100  1
  O  O37  1  0.55563200  0.50078600  0.88976900  1
  O  O38  1  0.44441400  0.49954000  0.11150200  1
  O  O39  1  0.05563200  0.00078600  0.88976900  1
  O  O40  1  0.94441400  0.99954000  0.11150200  1
  O  O41  1  0.55642500  0.49919300  0.99645400  1
  O  O42  1  0.44361900  0.50101100  0.00480400  1
  O  O43  1  0.05642500  0.99919300  0.99645400  1
  O  O44  1  0.94361900  0.00101100  0.00480400  1
  O  O45  1  0.50046400  0.55616400  0.94475100  1
  O  O46  1  0.49977700  0.55616600  0.05284600  1
  O  O47  1  0.00046400  0.05616400  0.94475100  1
  O  O48  1  0.99977700  0.05616600  0.05284600  1
