# generated using pymatgen
data_Zn2H21C45N3(ClO2)4
_symmetry_space_group_name_H-M   'P 1'
_cell_length_a   13.43241600
_cell_length_b   8.53300600
_cell_length_c   15.13758700
_cell_angle_alpha   90.00000000
_cell_angle_beta   90.98699300
_cell_angle_gamma   90.00000000
_symmetry_Int_Tables_number   1
_chemical_formula_structural   Zn2H21C45N3(ClO2)4
_chemical_formula_sum   'Zn2 H21 C45 N3 Cl4 O8'
_cell_volume   1734.79593602
_cell_formula_units_Z   1
loop_
 _symmetry_equiv_pos_site_id
 _symmetry_equiv_pos_as_xyz
  1  'x, y, z'
loop_
 _atom_site_type_symbol
 _atom_site_label
 _atom_site_symmetry_multiplicity
 _atom_site_fract_x
 _atom_site_fract_y
 _atom_site_fract_z
 _atom_site_occupancy
  Zn  Zn1  1  0.90158000  0.44989700  0.50372200  1
  Zn  Zn2  1  0.12363100  0.44906800  0.50246000  1
  H  H1  1  0.03098600  0.95065700  0.56400300  1
  H  H2  1  0.01230600  0.20036600  0.80403100  1
  H  H3  1  0.01575000  0.69699000  0.80262000  1
  H  H4  1  0.93307100  0.74535700  0.92820400  1
  H  H5  1  0.94731300  0.74519700  0.08703200  1
  H  H6  1  0.12319700  0.14348500  0.91707000  1
  H  H7  1  0.02896100  0.20363100  0.20580800  1
  H  H8  1  0.04852800  0.70041300  0.20617200  1
  H  H9  1  0.96922900  0.94813300  0.43643100  1
  H  H10  1  0.26047100  0.45557400  0.64228300  1
  H  H11  1  0.59066400  0.43574900  0.28800800  1
  H  H12  1  0.43838800  0.45541600  0.65202300  1
  H  H13  1  0.59247600  0.45307100  0.65157300  1
  H  H14  1  0.26634200  0.44057100  0.36535300  1
  H  H15  1  0.76958900  0.45452600  0.64179700  1
  H  H16  1  0.81093500  0.70151200  0.17738000  1
  H  H17  1  0.81964900  0.20247400  0.17482900  1
  H  H18  1  0.76192600  0.19816300  0.32798800  1
  H  H19  1  0.19698800  0.57112200  0.07880300  1
  H  H20  1  0.33841800  0.22155000  0.23761200  1
  H  H21  1  0.22923100  0.02072700  0.17173800  1
  C  C1  1  0.01638900  0.08954700  0.67807400  1
  C  C2  1  0.01682300  0.81010900  0.67755900  1
  C  C3  1  0.01495300  0.09001200  0.76915100  1
  C  C4  1  0.01447500  0.80818900  0.76856500  1
  C  C5  1  0.01713900  0.94875900  0.81489300  1
  C  C6  1  0.02259800  0.95012700  0.63406700  1
  C  C7  1  0.97866300  0.83352000  0.96026400  1
  C  C8  1  0.98726200  0.83335800  0.05104300  1
  C  C9  1  0.04085800  0.94847100  0.09538200  1
  C  C10  1  0.08814000  0.06351400  0.04628900  1
  C  C11  1  0.08015400  0.06153300  0.95506500  1
  C  C12  1  0.02438900  0.94856500  0.91172500  1
  C  C13  1  0.02847300  0.09166100  0.23871100  1
  C  C14  1  0.03486300  0.81043600  0.23915500  1
  C  C15  1  0.00908700  0.08912000  0.32787900  1
  C  C16  1  0.01087600  0.80976000  0.32750300  1
  C  C17  1  0.99202700  0.94891200  0.36904900  1
  C  C18  1  0.03761600  0.95124800  0.19277300  1
  C  C19  1  0.01503000  0.66810300  0.62386600  1
  C  C20  1  0.01438000  0.23210900  0.62470000  1
  C  C21  1  0.01152200  0.66731300  0.38159900  1
  C  C22  1  0.01047900  0.23069200  0.38234600  1
  C  C23  1  0.30557900  0.44364700  0.42827300  1
  C  C24  1  0.30245500  0.45218500  0.58204300  1
  C  C25  1  0.40511700  0.45179700  0.58699400  1
  C  C26  1  0.46020600  0.44723100  0.51028800  1
  C  C27  1  0.40827400  0.44295600  0.43063000  1
  C  C28  1  0.62301400  0.45113100  0.58644800  1
  C  C29  1  0.56449100  0.44731900  0.50998600  1
  C  C30  1  0.61236000  0.44392200  0.42989100  1
  C  C31  1  0.55659300  0.43910100  0.35201100  1
  C  C32  1  0.72547600  0.45214300  0.58144100  1
  C  C33  1  0.71567200  0.44578600  0.42734700  1
  C  C34  1  0.76331200  0.44750000  0.34137100  1
  C  C35  1  0.77399600  0.58824300  0.29777500  1
  C  C36  1  0.80389400  0.59077800  0.21121200  1
  C  C37  1  0.82190200  0.45229100  0.16739700  1
  C  C38  1  0.80816800  0.31122800  0.20983500  1
  C  C39  1  0.77688300  0.30886000  0.29610000  1
  C  C40  1  0.15181600  0.18285600  0.08744500  1
  C  C41  1  0.14285800  0.33786200  0.06173400  1
  C  C42  1  0.20445700  0.44995900  0.09868600  1
  C  C43  1  0.27505800  0.40820500  0.16131500  1
  C  C44  1  0.28314400  0.25424000  0.18823700  1
  C  C45  1  0.22124000  0.14167200  0.15165200  1
  N  N1  1  0.25418900  0.44830700  0.50347400  1
  N  N2  1  0.45690100  0.43850100  0.35409700  1
  N  N3  1  0.77083700  0.45034000  0.50290200  1
  Cl  Cl1  1  0.74662900  0.76407400  0.35182300  1
  Cl  Cl2  1  0.85784600  0.45523900  0.05679600  1
  Cl  Cl3  1  0.04909000  0.39631600  0.98681700  1
  Cl  Cl4  1  0.35368800  0.55172200  0.20669400  1
  O  O1  1  0.09970200  0.61904900  0.59201600  1
  O  O2  1  0.09901900  0.28039300  0.59260400  1
  O  O3  1  0.92803800  0.61395500  0.59711300  1
  O  O4  1  0.92749200  0.28652800  0.59766600  1
  O  O5  1  0.92662300  0.61866600  0.41359800  1
  O  O6  1  0.92595900  0.28011100  0.41416300  1
  O  O7  1  0.09818000  0.61195000  0.40838100  1
  O  O8  1  0.09740700  0.28538000  0.40897800  1
