# generated using pymatgen
data_Zn2H17C46N3O10
_symmetry_space_group_name_H-M   'P 1'
_cell_length_a   8.52451700
_cell_length_b   10.73276000
_cell_length_c   17.48757300
_cell_angle_alpha   97.77673800
_cell_angle_beta   90.11063200
_cell_angle_gamma   90.00837400
_symmetry_Int_Tables_number   1
_chemical_formula_structural   Zn2H17C46N3O10
_chemical_formula_sum   'Zn2 H17 C46 N3 O10'
_cell_volume   1585.24774638
_cell_formula_units_Z   1
loop_
 _symmetry_equiv_pos_site_id
 _symmetry_equiv_pos_as_xyz
  1  'x, y, z'
loop_
 _atom_site_type_symbol
 _atom_site_label
 _atom_site_symmetry_multiplicity
 _atom_site_fract_x
 _atom_site_fract_y
 _atom_site_fract_z
 _atom_site_occupancy
  Zn  Zn1  1  0.49808500  0.49551100  0.08636300  1
  Zn  Zn2  1  0.49584400  0.50251200  0.91616600  1
  H  H1  1  0.99636000  0.59100300  0.04432000  1
  H  H2  1  0.99039300  0.40624300  0.95786100  1
  H  H3  1  0.25330000  0.90454000  0.99687400  1
  H  H4  1  0.25142300  0.09697100  0.00897300  1
  H  H5  1  0.60751200  0.10062900  0.98868700  1
  H  H6  1  0.44992800  0.29972600  0.17843000  1
  H  H7  1  0.41415400  0.19117500  0.28881900  1
  H  H8  1  0.58144400  0.80052300  0.33499600  1
  H  H9  1  0.37784700  0.08440600  0.39951700  1
  H  H10  1  0.37323600  0.08805600  0.53974600  1
  H  H11  1  0.60928700  0.91296000  0.46090300  1
  H  H12  1  0.40196100  0.20089600  0.66704800  1
  H  H13  1  0.59373800  0.80181500  0.71686600  1
  H  H14  1  0.55040600  0.69723400  0.82451000  1
  H  H15  1  0.54605100  0.68768600  0.20863500  1
  H  H16  1  0.44253500  0.31140500  0.79329800  1
  H  H17  1  0.69518100  0.12791100  0.62045800  1
  C  C1  1  0.99739100  0.68863100  0.03560600  1
  C  C2  1  0.13751700  0.74680200  0.02560800  1
  C  C3  1  0.14016100  0.86828400  0.00943800  1
  C  C4  1  0.85853300  0.74835100  0.02450100  1
  C  C5  1  0.85958600  0.87336600  0.01205700  1
  C  C6  1  0.00126200  0.93577400  0.00704600  1
  C  C7  1  0.00036900  0.06207100  0.99587300  1
  C  C8  1  0.13808500  0.13166300  0.99520000  1
  C  C9  1  0.13392000  0.25296700  0.97874700  1
  C  C10  1  0.71962300  0.05576100  0.99427700  1
  C  C11  1  0.85761700  0.12185200  0.98892600  1
  C  C12  1  0.85468500  0.24704200  0.97624100  1
  C  C13  1  0.99302300  0.30871800  0.96676800  1
  C  C14  1  0.27919000  0.67076300  0.01837400  1
  C  C15  1  0.27496500  0.33031000  0.98587100  1
  C  C16  1  0.71285200  0.32457000  0.98385300  1
  C  C17  1  0.71674600  0.67062700  0.01701200  1
  C  C18  1  0.47153200  0.38613500  0.21639200  1
  C  C19  1  0.52630700  0.60188900  0.23309600  1
  C  C20  1  0.43714600  0.27777500  0.32641200  1
  C  C21  1  0.46883600  0.38661800  0.29543200  1
  C  C22  1  0.49754500  0.49667000  0.34354500  1
  C  C23  1  0.52735000  0.60476700  0.31214100  1
  C  C24  1  0.55755300  0.71545400  0.35969100  1
  C  C25  1  0.40144600  0.17130800  0.43670500  1
  C  C26  1  0.43413400  0.27977000  0.40550800  1
  C  C27  1  0.46379800  0.39032100  0.45350000  1
  C  C28  1  0.39879700  0.17339300  0.51565600  1
  C  C29  1  0.42947200  0.28378400  0.56354800  1
  C  C30  1  0.49565600  0.49886800  0.42252900  1
  C  C31  1  0.52528200  0.60963700  0.47035500  1
  C  C32  1  0.55742800  0.71753100  0.43877700  1
  C  C33  1  0.58731400  0.82814900  0.48615900  1
  C  C34  1  0.46186300  0.39240600  0.53244500  1
  C  C35  1  0.49245800  0.50295000  0.58033800  1
  C  C36  1  0.52363700  0.61226500  0.54953400  1
  C  C37  1  0.55391700  0.72335400  0.59775300  1
  C  C38  1  0.58309800  0.83293000  0.56540600  1
  C  C39  1  0.42834300  0.28553700  0.64252200  1
  C  C40  1  0.46126000  0.39546000  0.69021200  1
  C  C41  1  0.49222600  0.50374700  0.65911500  1
  C  C42  1  0.52556900  0.61230100  0.70735000  1
  C  C43  1  0.55901000  0.72132900  0.67702600  1
  C  C44  1  0.46408400  0.39723800  0.76916700  1
  C  C45  1  0.52592700  0.61160000  0.78633800  1
  C  C46  1  0.60460300  0.95658700  0.61182500  1
  N  N1  1  0.72304300  0.93391400  0.00519100  1
  N  N2  1  0.50026200  0.49317500  0.18645500  1
  N  N3  1  0.49422400  0.50490100  0.81606900  1
  O  O1  1  0.32865700  0.63147100  0.94829200  1
  O  O2  1  0.33474000  0.62954000  0.08034100  1
  O  O3  1  0.32704300  0.36894100  0.05569900  1
  O  O4  1  0.32983200  0.37105300  0.92373100  1
  O  O5  1  0.66493400  0.36617900  0.05396400  1
  O  O6  1  0.65846500  0.36783000  0.92228000  1
  O  O7  1  0.66649100  0.62950800  0.94713100  1
  O  O8  1  0.66327200  0.62769300  0.07872400  1
  O  O9  1  0.53045700  0.98540100  0.67107300  1
  O  O10  1  0.69725200  0.04674900  0.58352300  1
