# generated using pymatgen
data_Zn2H14C29N4O9
_symmetry_space_group_name_H-M   'P 1'
_cell_length_a   8.52476300
_cell_length_b   10.68407400
_cell_length_c   14.30569300
_cell_angle_alpha   97.72044200
_cell_angle_beta   90.10796300
_cell_angle_gamma   90.00841300
_symmetry_Int_Tables_number   1
_chemical_formula_structural   Zn2H14C29N4O9
_chemical_formula_sum   'Zn2 H14 C29 N4 O9'
_cell_volume   1291.13784088
_cell_formula_units_Z   1
loop_
 _symmetry_equiv_pos_site_id
 _symmetry_equiv_pos_as_xyz
  1  'x, y, z'
loop_
 _atom_site_type_symbol
 _atom_site_label
 _atom_site_symmetry_multiplicity
 _atom_site_fract_x
 _atom_site_fract_y
 _atom_site_fract_z
 _atom_site_occupancy
  Zn  Zn1  1  0.50540000  0.50078900  0.09828700  1
  Zn  Zn2  1  0.50531300  0.51531600  0.89120800  1
  H  H1  1  0.61655400  0.90475200  0.01058800  1
  H  H2  1  0.00169300  0.60097900  0.05300500  1
  H  H3  1  0.00189500  0.41591000  0.93679700  1
  H  H4  1  0.26017400  0.91126300  0.98775800  1
  H  H5  1  0.26062500  0.10436400  0.99995600  1
  H  H6  1  0.72302700  0.63979600  0.56003600  1
  H  H7  1  0.54045100  0.29699500  0.53856400  1
  H  H8  1  0.28769400  0.37560900  0.42922000  1
  H  H9  1  0.25966200  0.59665500  0.56002300  1
  H  H10  1  0.47045600  0.71880600  0.45077700  1
  H  H11  1  0.87667100  0.41924000  0.46467400  1
  H  H12  1  0.00788200  0.25919200  0.37361700  1
  H  H13  1  0.91354700  0.19977000  0.26339100  1
  H  H14  1  0.88006600  0.12308800  0.36682700  1
  C  C1  1  0.00354700  0.69906400  0.04212600  1
  C  C2  1  0.14408600  0.75576900  0.02754200  1
  C  C3  1  0.14721500  0.87660700  0.00536700  1
  C  C4  1  0.86475500  0.75991500  0.02913600  1
  C  C5  1  0.86685600  0.88487900  0.01167600  1
  C  C6  1  0.00907200  0.94531500  0.00271500  1
  C  C7  1  0.00910800  0.07110400  0.98641600  1
  C  C8  1  0.14742000  0.13937900  0.98300100  1
  C  C9  1  0.14416500  0.26045700  0.96124700  1
  C  C10  1  0.72839200  0.95000000  0.00331400  1
  C  C11  1  0.86713900  0.13249100  0.97847400  1
  C  C12  1  0.86517700  0.25711600  0.96108600  1
  C  C13  1  0.00366300  0.31776600  0.94751700  1
  C  C14  1  0.28524600  0.67857800  0.01773900  1
  C  C15  1  0.28535500  0.33743500  0.97116600  1
  C  C16  1  0.72325200  0.33462600  0.97131500  1
  C  C17  1  0.72346500  0.68139300  0.01873300  1
  C  C18  1  0.62267100  0.58153800  0.53006900  1
  C  C19  1  0.63361000  0.46160400  0.46194000  1
  C  C20  1  0.48680000  0.62347400  0.47183300  1
  C  C21  1  0.50228200  0.50252500  0.40416600  1
  C  C22  1  0.37079000  0.55627100  0.52908600  1
  C  C23  1  0.50622200  0.51391600  0.58535700  1
  C  C24  1  0.38639700  0.43520100  0.45993900  1
  C  C25  1  0.52182600  0.39244000  0.51818200  1
  C  C26  1  0.50432900  0.49651100  0.30139700  1
  C  C27  1  0.50600300  0.51973700  0.68810700  1
  C  C28  1  0.76130800  0.29870300  0.36601600  1
  C  C29  1  0.89951300  0.21526800  0.34114100  1
  N  N1  1  0.73099900  0.07151200  0.98765000  1
  N  N2  1  0.50556100  0.49360300  0.22026500  1
  N  N3  1  0.50574700  0.52252100  0.76923300  1
  N  N4  1  0.77811900  0.40932400  0.42269600  1
  O  O1  1  0.33624000  0.64257900  0.93190100  1
  O  O2  1  0.34069100  0.63485800  0.09264300  1
  O  O3  1  0.33633400  0.37348900  0.05709700  1
  O  O4  1  0.34054400  0.38117300  0.89633900  1
  O  O5  1  0.67401000  0.37306500  0.05724600  1
  O  O6  1  0.66926800  0.38058100  0.89695700  1
  O  O7  1  0.67396500  0.64304400  0.93274800  1
  O  O8  1  0.66948100  0.63557000  0.09303200  1
  O  O9  1  0.63227200  0.26633500  0.33478000  1
