# generated using pymatgen
data_CuH21C29NO14
_symmetry_space_group_name_H-M   'P 1'
_cell_length_a   17.78641200
_cell_length_b   16.23926300
_cell_length_c   10.87367200
_cell_angle_alpha   90.00000000
_cell_angle_beta   90.01075800
_cell_angle_gamma   90.00000000
_symmetry_Int_Tables_number   1
_chemical_formula_structural   CuH21C29NO14
_chemical_formula_sum   'Cu2 H42 C58 N2 O28'
_cell_volume   3140.73203493
_cell_formula_units_Z   2
loop_
 _symmetry_equiv_pos_site_id
 _symmetry_equiv_pos_as_xyz
  1  'x, y, z'
loop_
 _atom_site_type_symbol
 _atom_site_label
 _atom_site_symmetry_multiplicity
 _atom_site_fract_x
 _atom_site_fract_y
 _atom_site_fract_z
 _atom_site_occupancy
  Cu  Cu1  1  0.50024500  0.57590600  0.49995300  1
  Cu  Cu2  1  0.50050500  0.41147800  0.49884700  1
  H  H1  1  0.87860500  0.62357700  0.52385600  1
  H  H2  1  0.12012700  0.36875900  0.53750300  1
  H  H3  1  0.12246800  0.62324300  0.46643400  1
  H  H4  1  0.88086400  0.36761300  0.46739100  1
  H  H5  1  0.44725700  0.85814100  0.67531700  1
  H  H6  1  0.39968700  0.12845600  0.39427200  1
  H  H7  1  0.55540400  0.85823800  0.32646100  1
  H  H8  1  0.60011400  0.12991300  0.60669300  1
  H  H9  1  0.44681500  0.70761000  0.67259600  1
  H  H10  1  0.40052400  0.28016800  0.39454300  1
  H  H11  1  0.55691200  0.70762900  0.32964700  1
  H  H12  1  0.59946600  0.28054800  0.60361600  1
  H  H13  1  0.21691700  0.50134400  0.89407400  1
  H  H14  1  0.22525900  0.55767600  0.75148500  1
  H  H15  1  0.21742300  0.61282100  0.89541500  1
  H  H16  1  0.78299700  0.48265200  0.10352700  1
  H  H17  1  0.77834800  0.53930200  0.24626600  1
  H  H18  1  0.78723300  0.59398700  0.10234000  1
  H  H19  1  0.36327800  0.76436200  0.11425900  1
  H  H20  1  0.32014800  0.72481900  0.25296800  1
  H  H21  1  0.27353900  0.71190300  0.10657200  1
  H  H22  1  0.63302800  0.21727300  0.81514700  1
  H  H23  1  0.54521000  0.16121800  0.83070400  1
  H  H24  1  0.59734200  0.19142600  0.96584900  1
  H  H25  1  0.65358800  0.75186300  0.87863200  1
  H  H26  1  0.69080900  0.70787200  0.73837700  1
  H  H27  1  0.74008600  0.69304700  0.88208200  1
  H  H28  1  0.34737000  0.23290100  0.19243400  1
  H  H29  1  0.42900000  0.16708700  0.17181200  1
  H  H30  1  0.37668300  0.20272400  0.03977700  1
  H  H31  1  0.67876100  0.78361800  0.54940500  1
  H  H32  1  0.69884600  0.81823200  0.39461500  1
  H  H33  1  0.76759800  0.83291900  0.51510200  1
  H  H34  1  0.30606900  0.22305300  0.66254900  1
  H  H35  1  0.28901100  0.15512200  0.53312000  1
  H  H36  1  0.21446800  0.17660000  0.64118300  1
  H  H37  1  0.32677700  0.78290300  0.45001400  1
  H  H38  1  0.30026700  0.81911000  0.60111100  1
  H  H39  1  0.23707700  0.83348700  0.47268200  1
  H  H40  1  0.69826300  0.21734800  0.35187400  1
  H  H41  1  0.71482700  0.15356300  0.48616700  1
  H  H42  1  0.79017000  0.17297000  0.37903500  1
  C  C1  1  0.35501700  0.49421700  0.50306700  1
  C  C2  1  0.64560500  0.49351100  0.49658500  1
  C  C3  1  0.49882100  0.49350800  0.26251200  1
  C  C4  1  0.50147200  0.49327400  0.73654400  1
  C  C5  1  0.46727900  0.55914000  0.03993400  1
  C  C6  1  0.53192500  0.42533300  0.95907400  1
  C  C7  1  0.53676200  0.55604800  0.95899600  1
  C  C8  1  0.46311200  0.42842000  0.04044000  1
  C  C9  1  0.43153500  0.49534600  0.95760700  1
  C  C10  1  0.56802300  0.48967600  0.04157400  1
  C  C11  1  0.50073700  0.49220400  0.87494400  1
  C  C12  1  0.49882300  0.49274700  0.12424500  1
  C  C13  1  0.84702300  0.56742700  0.51059700  1
  C  C14  1  0.15309500  0.42317600  0.51857700  1
  C  C15  1  0.15398400  0.56749900  0.48347500  1
  C  C16  1  0.84791200  0.42241400  0.48344600  1
  C  C17  1  0.76920400  0.56831300  0.50452400  1
  C  C18  1  0.23108200  0.42151400  0.51883000  1
  C  C19  1  0.23168200  0.56877400  0.49149100  1
  C  C20  1  0.76991200  0.42052400  0.48430200  1
  C  C21  1  0.72939100  0.49401300  0.49603700  1
  C  C22  1  0.27140600  0.49479100  0.50362400  1
  C  C23  1  0.88596300  0.49507700  0.49888200  1
  C  C24  1  0.11509000  0.49531900  0.49823800  1
  C  C25  1  0.96665600  0.49559300  0.49855500  1
  C  C26  1  0.03441000  0.49571800  0.49810000  1
  C  C27  1  0.47090900  0.82543700  0.59788400  1
  C  C28  1  0.44376000  0.16184600  0.44115900  1
  C  C29  1  0.53103900  0.82545000  0.40327100  1
  C  C30  1  0.55572200  0.16232500  0.55924100  1
  C  C31  1  0.47123100  0.74054100  0.59653100  1
  C  C32  1  0.44430700  0.24687100  0.44203300  1
  C  C33  1  0.53158400  0.74051000  0.40547200  1
  C  C34  1  0.55501000  0.24719700  0.55795600  1
  C  C35  1  0.50029400  0.86828400  0.49997600  1
  C  C36  1  0.49981700  0.11924800  0.50027500  1
  C  C37  1  0.50002300  0.95666400  0.49983400  1
  C  C38  1  0.49992900  0.03087600  0.50001800  1
  C  C39  1  0.32390300  0.55654500  0.86299300  1
  C  C40  1  0.24059900  0.55719000  0.84998400  1
  C  C41  1  0.67863200  0.54337500  0.13690500  1
  C  C42  1  0.76202900  0.53958900  0.14817300  1
  C  C43  1  0.36819100  0.63395400  0.13593500  1
  C  C44  1  0.32882500  0.71391500  0.15362000  1
  C  C45  1  0.53914100  0.28892800  0.87533400  1
  C  C46  1  0.58139300  0.20975200  0.87112400  1
  C  C47  1  0.64012000  0.62194700  0.86071100  1
  C  C48  1  0.68392100  0.69859500  0.83852200  1
  C  C49  1  0.44566300  0.29338700  0.12518100  1
  C  C50  1  0.39656800  0.21932200  0.13320100  1
  C  C51  1  0.75706000  0.70960400  0.44977800  1
  C  C52  1  0.72335100  0.79118900  0.47925300  1
  C  C53  1  0.24010600  0.27471200  0.51811200  1
  C  C54  1  0.26410700  0.20282100  0.59347900  1
  C  C55  1  0.24334500  0.71087000  0.54185100  1
  C  C56  1  0.27922400  0.79162000  0.51438500  1
  C  C57  1  0.76203800  0.27400900  0.49512900  1
  C  C58  1  0.73971000  0.19982400  0.42348300  1
  N  N1  1  0.50021700  0.69911300  0.50007700  1
  N  N2  1  0.49983700  0.28831900  0.49888400  1
  O  O1  1  0.39116300  0.56449000  0.50645000  1
  O  O2  1  0.60946300  0.42294100  0.49307700  1
  O  O3  1  0.60963800  0.56398100  0.50190800  1
  O  O4  1  0.39086100  0.42364800  0.49689300  1
  O  O5  1  0.49642800  0.56418500  0.32097700  1
  O  O6  1  0.50392700  0.42298200  0.67794200  1
  O  O7  1  0.49918300  0.56421500  0.67876700  1
  O  O8  1  0.50173100  0.42299900  0.32046200  1
  O  O9  1  0.35724300  0.49393200  0.92322800  1
  O  O10  1  0.36093600  0.61413000  0.82442400  1
  O  O11  1  0.64205700  0.48312400  0.07618900  1
  O  O12  1  0.64447000  0.60254500  0.17727500  1
  O  O13  1  0.43383000  0.63188500  0.07392000  1
  O  O14  1  0.33974900  0.57060100  0.17410300  1
  O  O15  1  0.57129700  0.35551900  0.92767000  1
  O  O16  1  0.47438200  0.29159900  0.83880200  1
  O  O17  1  0.57514200  0.62565400  0.92434200  1
  O  O18  1  0.66412000  0.55608900  0.82390300  1
  O  O19  1  0.41873000  0.36246900  0.07231000  1
  O  O20  1  0.51084400  0.28951800  0.15936000  1
  O  O21  1  0.73256600  0.64113600  0.50846100  1
  O  O22  1  0.80306800  0.70471200  0.36692500  1
  O  O23  1  0.26753200  0.35044500  0.54391700  1
  O  O24  1  0.19858400  0.26396000  0.43026600  1
  O  O25  1  0.26831600  0.64160200  0.48576600  1
  O  O26  1  0.19511600  0.70736000  0.62141100  1
  O  O27  1  0.73379000  0.34851900  0.46441400  1
  O  O28  1  0.80323400  0.26634500  0.58412800  1
