# generated using pymatgen
data_CuH8C17N3O4
_symmetry_space_group_name_H-M   'P 1'
_cell_length_a   17.96887600
_cell_length_b   6.68035900
_cell_length_c   15.62656400
_cell_angle_alpha   90.00000000
_cell_angle_beta   101.00869900
_cell_angle_gamma   90.00000000
_symmetry_Int_Tables_number   1
_chemical_formula_structural   CuH8C17N3O4
_chemical_formula_sum   'Cu2 H16 C34 N6 O8'
_cell_volume   1841.27205950
_cell_formula_units_Z   2
loop_
 _symmetry_equiv_pos_site_id
 _symmetry_equiv_pos_as_xyz
  1  'x, y, z'
loop_
 _atom_site_type_symbol
 _atom_site_label
 _atom_site_symmetry_multiplicity
 _atom_site_fract_x
 _atom_site_fract_y
 _atom_site_fract_z
 _atom_site_occupancy
  Cu  Cu1  1  0.92546700  0.99095300  0.99080700  1
  Cu  Cu2  1  0.07453300  0.00904700  0.00919200  1
  H  H1  1  0.20732100  0.71142700  0.05343300  1
  H  H2  1  0.79267900  0.28857300  0.94656700  1
  H  H3  1  0.80307900  0.67927500  0.01508000  1
  H  H4  1  0.19692100  0.32072500  0.98492000  1
  H  H5  1  0.34361800  0.70384400  0.05059900  1
  H  H6  1  0.65638200  0.29615600  0.94940000  1
  H  H7  1  0.66682400  0.67902500  0.01873000  1
  H  H8  1  0.33317600  0.32097500  0.98127000  1
  H  H9  1  0.97222400  0.13707500  0.56861800  1
  H  H10  1  0.02777600  0.86292500  0.43138100  1
  H  H11  1  0.98185100  0.13681700  0.41817500  1
  H  H12  1  0.01814900  0.86318300  0.58182500  1
  H  H13  1  0.00975700  0.86223600  0.73169700  1
  H  H14  1  0.99024300  0.13776400  0.26830200  1
  H  H15  1  0.03209400  0.86329000  0.27972600  1
  H  H16  1  0.96790600  0.13670900  0.72027400  1
  C  C1  1  0.00547600  0.27672200  0.11745400  1
  C  C2  1  0.99452300  0.72327800  0.88254500  1
  C  C3  1  0.98599900  0.27300700  0.87963600  1
  C  C4  1  0.01400100  0.72699300  0.12036400  1
  C  C5  1  0.99971600  0.70279100  0.72922200  1
  C  C6  1  0.00028400  0.29720900  0.27077800  1
  C  C7  1  0.02480800  0.70282100  0.27733000  1
  C  C8  1  0.97519200  0.29717900  0.72267000  1
  C  C9  1  0.99119300  0.60251400  0.80390600  1
  C  C10  1  0.00880600  0.39748600  0.19609400  1
  C  C11  1  0.01991300  0.60363200  0.19887200  1
  C  C12  1  0.98008600  0.39636800  0.80112700  1
  C  C13  1  0.98386900  0.39891500  0.64848000  1
  C  C14  1  0.01613100  0.60108500  0.35152000  1
  C  C15  1  0.00317900  0.39821400  0.34798000  1
  C  C16  1  0.99682100  0.60178600  0.65202000  1
  C  C17  1  0.23570300  0.84668300  0.03926200  1
  C  C18  1  0.76429700  0.15331700  0.96073800  1
  C  C19  1  0.77010200  0.81405900  0.99888400  1
  C  C20  1  0.22989800  0.18594100  0.00111500  1
  C  C21  1  0.31214700  0.84190900  0.03732800  1
  C  C22  1  0.68785300  0.15809100  0.96267200  1
  C  C23  1  0.69368900  0.81388400  0.00133900  1
  C  C24  1  0.30631100  0.18611600  0.99866100  1
  C  C25  1  0.34764400  0.01220100  0.01584700  1
  C  C26  1  0.65235500  0.98779900  0.98415300  1
  C  C27  1  0.98201100  0.29678300  0.57142300  1
  C  C28  1  0.01798900  0.70321700  0.42857600  1
  C  C29  1  0.99222300  0.29626400  0.42127000  1
  C  C30  1  0.00777600  0.70373600  0.57873000  1
  C  C31  1  0.57253200  0.99359700  0.99157200  1
  C  C32  1  0.42746800  0.00640300  0.00842800  1
  C  C33  1  0.99354500  0.39823700  0.49818300  1
  C  C34  1  0.00645500  0.60176300  0.50181700  1
  N  N1  1  0.19571900  0.01697100  0.02059400  1
  N  N2  1  0.80428100  0.98302900  0.97940600  1
  N  N3  1  0.46137700  0.17199900  0.98526900  1
  N  N4  1  0.53862300  0.82800100  0.01473100  1
  N  N5  1  0.53326000  0.16573900  0.97708300  1
  N  N6  1  0.46674000  0.83426100  0.02291700  1
  O  O1  1  0.94058700  0.19389400  0.08221700  1
  O  O2  1  0.05941300  0.80610600  0.91778200  1
  O  O3  1  0.05358700  0.21114900  0.91780600  1
  O  O4  1  0.94641300  0.78885100  0.08219400  1
  O  O5  1  0.06898900  0.21410800  0.09648800  1
  O  O6  1  0.93101100  0.78589200  0.90351200  1
  O  O7  1  0.92485800  0.19146800  0.89941700  1
  O  O8  1  0.07514200  0.80853200  0.10058300  1
