# generated using pymatgen
data_CuH16C24N3O8
_symmetry_space_group_name_H-M   'P 1'
_cell_length_a   13.53641500
_cell_length_b   15.60155100
_cell_length_c   17.04941900
_cell_angle_alpha   83.65522400
_cell_angle_beta   91.01758100
_cell_angle_gamma   109.01174300
_symmetry_Int_Tables_number   1
_chemical_formula_structural   CuH16C24N3O8
_chemical_formula_sum   'Cu2 H32 C48 N6 O16'
_cell_volume   3382.75310509
_cell_formula_units_Z   2
loop_
 _symmetry_equiv_pos_site_id
 _symmetry_equiv_pos_as_xyz
  1  'x, y, z'
loop_
 _atom_site_type_symbol
 _atom_site_label
 _atom_site_symmetry_multiplicity
 _atom_site_fract_x
 _atom_site_fract_y
 _atom_site_fract_z
 _atom_site_occupancy
  Cu  Cu1  1  0.50226000  0.58038100  0.49112400  1
  Cu  Cu2  1  0.48960900  0.40464400  0.50006300  1
  H  H1  1  0.16186100  0.27902600  0.54645100  1
  H  H2  1  0.82851100  0.28366400  0.59136200  1
  H  H3  1  0.97677400  0.24022400  0.57568900  1
  H  H4  1  0.17744600  0.54784800  0.45957800  1
  H  H5  1  0.83156400  0.70713700  0.47419000  1
  H  H6  1  0.11002000  0.64778500  0.46620100  1
  H  H7  1  0.01837200  0.75431700  0.45475300  1
  H  H8  1  0.74074700  0.39313600  0.57906600  1
  H  H9  1  0.51330700  0.61858300  0.73542500  1
  H  H10  1  0.51515200  0.65502200  0.09600100  1
  H  H11  1  0.49877700  0.64327000  0.23864500  1
  H  H12  1  0.46554100  0.33333333  0.75260200  1
  H  H13  1  0.50210900  0.37641100  0.11190800  1
  H  H14  1  0.45620200  0.32539100  0.89572800  1
  H  H15  1  0.49442000  0.36682600  0.25453400  1
  H  H16  1  0.41993700  0.84757800  0.58040900  1
  H  H17  1  0.36536800  0.07131600  0.61039300  1
  H  H18  1  0.36683100  0.22991300  0.59840400  1
  H  H19  1  0.60403600  0.14856400  0.42977700  1
  H  H20  1  0.60028700  0.30247000  0.42091700  1
  H  H21  1  0.58691700  0.85311900  0.84015300  1
  H  H22  1  0.54625700  0.79428600  0.93745500  1
  H  H23  1  0.44983800  0.79463800  0.86204400  1
  H  H24  1  0.31949100  0.66209800  0.77942100  1
  H  H25  1  0.27158100  0.57150900  0.71691100  1
  H  H26  1  0.23325100  0.67330900  0.70029900  1
  H  H27  1  0.74147800  0.62820000  0.31095100  1
  H  H28  1  0.83478800  0.74158400  0.30726400  1
  H  H29  1  0.71908900  0.72060600  0.24857500  1
  H  H30  1  0.66818600  0.12426700  0.26407800  1
  H  H31  1  0.73012000  0.04329900  0.24108300  1
  H  H32  1  0.77669500  0.11186500  0.32200700  1
  C  C1  1  0.49767300  0.50095800  0.34399400  1
  C  C2  1  0.69696800  0.53875400  0.49921600  1
  C  C3  1  0.49285900  0.48288000  0.64721500  1
  C  C4  1  0.29528200  0.44511900  0.49557800  1
  C  C5  1  0.02013200  0.30880800  0.55083000  1
  C  C6  1  0.18119600  0.41827900  0.50396200  1
  C  C7  1  0.86929100  0.65576300  0.48190000  1
  C  C8  1  0.97533000  0.68294500  0.47052900  1
  C  C9  1  0.02705000  0.62017800  0.47654400  1
  C  C10  1  0.97407000  0.52821200  0.49940900  1
  C  C11  1  0.86699300  0.50177100  0.51663800  1
  C  C12  1  0.02607000  0.46277500  0.50850600  1
  C  C13  1  0.97176400  0.37448200  0.53980500  1
  C  C14  1  0.86930000  0.35141500  0.56330700  1
  C  C15  1  0.81794600  0.41418100  0.55313500  1
  C  C16  1  0.13129400  0.48273000  0.48829400  1
  C  C17  1  0.12467000  0.33054200  0.53368900  1
  C  C18  1  0.81268500  0.56485600  0.50099000  1
  C  C19  1  0.49883500  0.50543200  0.25741600  1
  C  C20  1  0.49771900  0.43037900  0.22044200  1
  C  C21  1  0.50167400  0.43576100  0.13899800  1
  C  C22  1  0.50979100  0.51732900  0.09406900  1
  C  C23  1  0.51056300  0.59163400  0.13098400  1
  C  C24  1  0.50239600  0.58514900  0.21185900  1
  C  C25  1  0.48864000  0.54937500  0.85138500  1
  C  C26  1  0.50081100  0.55404600  0.77053400  1
  C  C27  1  0.47537300  0.46620000  0.89778800  1
  C  C28  1  0.49040600  0.47712700  0.73387000  1
  C  C29  1  0.47386800  0.39479500  0.77947600  1
  C  C30  1  0.46750900  0.39001400  0.86056700  1
  C  C31  1  0.54782100  0.25110100  0.46235000  1
  C  C32  1  0.54983300  0.16282800  0.46799600  1
  C  C33  1  0.48325700  0.09665900  0.52126300  1
  C  C34  1  0.41755600  0.12170300  0.56808000  1
  C  C35  1  0.41802600  0.21084100  0.56097100  1
  C  C36  1  0.46798700  0.83140800  0.53821900  1
  C  C37  1  0.45725500  0.74070800  0.53723100  1
  C  C38  1  0.53425600  0.89723000  0.48596700  1
  C  C39  1  0.57805300  0.77803700  0.43187900  1
  C  C40  1  0.59121500  0.87030100  0.43366400  1
  C  C41  1  0.47984600  0.63173700  0.88145300  1
  C  C42  1  0.53004100  0.79267100  0.87352500  1
  C  C43  1  0.37485100  0.67932800  0.59084600  1
  C  C44  1  0.29767900  0.64648200  0.71842700  1
  C  C45  1  0.62274300  0.75569300  0.36202300  1
  C  C46  1  0.75043200  0.70183500  0.30594300  1
  C  C47  1  0.66601500  0.94062900  0.37921400  1
  C  C48  1  0.70670400  0.07503200  0.28956400  1
  N  N1  1  0.51716100  0.52716600  0.01086600  1
  N  N2  1  0.47119600  0.45540800  0.98167600  1
  N  N3  1  0.48084100  0.27355800  0.50702500  1
  N  N4  1  0.47856000  0.00411000  0.52764500  1
  N  N5  1  0.54216800  0.99044400  0.48284100  1
  N  N6  1  0.51161700  0.71231700  0.48425300  1
  O  O1  1  0.50263500  0.57417200  0.37726700  1
  O  O2  1  0.48745000  0.42259600  0.38497700  1
  O  O3  1  0.65284800  0.60271000  0.49676900  1
  O  O4  1  0.64191700  0.45337300  0.49532700  1
  O  O5  1  0.49378500  0.55941100  0.60626700  1
  O  O6  1  0.48664400  0.40957400  0.61395200  1
  O  O7  1  0.34981400  0.53199900  0.49240400  1
  O  O8  1  0.33879800  0.38111400  0.49838200  1
  O  O9  1  0.41211700  0.62522900  0.93019600  1
  O  O10  1  0.54002500  0.71490500  0.84927200  1
  O  O11  1  0.28945700  0.64172400  0.56449900  1
  O  O12  1  0.38261000  0.68730100  0.66875800  1
  O  O13  1  0.59817400  0.78205000  0.29689200  1
  O  O14  1  0.69994400  0.71845300  0.36908700  1
  O  O15  1  0.75392700  0.93763900  0.36969200  1
  O  O16  1  0.63806100  0.00901600  0.34030900  1
