# generated using pymatgen
data_VH6C14NO7
_symmetry_space_group_name_H-M   'P 1'
_cell_length_a   19.58692000
_cell_length_b   6.75650100
_cell_length_c   17.01695500
_cell_angle_alpha   90.00000000
_cell_angle_beta   91.98131100
_cell_angle_gamma   90.00000000
_symmetry_Int_Tables_number   1
_chemical_formula_structural   VH6C14NO7
_chemical_formula_sum   'V4 H24 C56 N4 O28'
_cell_volume   2250.66122037
_cell_formula_units_Z   4
loop_
 _symmetry_equiv_pos_site_id
 _symmetry_equiv_pos_as_xyz
  1  'x, y, z'
loop_
 _atom_site_type_symbol
 _atom_site_label
 _atom_site_symmetry_multiplicity
 _atom_site_fract_x
 _atom_site_fract_y
 _atom_site_fract_z
 _atom_site_occupancy
  V  V1  1  0.51172400  0.18877900  0.49641900  1
  V  V2  1  0.48827600  0.68877900  0.50358200  1
  V  V3  1  0.99151000  0.61096600  0.00152400  1
  V  V4  1  0.00849000  0.11096600  0.99847700  1
  H  H1  1  0.18214100  0.11917800  0.13863700  1
  H  H2  1  0.81785800  0.61917800  0.86136300  1
  H  H3  1  0.12636500  0.53019300  0.19789900  1
  H  H4  1  0.87363500  0.03019300  0.80210100  1
  H  H5  1  0.27544100  0.27759700  0.20658800  1
  H  H6  1  0.72455900  0.77759700  0.79341300  1
  H  H7  1  0.21481400  0.52541500  0.30179600  1
  H  H8  1  0.78518600  0.02541400  0.69820400  1
  H  H9  1  0.36851300  0.27152800  0.30740200  1
  H  H10  1  0.63148700  0.77152800  0.69259800  1
  H  H11  1  0.44974400  0.24146500  0.73507200  1
  H  H12  1  0.55025600  0.74146500  0.26492800  1
  H  H13  1  0.26993600  0.24075700  0.90643300  1
  H  H14  1  0.73006400  0.74075700  0.09356700  1
  H  H15  1  0.37172700  0.30679200  0.84207100  1
  H  H16  1  0.62827300  0.80679200  0.15792900  1
  H  H17  1  0.31993500  0.78801700  0.64726700  1
  H  H18  1  0.68006500  0.28801700  0.35273300  1
  H  H19  1  0.23002000  0.67519800  0.64509500  1
  H  H20  1  0.76998000  0.17519800  0.35490600  1
  H  H21  1  0.12151000  0.51309600  0.65310200  1
  H  H22  1  0.87849000  0.01309600  0.34689900  1
  H  H23  1  0.16183500  0.06649900  0.91463100  1
  H  H24  1  0.83816400  0.56649900  0.08537000  1
  C  C1  1  0.56721000  0.47544500  0.37943600  1
  C  C2  1  0.43279000  0.97544500  0.62056400  1
  C  C3  1  0.59706300  0.46975600  0.59699800  1
  C  C4  1  0.40293700  0.96975600  0.40300200  1
  C  C5  1  0.14914800  0.82402400  0.16127700  1
  C  C6  1  0.85085200  0.32402400  0.83872300  1
  C  C7  1  0.34517300  0.97964700  0.34619100  1
  C  C8  1  0.65482700  0.47964700  0.65380900  1
  C  C9  1  0.28328700  0.14764100  0.24283300  1
  C  C10  1  0.71671300  0.64764100  0.75716800  1
  C  C11  1  0.33505700  0.14521600  0.29993900  1
  C  C12  1  0.66494300  0.64521600  0.70006100  1
  C  C13  1  0.30318200  0.81600600  0.33541000  1
  C  C14  1  0.69681800  0.31600600  0.66459000  1
  C  C15  1  0.25212900  0.81708700  0.27691600  1
  C  C16  1  0.74787100  0.31708700  0.72308500  1
  C  C17  1  0.24209800  0.98373600  0.23106000  1
  C  C18  1  0.75790200  0.48373700  0.76894000  1
  C  C19  1  0.19029900  0.98767000  0.17389700  1
  C  C20  1  0.80970000  0.48767000  0.82610300  1
  C  C21  1  0.15921600  0.65740100  0.20671600  1
  C  C22  1  0.84078400  0.15740100  0.79328400  1
  C  C23  1  0.20974000  0.65496400  0.26519800  1
  C  C24  1  0.79026000  0.15496400  0.73480300  1
  C  C25  1  0.35965200  0.19260900  0.79932100  1
  C  C26  1  0.64034700  0.69260900  0.20067900  1
  C  C27  1  0.38891800  0.00615900  0.68679700  1
  C  C28  1  0.61108200  0.50615900  0.31320300  1
  C  C29  1  0.09406800  0.66261200  0.75744700  1
  C  C30  1  0.90593200  0.16261200  0.24255400  1
  C  C31  1  0.13670900  0.62068700  0.69734500  1
  C  C32  1  0.86329100  0.12068700  0.30265500  1
  C  C33  1  0.19888500  0.71385100  0.69349600  1
  C  C34  1  0.80111500  0.21385100  0.30650400  1
  C  C35  1  0.21906200  0.85213600  0.74994700  1
  C  C36  1  0.78093800  0.35213600  0.25005400  1
  C  C37  1  0.17499700  0.89790300  0.80949500  1
  C  C38  1  0.82500300  0.39790300  0.19050500  1
  C  C39  1  0.28245800  0.94527900  0.74792400  1
  C  C40  1  0.71754200  0.44527900  0.25207600  1
  C  C41  1  0.29930900  0.08874100  0.80324100  1
  C  C42  1  0.70069100  0.58874100  0.19675900  1
  C  C43  1  0.25578000  0.13094000  0.86264200  1
  C  C44  1  0.74422000  0.63094000  0.13735800  1
  C  C45  1  0.19444100  0.03351800  0.86665400  1
  C  C46  1  0.80555800  0.53351800  0.13334600  1
  C  C47  1  0.32925100  0.89976700  0.69122300  1
  C  C48  1  0.67074900  0.39976700  0.30877700  1
  C  C49  1  0.40352500  0.15542900  0.73972600  1
  C  C50  1  0.59647500  0.65542900  0.26027400  1
  C  C51  1  0.11271600  0.80181300  0.81339600  1
  C  C52  1  0.88728400  0.30181200  0.18660500  1
  C  C53  1  0.90629700  0.33073800  0.89832400  1
  C  C54  1  0.09370300  0.83073800  0.10167600  1
  C  C55  1  0.93039000  0.32392400  0.11886800  1
  C  C56  1  0.06961000  0.82392400  0.88113200  1
  N  N1  1  0.02999500  0.56418100  0.76065600  1
  N  N2  1  0.97000500  0.06418100  0.23934500  1
  N  N3  1  0.31187400  0.64859700  0.38581400  1
  N  N4  1  0.68812600  0.14859700  0.61418700  1
  O  O1  1  0.56536700  0.64020900  0.57892200  1
  O  O2  1  0.43463300  0.14020900  0.42107800  1
  O  O3  1  0.56494300  0.29171600  0.40790900  1
  O  O4  1  0.43505700  0.79171600  0.59209100  1
  O  O5  1  0.58600600  0.29085300  0.56659500  1
  O  O6  1  0.41399400  0.79085300  0.43340600  1
  O  O7  1  0.45776500  0.14122500  0.59064400  1
  O  O8  1  0.54223500  0.64122500  0.40935600  1
  O  O9  1  0.46008700  0.45401300  0.50670200  1
  O  O10  1  0.53991300  0.95401300  0.49329800  1
  O  O11  1  0.95274800  0.15877000  0.09020800  1
  O  O12  1  0.04725200  0.65877000  0.90979200  1
  O  O13  1  0.92046300  0.50431100  0.92815800  1
  O  O14  1  0.07953600  0.00431100  0.07184200  1
  O  O15  1  0.93841100  0.50017900  0.08862100  1
  O  O16  1  0.06158900  0.00017900  0.91138000  1
  O  O17  1  0.06581000  0.66275700  0.07982100  1
  O  O18  1  0.93419000  0.16275700  0.92017900  1
  O  O19  1  0.04187200  0.33839300  0.99543200  1
  O  O20  1  0.95812700  0.83839300  0.00456800  1
  O  O21  1  0.98562800  0.61914300  0.81135900  1
  O  O22  1  0.01352400  0.43076400  0.70831900  1
  O  O23  1  0.01437200  0.11914300  0.18864200  1
  O  O24  1  0.98647600  0.93076400  0.29168200  1
  O  O25  1  0.30467800  0.47044900  0.35797700  1
  O  O26  1  0.32195300  0.67411500  0.46105300  1
  O  O27  1  0.69532200  0.97044900  0.64202300  1
  O  O28  1  0.67804700  0.17411500  0.53894700  1
