# generated using pymatgen
data_ZnH5C10NO5
_symmetry_space_group_name_H-M   'P 1'
_cell_length_a   9.76679100
_cell_length_b   10.98744400
_cell_length_c   14.09244500
_cell_angle_alpha   89.99489500
_cell_angle_beta   85.32400400
_cell_angle_gamma   90.00394900
_symmetry_Int_Tables_number   1
_chemical_formula_structural   ZnH5C10NO5
_chemical_formula_sum   'Zn2 H10 C20 N2 O10'
_cell_volume   1507.25595954
_cell_formula_units_Z   2
loop_
 _symmetry_equiv_pos_site_id
 _symmetry_equiv_pos_as_xyz
  1  'x, y, z'
loop_
 _atom_site_type_symbol
 _atom_site_label
 _atom_site_symmetry_multiplicity
 _atom_site_fract_x
 _atom_site_fract_y
 _atom_site_fract_z
 _atom_site_occupancy
  Zn  Zn1  1  0.34452300  0.50134000  0.49825000  1
  Zn  Zn2  1  0.65584300  0.49863800  0.49859900  1
  H  H1  1  0.88833300  0.36421300  0.39215600  1
  H  H2  1  0.11203300  0.63574600  0.60469700  1
  H  H3  1  0.13986500  0.36702400  0.39173800  1
  H  H4  1  0.86050200  0.63290100  0.60514000  1
  H  H5  1  0.34340300  0.49951900  0.01359700  1
  H  H6  1  0.65696400  0.50046100  0.98325200  1
  H  H7  1  0.71671700  0.11330000  0.49854100  1
  H  H8  1  0.28362600  0.88668200  0.49844700  1
  H  H9  1  0.76891500  0.88308900  0.56680900  1
  H  H10  1  0.21549000  0.11724500  0.56667400  1
  C  C1  1  0.50192500  0.73875100  0.49848000  1
  C  C2  1  0.49843200  0.26122900  0.49843500  1
  C  C3  1  0.47776600  0.49991500  0.68452000  1
  C  C4  1  0.52260100  0.50006400  0.31232800  1
  C  C5  1  0.93726200  0.42461600  0.43961700  1
  C  C6  1  0.06310600  0.57535100  0.55723100  1
  C  C7  1  0.07848600  0.42645300  0.43922100  1
  C  C8  1  0.92188200  0.57350300  0.55763400  1
  C  C9  1  0.53472700  0.50009900  0.21016100  1
  C  C10  1  0.46564000  0.49988100  0.78668700  1
  C  C11  1  0.55641200  0.50016000  0.02198800  1
  C  C12  1  0.44395500  0.49982000  0.97486000  1
  C  C13  1  0.45568000  0.49985300  0.87247900  1
  C  C14  1  0.54468700  0.50012700  0.12436900  1
  C  C15  1  0.62395600  0.93930600  0.49876500  1
  C  C16  1  0.37633300  0.06067700  0.49867600  1
  C  C17  1  0.62050400  0.06478300  0.49857800  1
  C  C18  1  0.37982600  0.93519900  0.49852100  1
  C  C19  1  0.49744100  0.12699000  0.49856500  1
  C  C20  1  0.50288200  0.87299200  0.49859900  1
  N  N1  1  0.13976400  0.50188500  0.49793400  1
  N  N2  1  0.86060300  0.49809000  0.49890700  1
  O  O1  1  0.38312600  0.68256600  0.49832100  1
  O  O2  1  0.61723500  0.31741300  0.49855900  1
  O  O3  1  0.61892000  0.68005300  0.49856400  1
  O  O4  1  0.38145300  0.31992600  0.49824600  1
  O  O5  1  0.36489200  0.50123300  0.64017100  1
  O  O6  1  0.63546900  0.49870900  0.35667800  1
  O  O7  1  0.60120600  0.49863600  0.64040000  1
  O  O8  1  0.39916600  0.50138200  0.35644900  1
  O  O9  1  0.74858000  0.88285800  0.49911100  1
  O  O10  1  0.25163600  0.11713000  0.49895200  1
