# generated using pymatgen
data_ZnH12C21(NO2)2
_symmetry_space_group_name_H-M   'P 1'
_cell_length_a   8.56455000
_cell_length_b   13.47525900
_cell_length_c   13.45588000
_cell_angle_alpha   90.00000000
_cell_angle_beta   90.00000000
_cell_angle_gamma   90.00000000
_symmetry_Int_Tables_number   1
_chemical_formula_structural   ZnH12C21(NO2)2
_chemical_formula_sum   'Zn2 H24 C42 N4 O8'
_cell_volume   1552.93677938
_cell_formula_units_Z   2
loop_
 _symmetry_equiv_pos_site_id
 _symmetry_equiv_pos_as_xyz
  1  'x, y, z'
loop_
 _atom_site_type_symbol
 _atom_site_label
 _atom_site_symmetry_multiplicity
 _atom_site_fract_x
 _atom_site_fract_y
 _atom_site_fract_z
 _atom_site_occupancy
  Zn  Zn1  1  0.50110800  0.88790600  0.52424100  1
  Zn  Zn2  1  0.50235300  0.11245900  0.51605900  1
  H  H1  1  0.75189200  0.00710500  0.18295900  1
  H  H2  1  0.25125300  0.00920100  0.18308100  1
  H  H3  1  0.75223100  0.99025600  0.85738700  1
  H  H4  1  0.25155700  0.99255800  0.85755100  1
  H  H5  1  0.00184300  0.96651600  0.45122400  1
  H  H6  1  0.00162300  0.03457500  0.58951900  1
  H  H7  1  0.50387500  0.25138000  0.35864400  1
  H  H8  1  0.50574600  0.75519800  0.37035100  1
  H  H9  1  0.49203200  0.58244300  0.76696100  1
  H  H10  1  0.49051000  0.40788500  0.76288100  1
  H  H11  1  0.50327300  0.42796700  0.35394500  1
  H  H12  1  0.50717500  0.57969400  0.35784200  1
  H  H13  1  0.58332000  0.74013600  0.74873000  1
  H  H14  1  0.44497500  0.76278200  0.89656100  1
  H  H15  1  0.19387300  0.75140100  0.98274400  1
  H  H16  1  0.95083800  0.73259000  0.88737100  1
  H  H17  1  0.95952200  0.72576000  0.70495400  1
  H  H18  1  0.20723100  0.73750600  0.61742000  1
  H  H19  1  0.40958900  0.24922900  0.73496900  1
  H  H20  1  0.53915800  0.22710400  0.88607900  1
  H  H21  1  0.78264400  0.24403000  0.97988300  1
  H  H22  1  0.03025600  0.27369900  0.89236600  1
  H  H23  1  0.03389900  0.28579900  0.71014900  1
  H  H24  1  0.79380900  0.26860500  0.61509500  1
  C  C1  1  0.86214900  0.99303800  0.32482200  1
  C  C2  1  0.14110600  0.99451500  0.32492100  1
  C  C3  1  0.86126300  0.00284000  0.22283100  1
  C  C4  1  0.14192500  0.00416300  0.22291000  1
  C  C5  1  0.00162400  0.00342100  0.17164800  1
  C  C6  1  0.00173200  0.98197500  0.37334400  1
  C  C7  1  0.00169200  0.00128900  0.06501700  1
  C  C8  1  0.00175000  0.99813200  0.97551400  1
  C  C9  1  0.86155800  0.99555700  0.81759700  1
  C  C10  1  0.14219100  0.99701100  0.81770000  1
  C  C11  1  0.86241800  0.00574800  0.71563800  1
  C  C12  1  0.14127700  0.00734200  0.71576200  1
  C  C13  1  0.00173700  0.01871600  0.66731300  1
  C  C14  1  0.00183500  0.99618900  0.86888100  1
  C  C15  1  0.72029000  0.99608300  0.38517200  1
  C  C16  1  0.28298600  0.99754300  0.38525900  1
  C  C17  1  0.72069200  0.00273200  0.65521000  1
  C  C18  1  0.28299300  0.00429200  0.65533000  1
  C  C19  1  0.50270700  0.29234800  0.60143200  1
  C  C20  1  0.49654000  0.70505100  0.61115900  1
  C  C21  1  0.50349800  0.29207800  0.42786900  1
  C  C22  1  0.50331800  0.71182700  0.43788400  1
  C  C23  1  0.50315700  0.39435800  0.42625600  1
  C  C24  1  0.50384100  0.61002600  0.43155200  1
  C  C25  1  0.50139300  0.44830300  0.51453100  1
  C  C26  1  0.50090900  0.55256300  0.51715300  1
  C  C27  1  0.49973800  0.39549500  0.60288900  1
  C  C28  1  0.49766900  0.60171800  0.60792700  1
  C  C29  1  0.49463200  0.54748100  0.69492800  1
  C  C30  1  0.49512300  0.44581100  0.69244400  1
  C  C31  1  0.34490600  0.74966900  0.75123000  1
  C  C32  1  0.33898600  0.75423400  0.85376800  1
  C  C33  1  0.19775100  0.74795500  0.90251900  1
  C  C34  1  0.06156100  0.73741100  0.84910800  1
  C  C35  1  0.06653800  0.73347400  0.74684300  1
  C  C36  1  0.20754500  0.73966800  0.69770800  1
  C  C37  1  0.64817100  0.24795100  0.74430000  1
  C  C38  1  0.64720400  0.24041200  0.84672900  1
  C  C39  1  0.78414400  0.24980700  0.89976000  1
  C  C40  1  0.92290000  0.26643700  0.85075000  1
  C  C41  1  0.92482600  0.27333200  0.74859900  1
  C  C42  1  0.78812800  0.26405100  0.69520400  1
  N  N1  1  0.50366100  0.24266800  0.51445100  1
  N  N2  1  0.49978600  0.75777400  0.52639000  1
  N  N3  1  0.49098600  0.75624500  0.70254700  1
  N  N4  1  0.50643700  0.23813000  0.69110200  1
  O  O1  1  0.66806600  0.08328700  0.41373500  1
  O  O2  1  0.33412500  0.91346800  0.42190900  1
  O  O3  1  0.33585200  0.08462300  0.41385300  1
  O  O4  1  0.66865500  0.91213700  0.42192800  1
  O  O5  1  0.66753900  0.91573600  0.62681000  1
  O  O6  1  0.33487400  0.08817100  0.61873100  1
  O  O7  1  0.33514300  0.91717000  0.62668600  1
  O  O8  1  0.66970900  0.08670200  0.61841300  1
