# generated using pymatgen
data_Zn2H5C29Cl11O8
_symmetry_space_group_name_H-M   'P 1'
_cell_length_a   12.17846700
_cell_length_b   12.04724100
_cell_length_c   23.72630400
_cell_angle_alpha   90.73574200
_cell_angle_beta   90.41211500
_cell_angle_gamma   90.80167400
_symmetry_Int_Tables_number   1
_chemical_formula_structural   Zn2H5C29Cl11O8
_chemical_formula_sum   'Zn4 H10 C58 Cl22 O16'
_cell_volume   3480.32808098
_cell_formula_units_Z   2
loop_
 _symmetry_equiv_pos_site_id
 _symmetry_equiv_pos_as_xyz
  1  'x, y, z'
loop_
 _atom_site_type_symbol
 _atom_site_label
 _atom_site_symmetry_multiplicity
 _atom_site_fract_x
 _atom_site_fract_y
 _atom_site_fract_z
 _atom_site_occupancy
  Zn  Zn1  1  0.49824400  0.12511300  0.50219300  1
  Zn  Zn2  1  0.50175600  0.87488700  0.49780700  1
  Zn  Zn3  1  0.12378900  0.50189700  0.00008600  1
  Zn  Zn4  1  0.87621100  0.49810300  0.99991400  1
  H  H1  1  0.77793400  0.84659800  0.39016800  1
  H  H2  1  0.22206600  0.15340200  0.60983200  1
  H  H3  1  0.83073100  0.71510900  0.14010700  1
  H  H4  1  0.16926900  0.28489100  0.85989300  1
  H  H5  1  0.04919100  0.14707700  0.33251200  1
  H  H6  1  0.95080900  0.85292300  0.66748800  1
  H  H7  1  0.14829700  0.95844400  0.17406600  1
  H  H8  1  0.85170300  0.04155600  0.82593400  1
  H  H9  1  0.84476800  0.06627300  0.17845700  1
  H  H10  1  0.15523200  0.93372700  0.82154300  1
  C  C1  1  0.65494500  0.00248700  0.57767800  1
  C  C2  1  0.34505500  0.99751300  0.42232200  1
  C  C3  1  0.64673700  0.01060400  0.41948100  1
  C  C4  1  0.35326300  0.98939500  0.58052000  1
  C  C5  1  0.10386000  0.07777800  0.33297700  1
  C  C6  1  0.89614000  0.92222100  0.66702300  1
  C  C7  1  0.18192300  0.07916700  0.37522400  1
  C  C8  1  0.81807700  0.92083200  0.62477600  1
  C  C9  1  0.87461600  0.91762000  0.32620400  1
  C  C10  1  0.12538400  0.08238000  0.67379600  1
  C  C11  1  0.79209700  0.92022200  0.36558500  1
  C  C12  1  0.20790300  0.07977700  0.63441500  1
  C  C13  1  0.09759600  0.17505000  0.20238700  1
  C  C14  1  0.90240400  0.82494900  0.79761300  1
  C  C15  1  0.09311000  0.25814300  0.16272900  1
  C  C16  1  0.90689000  0.74185700  0.83727100  1
  C  C17  1  0.89585700  0.84545900  0.19089300  1
  C  C18  1  0.10414300  0.15454100  0.80910700  1
  C  C19  1  0.90271000  0.76616000  0.14864400  1
  C  C20  1  0.09728900  0.23384000  0.85135600  1
  C  C21  1  0.07713200  0.90502200  0.16830300  1
  C  C22  1  0.92286800  0.09497800  0.83169700  1
  C  C23  1  0.08254000  0.82664200  0.12566200  1
  C  C24  1  0.91746000  0.17335800  0.87433800  1
  C  C25  1  0.91711100  0.11803300  0.17493900  1
  C  C26  1  0.08288900  0.88196700  0.82506200  1
  C  C27  1  0.91519900  0.19660500  0.13335600  1
  C  C28  1  0.08480100  0.80339500  0.86664400  1
  C  C29  1  0.17270300  0.90733800  0.29674800  1
  C  C30  1  0.82729700  0.09266200  0.70325200  1
  C  C31  1  0.25441500  0.91262400  0.33733500  1
  C  C32  1  0.74558500  0.08737600  0.66266500  1
  C  C33  1  0.83816400  0.10720700  0.30446800  1
  C  C34  1  0.16183600  0.89279300  0.69553300  1
  C  C35  1  0.75436900  0.10630000  0.34340500  1
  C  C36  1  0.24563100  0.89370000  0.65659500  1
  C  C37  1  0.99751500  0.00383500  0.25069400  1
  C  C38  1  0.00248500  0.99616400  0.74930600  1
  C  C39  1  0.09627300  0.99445300  0.29177100  1
  C  C40  1  0.90372600  0.00554600  0.70822900  1
  C  C41  1  0.25977700  0.99688900  0.37765300  1
  C  C42  1  0.74022300  0.00311000  0.62234700  1
  C  C43  1  0.89829100  0.00962300  0.29181800  1
  C  C44  1  0.10170900  0.99037700  0.70818200  1
  C  C45  1  0.73078700  0.01317400  0.37487500  1
  C  C46  1  0.26921300  0.98682600  0.62512500  1
  C  C47  1  0.00567400  0.10498300  0.21157100  1
  C  C48  1  0.99432600  0.89501700  0.78842900  1
  C  C49  1  0.00318300  0.26964100  0.12681100  1
  C  C50  1  0.99681700  0.73035800  0.87318900  1
  C  C51  1  0.98938400  0.91047800  0.20570600  1
  C  C52  1  0.01061600  0.08952100  0.79429500  1
  C  C53  1  0.99611800  0.75277700  0.11701400  1
  C  C54  1  0.00388200  0.24722200  0.88298600  1
  C  C55  1  0.99740900  0.66400100  0.07385200  1
  C  C56  1  0.00259100  0.33599900  0.92614800  1
  C  C57  1  0.00305000  0.35378100  0.08152100  1
  C  C58  1  0.99695000  0.64621900  0.91847900  1
  Cl  Cl1  1  0.17360200  0.18578200  0.42612900  1
  Cl  Cl2  1  0.82639800  0.81421800  0.57387100  1
  Cl  Cl3  1  0.94119900  0.78964000  0.32206600  1
  Cl  Cl4  1  0.05880100  0.21036000  0.67793500  1
  Cl  Cl5  1  0.22919000  0.16286700  0.23261500  1
  Cl  Cl6  1  0.77081000  0.83713300  0.76738500  1
  Cl  Cl7  1  0.76125400  0.86262900  0.21592800  1
  Cl  Cl8  1  0.23874600  0.13737000  0.78407200  1
  Cl  Cl9  1  0.17484000  0.78014900  0.25933600  1
  Cl  Cl10  1  0.82516000  0.21985000  0.74066400  1
  Cl  Cl11  1  0.86651400  0.24341200  0.28172000  1
  Cl  Cl12  1  0.13348600  0.75658800  0.71828000  1
  Cl  Cl13  1  0.20858600  0.34706500  0.16075300  1
  Cl  Cl14  1  0.79141400  0.65293400  0.83924700  1
  Cl  Cl15  1  0.19977900  0.82854600  0.08303200  1
  Cl  Cl16  1  0.80022100  0.17145300  0.91696800  1
  Cl  Cl17  1  0.79982800  0.19305600  0.08843700  1
  Cl  Cl18  1  0.20017200  0.80694400  0.91156300  1
  Cl  Cl19  1  0.35170600  0.80645200  0.33396900  1
  Cl  Cl20  1  0.64829400  0.19354700  0.66603100  1
  Cl  Cl21  1  0.68266600  0.23107600  0.35100000  1
  Cl  Cl22  1  0.31733400  0.76892300  0.64900000  1
  O  O1  1  0.61894900  0.09762900  0.55928700  1
  O  O2  1  0.38105100  0.90237100  0.44071300  1
  O  O3  1  0.61111600  0.91356000  0.43685600  1
  O  O4  1  0.38888300  0.08644000  0.56314400  1
  O  O5  1  0.61266000  0.10399900  0.44162200  1
  O  O6  1  0.38734000  0.89600100  0.55837800  1
  O  O7  1  0.61658100  0.90696800  0.55828900  1
  O  O8  1  0.38341900  0.09303100  0.44171200  1
  O  O9  1  0.09135000  0.62355200  0.05711000  1
  O  O10  1  0.90865000  0.37644800  0.94289000  1
  O  O11  1  0.90883700  0.39056200  0.06265600  1
  O  O12  1  0.09116300  0.60943700  0.93734400  1
  O  O13  1  0.09703500  0.38777700  0.06063700  1
  O  O14  1  0.90296500  0.61222200  0.93936300  1
  O  O15  1  0.90277300  0.62488900  0.05540300  1
  O  O16  1  0.09722700  0.37511100  0.94459700  1
