# generated using pymatgen
data_ZnH4C13BrNO4
_symmetry_space_group_name_H-M   'P 1'
_cell_length_a   8.52891600
_cell_length_b   12.34444800
_cell_length_c   12.87874300
_cell_angle_alpha   94.59724400
_cell_angle_beta   93.57314900
_cell_angle_gamma   92.99386200
_symmetry_Int_Tables_number   1
_chemical_formula_structural   ZnH4C13BrNO4
_chemical_formula_sum   'Zn2 H8 C26 Br2 N2 O8'
_cell_volume   1346.71213360
_cell_formula_units_Z   2
loop_
 _symmetry_equiv_pos_site_id
 _symmetry_equiv_pos_as_xyz
  1  'x, y, z'
loop_
 _atom_site_type_symbol
 _atom_site_label
 _atom_site_symmetry_multiplicity
 _atom_site_fract_x
 _atom_site_fract_y
 _atom_site_fract_z
 _atom_site_occupancy
  Zn  Zn1  1  0.49668500  0.88146900  0.51500500  1
  Zn  Zn2  1  0.50331500  0.11853200  0.48499500  1
  H  H1  1  0.00500400  0.92816600  0.42697700  1
  H  H2  1  0.99499700  0.07183400  0.57302400  1
  H  H3  1  0.72094400  0.02329900  0.17856500  1
  H  H4  1  0.27905600  0.97670100  0.82143500  1
  H  H5  1  0.68160500  0.01540100  0.02198200  1
  H  H6  1  0.31839600  0.98460000  0.97801900  1
  H  H7  1  0.47404000  0.49807900  0.61628800  1
  H  H8  1  0.52596100  0.50192200  0.38371200  1
  C  C1  1  0.12291400  0.95107700  0.28895400  1
  C  C2  1  0.87708600  0.04892400  0.71104600  1
  C  C3  1  0.99167200  0.94076700  0.34490600  1
  C  C4  1  0.00832800  0.05923300  0.65509400  1
  C  C5  1  0.84781100  0.96473200  0.30198400  1
  C  C6  1  0.15219000  0.03526900  0.69801600  1
  C  C7  1  0.83235500  0.99401200  0.20188100  1
  C  C8  1  0.16764600  0.00598900  0.79811900  1
  C  C9  1  0.95643600  0.98702800  0.13764700  1
  C  C10  1  0.04356500  0.01297300  0.86235400  1
  C  C11  1  0.10420300  0.96855800  0.18306100  1
  C  C12  1  0.89579800  0.03144300  0.81693900  1
  C  C13  1  0.93573500  0.00109300  0.03042900  1
  C  C14  1  0.06426600  0.99890800  0.96957200  1
  C  C15  1  0.21166500  0.98416700  0.01777800  1
  C  C16  1  0.78833500  0.01583400  0.98222300  1
  C  C17  1  0.23061400  0.96707500  0.12179000  1
  C  C18  1  0.76938600  0.03292500  0.87821000  1
  C  C19  1  0.28358200  0.02407700  0.63238700  1
  C  C20  1  0.71641800  0.97592300  0.36761400  1
  C  C21  1  0.27460400  0.96490400  0.35126500  1
  C  C22  1  0.72539700  0.03509600  0.64873500  1
  C  C23  1  0.50957400  0.46752500  0.45738900  1
  C  C24  1  0.49042600  0.53247500  0.54261200  1
  C  C25  1  0.49153300  0.64838200  0.53690700  1
  C  C26  1  0.50846800  0.35161800  0.46309300  1
  Br  Br1  1  0.56728200  0.07033900  0.82596100  1
  Br  Br2  1  0.43271800  0.92966200  0.17403900  1
  N  N1  1  0.50729400  0.25850400  0.46870900  1
  N  N2  1  0.49270600  0.74149600  0.53129200  1
  O  O1  1  0.33533800  0.10931600  0.58758000  1
  O  O2  1  0.66466300  0.89068500  0.41242100  1
  O  O3  1  0.33689200  0.92702300  0.61614200  1
  O  O4  1  0.66310800  0.07297700  0.38385800  1
  O  O5  1  0.32371400  0.88254400  0.40088900  1
  O  O6  1  0.67628600  0.11745700  0.59911200  1
  O  O7  1  0.33526600  0.06487400  0.37293400  1
  O  O8  1  0.66473400  0.93512600  0.62706600  1
