# generated using pymatgen
data_Zn2H17C32N3O8
_symmetry_space_group_name_H-M   'P 1'
_cell_length_a   8.52527000
_cell_length_b   10.85336800
_cell_length_c   11.41328100
_cell_angle_alpha   95.48911100
_cell_angle_beta   90.10009300
_cell_angle_gamma   90.00172300
_symmetry_Int_Tables_number   1
_chemical_formula_structural   Zn2H17C32N3O8
_chemical_formula_sum   'Zn2 H17 C32 N3 O8'
_cell_volume   1051.20260116
_cell_formula_units_Z   1
loop_
 _symmetry_equiv_pos_site_id
 _symmetry_equiv_pos_as_xyz
  1  'x, y, z'
loop_
 _atom_site_type_symbol
 _atom_site_label
 _atom_site_symmetry_multiplicity
 _atom_site_fract_x
 _atom_site_fract_y
 _atom_site_fract_z
 _atom_site_occupancy
  Zn  Zn1  1  0.49997800  0.49489400  0.87660700  1
  Zn  Zn2  1  0.49985500  0.50905200  0.13921900  1
  H  H1  1  0.61121400  0.89646400  0.01932800  1
  H  H2  1  0.99635000  0.59151900  0.04373300  1
  H  H3  1  0.99593200  0.41027500  0.96385100  1
  H  H4  1  0.25704300  0.90888100  0.99684500  1
  H  H5  1  0.25656700  0.09739300  0.02842700  1
  H  H6  1  0.50196900  0.33073600  0.31523800  1
  H  H7  1  0.49831000  0.71529400  0.29367500  1
  H  H8  1  0.50282100  0.25121700  0.50663500  1
  H  H9  1  0.49789300  0.75503200  0.50451800  1
  H  H10  1  0.50223100  0.28880900  0.72071600  1
  H  H11  1  0.21035400  0.61340300  0.67995500  1
  H  H12  1  0.14940200  0.75658100  0.62550600  1
  H  H13  1  0.12369600  0.73342500  0.77835700  1
  H  H14  1  0.25425000  0.94945400  0.77942900  1
  H  H15  1  0.50623600  0.05520200  0.81768100  1
  H  H16  1  0.75318200  0.94070300  0.78162100  1
  H  H17  1  0.74738900  0.71974500  0.71240900  1
  C  C1  1  0.99820800  0.68763500  0.03029100  1
  C  C2  1  0.13873700  0.74530600  0.01833500  1
  C  C3  1  0.14294000  0.87005200  0.00824200  1
  C  C4  1  0.85952300  0.74910000  0.02035400  1
  C  C5  1  0.86136200  0.87667300  0.01579400  1
  C  C6  1  0.00416100  0.93850700  0.01300000  1
  C  C7  1  0.00402600  0.06681600  0.01053000  1
  C  C8  1  0.14268900  0.13531000  0.01369800  1
  C  C9  1  0.13856200  0.25872000  0.99716500  1
  C  C10  1  0.72288800  0.94306000  0.01607300  1
  C  C11  1  0.86140300  0.12893600  0.00749800  1
  C  C12  1  0.85961000  0.25524500  0.99729000  1
  C  C13  1  0.99796300  0.31545700  0.98207800  1
  C  C14  1  0.28037900  0.33403900  0.00166800  1
  C  C15  1  0.28077100  0.67020900  0.01337800  1
  C  C16  1  0.71751100  0.67253800  0.01467600  1
  C  C17  1  0.71695800  0.33098800  0.00226700  1
  C  C18  1  0.50193900  0.34519000  0.54770900  1
  C  C19  1  0.50175200  0.36688200  0.66870800  1
  C  C20  1  0.49935000  0.58098100  0.65706600  1
  C  C21  1  0.49956600  0.56180600  0.53512400  1
  C  C22  1  0.50088600  0.44334800  0.48011300  1
  C  C23  1  0.50101900  0.42382700  0.35841800  1
  C  C24  1  0.49892100  0.63757700  0.34612400  1
  C  C25  1  0.49867700  0.65994900  0.46670500  1
  C  C26  1  0.49747500  0.70762900  0.71352000  1
  C  C27  1  0.35813800  0.77340500  0.72890500  1
  C  C28  1  0.20211000  0.71483400  0.70133700  1
  C  C29  1  0.36242500  0.89784400  0.76750600  1
  C  C30  1  0.50381900  0.95746300  0.78858600  1
  C  C31  1  0.64205800  0.89321000  0.76932500  1
  C  C32  1  0.63867000  0.76895500  0.73111000  1
  N  N1  1  0.72531100  0.06657400  0.01138900  1
  N  N2  1  0.49980500  0.52108600  0.29345700  1
  N  N3  1  0.50064800  0.48332900  0.72222200  1
  O  O1  1  0.33031000  0.38112200  0.10543700  1
  O  O2  1  0.33545300  0.36687500  0.90196800  1
  O  O3  1  0.33066700  0.62302600  0.90979200  1
  O  O4  1  0.33581300  0.63716100  0.11291900  1
  O  O5  1  0.66936600  0.62302800  0.91113300  1
  O  O6  1  0.66344500  0.63773400  0.11361000  1
  O  O7  1  0.66883300  0.38047300  0.10579200  1
  O  O8  1  0.66312200  0.36595600  0.90296900  1
