# generated using pymatgen
data_FeH14C22NO9
_symmetry_space_group_name_H-M   'P 1'
_cell_length_a   15.27603900
_cell_length_b   9.32610800
_cell_length_c   18.25483700
_cell_angle_alpha   93.29847900
_cell_angle_beta   104.64870800
_cell_angle_gamma   107.24127600
_symmetry_Int_Tables_number   1
_chemical_formula_structural   FeH14C22NO9
_chemical_formula_sum   'Fe2 H28 C44 N2 O18'
_cell_volume   2378.26101922
_cell_formula_units_Z   2
loop_
 _symmetry_equiv_pos_site_id
 _symmetry_equiv_pos_as_xyz
  1  'x, y, z'
loop_
 _atom_site_type_symbol
 _atom_site_label
 _atom_site_symmetry_multiplicity
 _atom_site_fract_x
 _atom_site_fract_y
 _atom_site_fract_z
 _atom_site_occupancy
  Fe  Fe1  1  0.48707000  0.98068300  0.84922800  1
  Fe  Fe2  1  0.49215300  0.98649000  0.15923900  1
  H  H1  1  0.74689900  0.78643200  0.15531000  1
  H  H2  1  0.88189800  0.77193200  0.11185500  1
  H  H3  1  0.83562700  0.09075800  0.96012300  1
  H  H4  1  0.98981400  0.84609300  0.04198100  1
  H  H5  1  0.01918800  0.84816700  0.82771000  1
  H  H6  1  0.17296500  0.85905900  0.80948500  1
  H  H7  1  0.51923500  0.71597300  0.64268000  1
  H  H8  1  0.50289300  0.25233800  0.60777400  1
  H  H9  1  0.53795900  0.75151800  0.41160500  1
  H  H10  1  0.52999400  0.29196000  0.37564800  1
  H  H11  1  0.50236300  0.44709600  0.82384300  1
  H  H12  1  0.52973000  0.55792400  0.19266600  1
  H  H13  1  0.04629000  0.18982300  0.88790400  1
  H  H14  1  0.93611700  0.23132400  0.86885600  1
  H  H15  1  0.99870400  0.04594200  0.75998600  1
  H  H16  1  0.97634800  0.22198400  0.75177900  1
  H  H17  1  0.88328400  0.83286500  0.73952700  1
  H  H18  1  0.76229600  0.82546500  0.72152100  1
  H  H19  1  0.84004700  0.78121200  0.85582000  1
  H  H20  1  0.77560600  0.91548600  0.84674100  1
  H  H21  1  0.21505700  0.91110500  0.13698600  1
  H  H22  1  0.10213700  0.90295800  0.14820800  1
  H  H23  1  0.29278100  0.13049200  0.23415700  1
  H  H24  1  0.19644300  0.01947000  0.26480000  1
  H  H25  1  0.28975700  0.33179700  0.18457800  1
  H  H26  1  0.19250000  0.40353600  0.17507500  1
  H  H27  1  0.21278800  0.27632300  0.05205500  1
  H  H28  1  0.09629700  0.24074000  0.06580700  1
  C  C1  1  0.76433400  0.84946600  0.11020000  1
  C  C2  1  0.84105500  0.84186700  0.08575800  1
  C  C3  1  0.86669500  0.92388200  0.02968300  1
  C  C4  1  0.81430000  0.01636600  0.99959400  1
  C  C5  1  0.73010800  0.00960400  0.01719900  1
  C  C6  1  0.70821200  0.93247300  0.07630000  1
  C  C7  1  0.95114500  0.90996600  0.00783800  1
  C  C8  1  0.98272400  0.96115800  0.94902500  1
  C  C9  1  0.08241300  0.89442800  0.87510200  1
  C  C10  1  0.16907300  0.89697000  0.86530000  1
  C  C11  1  0.25088000  0.95618100  0.92503600  1
  C  C12  1  0.24511700  0.00232700  0.99681100  1
  C  C13  1  0.15722900  0.00047300  0.00712900  1
  C  C14  1  0.07601900  0.95156100  0.94421600  1
  C  C15  1  0.49097500  0.18934100  0.74676900  1
  C  C16  1  0.34410500  0.98411200  0.91010500  1
  C  C17  1  0.65785000  0.05313900  0.96141100  1
  C  C18  1  0.50545900  0.72258100  0.78864600  1
  C  C19  1  0.53050900  0.28312200  0.22646500  1
  C  C20  1  0.33123000  0.03679800  0.06118900  1
  C  C21  1  0.62438600  0.92720200  0.10208500  1
  C  C22  1  0.53115100  0.80745700  0.26880800  1
  C  C23  1  0.50997700  0.59654000  0.73893800  1
  C  C24  1  0.51494200  0.60984800  0.66481900  1
  C  C25  1  0.51421100  0.48632100  0.61850500  1
  C  C26  1  0.50546800  0.34890400  0.64495900  1
  C  C27  1  0.50284200  0.33594700  0.71911500  1
  C  C28  1  0.50676800  0.46012300  0.76633800  1
  C  C29  1  0.52180700  0.49855700  0.54218900  1
  C  C30  1  0.52806500  0.50716600  0.47798300  1
  C  C31  1  0.53755100  0.65645500  0.37457900  1
  C  C32  1  0.53466100  0.66817500  0.29944200  1
  C  C33  1  0.53225900  0.54633500  0.25161400  1
  C  C34  1  0.53321700  0.41147000  0.27869200  1
  C  C35  1  0.53238300  0.39790100  0.35378700  1
  C  C36  1  0.53409200  0.52055200  0.40135300  1
  C  C37  1  0.96875500  0.14343200  0.85835000  1
  C  C38  1  0.95367800  0.11181500  0.77307800  1
  C  C39  1  0.83626100  0.89190800  0.75534100  1
  C  C40  1  0.84070100  0.89414800  0.83948000  1
  C  C41  1  0.17005200  0.98172700  0.14370200  1
  C  C42  1  0.21384500  0.08684400  0.21924700  1
  C  C43  1  0.21079500  0.29767900  0.16940100  1
  C  C44  1  0.16614100  0.22189200  0.08714900  1
  N  N1  1  0.92441000  0.00970700  0.88852600  1
  N  N2  1  0.15041400  0.06054100  0.07806500  1
  O  O1  1  0.53051200  0.18449500  0.81899600  1
  O  O2  1  0.41382800  0.10990700  0.94275700  1
  O  O3  1  0.43531400  0.06467500  0.70079100  1
  O  O4  1  0.35667300  0.89203000  0.85954000  1
  O  O5  1  0.56688700  0.99093800  0.95642700  1
  O  O6  1  0.68065700  0.11261100  0.90270300  1
  O  O7  1  0.49819700  0.84909000  0.76335700  1
  O  O8  1  0.50402900  0.70607800  0.85927400  1
  O  O9  1  0.51014200  0.14598200  0.24544700  1
  O  O10  1  0.54147500  0.30328700  0.15835900  1
  O  O11  1  0.38629600  0.95183800  0.06231300  1
  O  O12  1  0.34927600  0.14108600  0.11893900  1
  O  O13  1  0.60281100  0.93362100  0.29551900  1
  O  O14  1  0.60563500  0.05124600  0.12050500  1
  O  O15  1  0.46204100  0.80047600  0.20773800  1
  O  O16  1  0.57255400  0.79668500  0.11483400  1
  O  O17  1  0.85702600  0.03858800  0.73617500  1
  O  O18  1  0.17434500  0.20379300  0.21868800  1
