# generated using pymatgen
data_ZnH15C17NO4
_symmetry_space_group_name_H-M   'P 1'
_cell_length_a   12.32781700
_cell_length_b   14.24157500
_cell_length_c   6.99678400
_cell_angle_alpha   90.00000000
_cell_angle_beta   80.78279100
_cell_angle_gamma   90.00000000
_symmetry_Int_Tables_number   1
_chemical_formula_structural   ZnH15C17NO4
_chemical_formula_sum   'Zn2 H30 C34 N2 O8'
_cell_volume   1212.54712758
_cell_formula_units_Z   2
loop_
 _symmetry_equiv_pos_site_id
 _symmetry_equiv_pos_as_xyz
  1  'x, y, z'
loop_
 _atom_site_type_symbol
 _atom_site_label
 _atom_site_symmetry_multiplicity
 _atom_site_fract_x
 _atom_site_fract_y
 _atom_site_fract_z
 _atom_site_occupancy
  Zn  Zn1  1  0.50798700  0.11338600  0.50778000  1
  Zn  Zn2  1  0.49702700  0.90410900  0.49160100  1
  H  H1  1  0.16774200  0.98739400  0.42320900  1
  H  H2  1  0.92747900  0.93154500  0.34443000  1
  H  H3  1  0.93043200  0.03943600  0.49429400  1
  H  H4  1  0.77602400  0.05000500  0.37188900  1
  H  H5  1  0.87694900  0.13688400  0.27032300  1
  H  H6  1  0.03222900  0.94228800  0.52525700  1
  H  H7  1  0.05494700  0.07131100  0.58390000  1
  H  H8  1  0.83556700  0.94158100  0.58191300  1
  H  H9  1  0.63129600  0.59638400  0.24610900  1
  H  H10  1  0.66255200  0.44353700  0.32100400  1
  H  H11  1  0.48977900  0.44799400  0.80665600  1
  H  H12  1  0.53215400  0.60327100  0.78173300  1
  H  H13  1  0.36069300  0.43337600  0.36970900  1
  H  H14  1  0.33051400  0.58871600  0.43664100  1
  H  H15  1  0.33459300  0.41782200  0.63018800  1
  H  H16  1  0.34840100  0.57461700  0.68726600  1
  H  H17  1  0.55083200  0.41701500  0.19060200  1
  H  H18  1  0.49694600  0.56969200  0.18695500  1
  H  H19  1  0.23888300  0.86233100  0.77420900  1
  H  H20  1  0.13068600  0.84181000  0.63457400  1
  H  H21  1  0.25930900  0.89174500  0.51818800  1
  H  H22  1  0.31058300  0.02824000  0.55331400  1
  H  H23  1  0.20305100  0.10695100  0.49699200  1
  H  H24  1  0.23883100  0.11393300  0.72633500  1
  H  H25  1  0.68886000  0.44698600  0.82254900  1
  H  H26  1  0.64808200  0.34027900  0.71305300  1
  H  H27  1  0.72000400  0.43129700  0.56293500  1
  H  H28  1  0.69268000  0.66741700  0.56167700  1
  H  H29  1  0.73122400  0.56721300  0.69501200  1
  H  H30  1  0.71523300  0.55451800  0.44359800  1
  C  C1  1  0.25545700  0.02179400  0.16692500  1
  C  C2  1  0.15644000  0.01314500  0.28699500  1
  C  C3  1  0.05442600  0.02310900  0.22562000  1
  C  C4  1  0.94461800  0.00785000  0.35129000  1
  C  C5  1  0.85598000  0.06110400  0.27668900  1
  C  C6  1  0.25314800  0.01160200  0.96817000  1
  C  C7  1  0.15106300  0.00452700  0.90945200  1
  C  C8  1  0.05345400  0.02049900  0.03139000  1
  C  C9  1  0.94763200  0.01453200  0.96192800  1
  C  C10  1  0.85039300  0.02692700  0.08417600  1
  C  C11  1  0.74894500  0.01128600  0.03101300  1
  C  C12  1  0.15376300  0.98681700  0.70375300  1
  C  C13  1  0.04493500  0.99704500  0.63394500  1
  C  C14  1  0.94425300  0.98872400  0.77806300  1
  C  C15  1  0.84351600  0.97019300  0.72050100  1
  C  C16  1  0.74569800  0.98949300  0.83662900  1
  C  C17  1  0.35291400  0.01792500  0.26982500  1
  C  C18  1  0.34995600  0.00847900  0.80998000  1
  C  C19  1  0.65083800  0.99806600  0.73070500  1
  C  C20  1  0.65500000  0.01033500  0.19200500  1
  C  C21  1  0.57420200  0.45531600  0.31588900  1
  C  C22  1  0.55268600  0.55923000  0.29479500  1
  C  C23  1  0.54974100  0.46165500  0.67366200  1
  C  C24  1  0.56337400  0.56660300  0.64406300  1
  C  C25  1  0.50605500  0.42030800  0.50175800  1
  C  C26  1  0.49829200  0.59729000  0.48862400  1
  C  C27  1  0.38308200  0.55779100  0.53495300  1
  C  C28  1  0.38837300  0.45224700  0.50794500  1
  C  C29  1  0.49427100  0.69990100  0.48226400  1
  C  C30  1  0.51013400  0.31771600  0.50886800  1
  C  C31  1  0.19922400  0.88947900  0.65395600  1
  C  C32  1  0.23173800  0.06259200  0.61011100  1
  C  C33  1  0.65895500  0.41719600  0.69409800  1
  C  C34  1  0.68360200  0.59041900  0.58185500  1
  N  N1  1  0.49231200  0.78111400  0.47982800  1
  N  N2  1  0.51220200  0.23652400  0.51287700  1
  O  O1  1  0.38229200  0.93517600  0.32618500  1
  O  O2  1  0.39142900  0.09595100  0.33788400  1
  O  O3  1  0.39062700  0.08867600  0.73807500  1
  O  O4  1  0.37911700  0.92793900  0.72241500  1
  O  O5  1  0.62300100  0.08187800  0.67367100  1
  O  O6  1  0.61349300  0.92122700  0.66107400  1
  O  O7  1  0.61571200  0.92899400  0.26331600  1
  O  O8  1  0.62639600  0.09020700  0.27908800  1
