# generated using pymatgen
data_Cu3H29C53O28
_symmetry_space_group_name_H-M   'P 1'
_cell_length_a   27.67628300
_cell_length_b   27.68377000
_cell_length_c   27.78756200
_cell_angle_alpha   109.30574900
_cell_angle_beta   109.71189500
_cell_angle_gamma   109.20689400
_symmetry_Int_Tables_number   1
_chemical_formula_structural   Cu3H29C53O28
_chemical_formula_sum   'Cu6 H58 C106 O56'
_cell_volume   16427.21593910
_cell_formula_units_Z   2
loop_
 _symmetry_equiv_pos_site_id
 _symmetry_equiv_pos_as_xyz
  1  'x, y, z'
loop_
 _atom_site_type_symbol
 _atom_site_label
 _atom_site_symmetry_multiplicity
 _atom_site_fract_x
 _atom_site_fract_y
 _atom_site_fract_z
 _atom_site_occupancy
  Cu  Cu1  1  0.00195800  0.04054900  0.53856600  1
  Cu  Cu2  1  0.00383700  0.95733000  0.45752900  1
  Cu  Cu3  1  0.46479700  0.96429900  0.00332200  1
  Cu  Cu4  1  0.54882400  0.04745100  0.00428100  1
  Cu  Cu5  1  0.46051900  0.50423600  0.46014500  1
  Cu  Cu6  1  0.54274200  0.50179400  0.54240100  1
  H  H1  1  0.71864800  0.89504300  0.22429000  1
  H  H2  1  0.66127700  0.96092000  0.25106700  1
  H  H3  1  0.78760700  0.10181700  0.27298100  1
  H  H4  1  0.66579700  0.75676600  0.49465100  1
  H  H5  1  0.26424300  0.03307800  0.84860200  1
  H  H6  1  0.18531800  0.03022800  0.77088900  1
  H  H7  1  0.32190400  0.34520600  0.58871800  1
  H  H8  1  0.24713000  0.26628400  0.58822400  1
  H  H9  1  0.48053100  0.23762800  0.32392400  1
  H  H10  1  0.41174800  0.67207300  0.66701100  1
  H  H11  1  0.72471700  0.93813600  0.51414300  1
  H  H12  1  0.77957900  0.94591300  0.49127500  1
  H  H13  1  0.80232200  0.98887900  0.56796900  1
  H  H14  1  0.24974800  0.98307600  0.54703600  1
  H  H15  1  0.28908500  0.94559700  0.56683500  1
  H  H16  1  0.32962900  0.02027900  0.58226100  1
  H  H17  1  0.41151800  0.94958000  0.71952000  1
  H  H18  1  0.46869200  0.00165500  0.79562300  1
  H  H19  1  0.46440700  0.02235000  0.73951100  1
  H  H20  1  0.06187900  0.05546900  0.29613000  1
  H  H21  1  0.11967000  0.06962200  0.27722300  1
  H  H22  1  0.06681900  0.09378400  0.25473400  1
  H  H23  1  0.25433100  0.21008000  0.30046600  1
  H  H24  1  0.22314400  0.13191100  0.27523600  1
  H  H25  1  0.30257500  0.17917800  0.31397400  1
  H  H26  1  0.51087600  0.26323900  0.06067700  1
  H  H27  1  0.54653500  0.34025900  0.11499700  1
  H  H28  1  0.46988100  0.30250000  0.05803200  1
  H  H29  1  0.54584900  0.45964300  0.26438000  1
  H  H30  1  0.49466800  0.46365600  0.29036000  1
  H  H31  1  0.47071800  0.43600200  0.21277600  1
  H  H32  1  0.44696200  0.05174800  0.24349800  1
  H  H33  1  0.45581200  0.08179200  0.31648500  1
  H  H34  1  0.51587800  0.07672600  0.30690500  1
  H  H35  1  0.70646900  0.92480600  0.96282700  1
  H  H36  1  0.73145000  0.91436600  0.90967500  1
  H  H37  1  0.74142200  0.87992800  0.95469600  1
  H  H38  1  0.70074200  0.76196700  0.76205400  1
  H  H39  1  0.71351400  0.81601700  0.73803300  1
  H  H40  1  0.66890000  0.73810700  0.68418100  1
  H  H41  1  0.31107500  0.75253600  0.73952800  1
  H  H42  1  0.34111000  0.77966600  0.81784200  1
  H  H43  1  0.29521100  0.70119000  0.76638200  1
  H  H44  1  0.72048500  0.88120100  0.04135600  1
  H  H45  1  0.64322100  0.86094100  0.00615200  1
  H  H46  1  0.66493100  0.81231300  0.02610500  1
  H  H47  1  0.94564600  0.10306700  0.23626800  1
  H  H48  1  0.96061400  0.05382500  0.26056200  1
  H  H49  1  0.99568200  0.13130800  0.31317600  1
  H  H50  1  0.77655300  0.10595300  0.45374100  1
  H  H51  1  0.82737000  0.17856200  0.47140500  1
  H  H52  1  0.85544200  0.13352000  0.49166300  1
  H  H53  1  0.92472100  0.70236500  0.48724800  1
  H  H54  1  0.95659400  0.77931900  0.50699700  1
  H  H55  1  0.91925800  0.72261500  0.43072000  1
  H  H56  1  0.77319500  0.57543300  0.52310000  1
  H  H57  1  0.73946000  0.57935500  0.56889500  1
  H  H58  1  0.81921700  0.61768300  0.60257100  1
  C  C1  1  0.92394300  0.91917500  0.49930000  1
  C  C2  1  0.92192800  0.99646800  0.41605700  1
  C  C3  1  0.08184300  0.07875800  0.49678200  1
  C  C4  1  0.08453200  0.00207100  0.58002800  1
  C  C5  1  0.70261400  0.97672100  0.24918500  1
  C  C6  1  0.73397700  0.94180300  0.23594100  1
  C  C7  1  0.87629200  0.99491300  0.37053000  1
  C  C8  1  0.63085900  0.00428000  0.12842300  1
  C  C9  1  0.76158200  0.02892800  0.29986600  1
  C  C10  1  0.79263400  0.99481200  0.28735400  1
  C  C11  1  0.77174300  0.05504600  0.26150200  1
  C  C12  1  0.71315600  0.00166600  0.21024400  1
  C  C13  1  0.80162600  0.01912500  0.24800900  1
  C  C14  1  0.74361200  0.96738700  0.19742300  1
  C  C15  1  0.83824600  0.99429500  0.33263900  1
  C  C16  1  0.66809300  0.00330000  0.16553900  1
  C  C17  1  0.76338600  0.70758800  0.51109400  1
  C  C18  1  0.71277600  0.71016500  0.50554100  1
  C  C19  1  0.70532700  0.75483500  0.49898500  1
  C  C20  1  0.74836000  0.79762400  0.49890500  1
  C  C21  1  0.79798900  0.79395700  0.50224200  1
  C  C22  1  0.80483200  0.74819400  0.50732700  1
  C  C23  1  0.66645000  0.66542300  0.50398400  1
  C  C24  1  0.84244200  0.83773800  0.50084600  1
  C  C25  1  0.87968000  0.87472800  0.49996900  1
  C  C26  1  0.62795200  0.62784100  0.50300300  1
  C  C27  1  0.30125200  0.99781500  0.74300200  1
  C  C28  1  0.30357500  0.01091500  0.79674900  1
  C  C29  1  0.26232200  0.02306500  0.80673900  1
  C  C30  1  0.21789500  0.02110800  0.76312200  1
  C  C31  1  0.21453800  0.00672900  0.70929600  1
  C  C32  1  0.25621700  0.99568200  0.69916900  1
  C  C33  1  0.34642900  0.00884400  0.84156400  1
  C  C34  1  0.16834300  0.00474000  0.66387400  1
  C  C35  1  0.12989200  0.00337000  0.62562200  1
  C  C36  1  0.38294000  0.00753700  0.87907700  1
  C  C37  1  0.25280700  0.24132400  0.44612400  1
  C  C38  1  0.29230400  0.29457200  0.49751900  1
  C  C39  1  0.29023800  0.30364600  0.54842600  1
  C  C40  1  0.24849000  0.25940000  0.54818800  1
  C  C41  1  0.20792600  0.20660800  0.49672400  1
  C  C42  1  0.20862900  0.19771600  0.44517400  1
  C  C43  1  0.33737300  0.33992800  0.49850900  1
  C  C44  1  0.16343100  0.16130700  0.49635900  1
  C  C45  1  0.12613100  0.12346600  0.49634100  1
  C  C46  1  0.37536800  0.37789400  0.49935100  1
  C  C47  1  0.50602900  0.08546500  0.08340600  1
  C  C48  1  0.58654100  0.00518900  0.08399900  1
  C  C49  1  0.50759500  0.92627500  0.92422000  1
  C  C50  1  0.42709400  0.00660500  0.92363600  1
  C  C51  1  0.50067900  0.42305300  0.42034300  1
  C  C52  1  0.58251500  0.58306800  0.50219700  1
  C  C53  1  0.50258000  0.58298100  0.58220900  1
  C  C54  1  0.42073700  0.42293800  0.50032900  1
  C  C55  1  0.50776900  0.30538000  0.24782400  1
  C  C56  1  0.49814200  0.29607600  0.29068200  1
  C  C57  1  0.48986200  0.24438800  0.29121600  1
  C  C58  1  0.49292600  0.20221900  0.25026200  1
  C  C59  1  0.50254300  0.21159000  0.20783400  1
  C  C60  1  0.50980400  0.26263000  0.20627000  1
  C  C61  1  0.49942400  0.34073200  0.33686500  1
  C  C62  1  0.50427800  0.16739700  0.16431400  1
  C  C63  1  0.50532000  0.13011700  0.12751500  1
  C  C64  1  0.50018100  0.37826200  0.37519500  1
  C  C65  1  0.55883000  0.75846100  0.75933300  1
  C  C66  1  0.50562800  0.71195800  0.71041500  1
  C  C67  1  0.45314900  0.70840500  0.70528900  1
  C  C68  1  0.45301300  0.75045300  0.74890100  1
  C  C69  1  0.50611700  0.79700100  0.79790600  1
  C  C70  1  0.55881400  0.80019100  0.80398100  1
  C  C71  1  0.50419400  0.66619200  0.66518200  1
  C  C72  1  0.50740200  0.84322300  0.84252000  1
  C  C73  1  0.50782500  0.88143600  0.87984400  1
  C  C74  1  0.50330200  0.62807100  0.62729600  1
  C  C75  1  0.77578100  0.89797400  0.53741000  1
  C  C76  1  0.77022900  0.94578700  0.52704500  1
  C  C77  1  0.29498700  0.01184800  0.63870200  1
  C  C78  1  0.29058300  0.98872700  0.57994400  1
  C  C79  1  0.39851200  0.01919700  0.76364400  1
  C  C80  1  0.43835000  0.99677500  0.75395300  1
  C  C81  1  0.13195600  0.14447600  0.34592300  1
  C  C82  1  0.09252800  0.08716900  0.28989800  1
  C  C83  1  0.26274700  0.18710900  0.36769800  1
  C  C84  1  0.26058000  0.17637600  0.31069500  1
  C  C85  1  0.48570100  0.28049900  0.12632000  1
  C  C86  1  0.50444000  0.29772100  0.08751200  1
  C  C87  1  0.48050400  0.37724100  0.24406800  1
  C  C88  1  0.49911100  0.43803000  0.25348500  1
  C  C89  1  0.50157200  0.14499000  0.29752800  1
  C  C90  1  0.47859100  0.08497800  0.29067800  1
  C  C91  1  0.65315000  0.84020900  0.88544700  1
  C  C92  1  0.71188600  0.89322200  0.93110100  1
  C  C93  1  0.62717100  0.77376500  0.72579400  1
  C  C94  1  0.68104100  0.77239200  0.72763200  1
  C  C95  1  0.38254900  0.73952500  0.77992600  1
  C  C96  1  0.32904400  0.74345400  0.77563600  1
  C  C97  1  0.68396400  0.88934600  0.09794700  1
  C  C98  1  0.67771900  0.85898600  0.03911100  1
  C  C99  1  0.90431200  0.08073000  0.28395200  1
  C  C100  1  0.95480700  0.09306500  0.27279300  1
  C  C101  1  0.81652100  0.10690100  0.40033500  1
  C  C102  1  0.81914300  0.13291300  0.45797800  1
  C  C103  1  0.86266800  0.73192200  0.46508500  1
  C  C104  1  0.91944000  0.73417900  0.47300900  1
  C  C105  1  0.77605400  0.65718400  0.56396900  1
  C  C106  1  0.77706900  0.60401900  0.56470000  1
  O  O1  1  0.94396700  0.97457100  0.53580700  1
  O  O2  1  0.94218300  0.90238100  0.46220100  1
  O  O3  1  0.93897800  0.03123400  0.47089700  1
  O  O4  1  0.94045500  0.95914800  0.40075100  1
  O  O5  1  0.06368800  0.09539000  0.53390300  1
  O  O6  1  0.06171800  0.02339300  0.46027100  1
  O  O7  1  0.06216300  0.03551400  0.59538800  1
  O  O8  1  0.06384000  0.96363200  0.52524500  1
  O  O9  1  0.46809700  0.03015500  0.06197700  1
  O  O10  1  0.54418300  0.10200600  0.06619100  1
  O  O11  1  0.53093900  0.97115800  0.06585200  1
  O  O12  1  0.60371600  0.03969100  0.06332300  1
  O  O13  1  0.46941400  0.90975600  0.94139400  1
  O  O14  1  0.54555400  0.98159000  0.94564600  1
  O  O15  1  0.40989700  0.97208200  0.94429800  1
  O  O16  1  0.48268500  0.04057000  0.94173800  1
  O  O17  1  0.46706600  0.44525900  0.40432700  1
  O  O18  1  0.53468500  0.43972400  0.47548400  1
  O  O19  1  0.52727700  0.56300700  0.46454900  1
  O  O20  1  0.59839200  0.56426500  0.53917300  1
  O  O21  1  0.46856100  0.56628500  0.52706500  1
  O  O22  1  0.53622400  0.56080000  0.59822700  1
  O  O23  1  0.40486500  0.44174400  0.46335200  1
  O  O24  1  0.47597900  0.44304000  0.53800400  1
  O  O25  1  0.74039700  0.84141400  0.49357000  1
  O  O26  1  0.81162100  0.90999000  0.58574000  1
  O  O27  1  0.25120900  0.98123700  0.64576400  1
  O  O28  1  0.33668000  0.05964900  0.67936800  1
  O  O29  1  0.33940500  0.98287100  0.73136100  1
  O  O30  1  0.41932100  0.07074200  0.79920200  1
  O  O31  1  0.16628600  0.14650600  0.39527100  1
  O  O32  1  0.13164500  0.18887600  0.34737300  1
  O  O33  1  0.25843600  0.23334900  0.39816400  1
  O  O34  1  0.27039800  0.15530400  0.38749400  1
  O  O35  1  0.52047100  0.27064500  0.16488500  1
  O  O36  1  0.43778000  0.27263300  0.12108800  1
  O  O37  1  0.51904100  0.35688700  0.24839000  1
  O  O38  1  0.42997000  0.34543000  0.23046300  1
  O  O39  1  0.48452100  0.15090900  0.24915200  1
  O  O40  1  0.53888300  0.18769400  0.34610600  1
  O  O41  1  0.60964700  0.84630100  0.85209000  1
  O  O42  1  0.64383900  0.79208800  0.88041800  1
  O  O43  1  0.61037600  0.76364700  0.76336600  1
  O  O44  1  0.59914000  0.78522600  0.69120300  1
  O  O45  1  0.40100800  0.74621500  0.74221700  1
  O  O46  1  0.40874400  0.72904000  0.81666500  1
  O  O47  1  0.73616100  0.93669400  0.14287500  1
  O  O48  1  0.64187500  0.87132600  0.10514100  1
  O  O49  1  0.85020400  0.03518200  0.24087200  1
  O  O50  1  0.91234000  0.11159900  0.33195100  1
  O  O51  1  0.76680700  0.05800600  0.35372800  1
  O  O52  1  0.85904800  0.13027500  0.39561900  1
  O  O53  1  0.85279100  0.74379900  0.51088200  1
  O  O54  1  0.82486400  0.71828900  0.41698300  1
  O  O55  1  0.77168300  0.66418900  0.51715800  1
  O  O56  1  0.78060800  0.69485200  0.60625000  1
