# generated using pymatgen
data_Cu6H23C60(Br3O8)3
_symmetry_space_group_name_H-M   'P 1'
_cell_length_a   18.68609200
_cell_length_b   18.68936600
_cell_length_c   18.74971300
_cell_angle_alpha   109.40415300
_cell_angle_beta   109.40692400
_cell_angle_gamma   109.46823700
_symmetry_Int_Tables_number   1
_chemical_formula_structural   Cu6H23C60(Br3O8)3
_chemical_formula_sum   'Cu6 H23 C60 Br9 O24'
_cell_volume   5048.97995009
_cell_formula_units_Z   1
loop_
 _symmetry_equiv_pos_site_id
 _symmetry_equiv_pos_as_xyz
  1  'x, y, z'
loop_
 _atom_site_type_symbol
 _atom_site_label
 _atom_site_symmetry_multiplicity
 _atom_site_fract_x
 _atom_site_fract_y
 _atom_site_fract_z
 _atom_site_occupancy
  Cu  Cu1  1  0.50066500  0.43469100  0.43735100  1
  Cu  Cu2  1  0.49983500  0.56068200  0.55659800  1
  Cu  Cu3  1  0.93688700  0.44093700  0.00064100  1
  Cu  Cu4  1  0.06197300  0.56316700  0.00118100  1
  Cu  Cu5  1  0.05797900  0.00005900  0.56000300  1
  Cu  Cu6  1  0.94228000  0.00586300  0.44116400  1
  H  H1  1  0.22974700  0.10811300  0.15834000  1
  H  H2  1  0.31062800  0.33902400  0.13848000  1
  H  H3  1  0.35746300  0.62608300  0.38514100  1
  H  H4  1  0.33849300  0.69753600  0.24100000  1
  H  H5  1  0.34509200  0.83983400  0.28089700  1
  H  H6  1  0.26057900  0.87705500  0.34834500  1
  H  H7  1  0.17041300  0.77244000  0.37672500  1
  H  H8  1  0.74259300  0.76851100  0.62264400  1
  H  H9  1  0.85568700  0.88264300  0.62484300  1
  H  H10  1  0.62466800  0.50674700  0.75982100  1
  H  H11  1  0.88598300  0.51502900  0.74857700  1
  H  H12  1  0.25416400  0.38978400  0.52904800  1
  H  H13  1  0.13957200  0.27706300  0.52762400  1
  H  H14  1  0.25681100  0.11712400  0.48923900  1
  H  H15  1  0.36882700  0.22799100  0.48577700  1
  H  H16  1  0.04377000  0.78615900  0.14932400  1
  H  H17  1  0.04083700  0.89877200  0.25982600  1
  H  H18  1  0.96056400  0.72585100  0.35447700  1
  H  H19  1  0.95778600  0.61132200  0.24070100  1
  H  H20  1  0.13606900  0.38296800  0.86751200  1
  H  H21  1  0.13689800  0.26911000  0.75658800  1
  H  H22  1  0.85873200  0.11636500  0.63112500  1
  H  H23  1  0.85844000  0.22812400  0.74497100  1
  C  C1  1  0.61441100  0.61318300  0.48860400  1
  C  C2  1  0.37699200  0.49017700  0.37536700  1
  C  C3  1  0.38574000  0.38240000  0.50482600  1
  C  C4  1  0.62392000  0.50585700  0.61829400  1
  C  C5  1  0.27418800  0.22040800  0.14336500  1
  C  C6  1  0.27814100  0.29980200  0.16115000  1
  C  C7  1  0.24103500  0.32952700  0.20826600  1
  C  C8  1  0.19968600  0.27929900  0.23731500  1
  C  C9  1  0.19565900  0.19982200  0.21925700  1
  C  C10  1  0.23298100  0.17044200  0.17243700  1
  C  C11  1  0.18339000  0.41754200  0.16564200  1
  C  C12  1  0.18355200  0.49564900  0.18275700  1
  C  C13  1  0.24678600  0.57045200  0.26212000  1
  C  C14  1  0.30858200  0.56681300  0.32365300  1
  C  C15  1  0.30916200  0.48943700  0.30703000  1
  C  C16  1  0.24586000  0.41410900  0.22743100  1
  C  C17  1  0.30082500  0.71360300  0.27001300  1
  C  C18  1  0.30464500  0.79343900  0.29250400  1
  C  C19  1  0.25736100  0.81433100  0.33035900  1
  C  C20  1  0.20655300  0.75551500  0.34600500  1
  C  C21  1  0.20177400  0.67518300  0.32255400  1
  C  C22  1  0.24846300  0.65386500  0.28384400  1
  C  C23  1  0.74286300  0.75807500  0.56250000  1
  C  C24  1  0.80750800  0.82244600  0.56394800  1
  C  C25  1  0.80972900  0.81114100  0.48834200  1
  C  C26  1  0.74694500  0.73328600  0.41088200  1
  C  C27  1  0.68273500  0.66831800  0.40955600  1
  C  C28  1  0.68055500  0.68029500  0.48588400  1
  C  C29  1  0.68180600  0.50795200  0.75682500  1
  C  C30  1  0.74266500  0.50653300  0.82162000  1
  C  C31  1  0.81592600  0.50784300  0.81812600  1
  C  C32  1  0.82820200  0.51248800  0.75089600  1
  C  C33  1  0.76626400  0.51168900  0.68496600  1
  C  C34  1  0.69210100  0.50849200  0.68749900  1
  C  C35  1  0.25530900  0.33014900  0.52052200  1
  C  C36  1  0.19013300  0.26614800  0.51902000  1
  C  C37  1  0.19077600  0.18976100  0.50866700  1
  C  C38  1  0.25614000  0.17706700  0.49833800  1
  C  C39  1  0.31893600  0.23931600  0.49563900  1
  C  C40  1  0.31905800  0.31629500  0.50738300  1
  C  C41  1  0.00140200  0.62254100  0.12029400  1
  C  C42  1  0.11691300  0.49883400  0.11746400  1
  C  C43  1  0.99718000  0.38168900  0.88133600  1
  C  C44  1  0.88193900  0.50596500  0.88504900  1
  C  C45  1  0.00149500  0.88801000  0.38294900  1
  C  C46  1  0.87925200  0.88172100  0.49267500  1
  C  C47  1  0.99833600  0.11760600  0.61818200  1
  C  C48  1  0.12130000  0.12185700  0.50662400  1
  C  C49  1  0.02499400  0.77223000  0.19389900  1
  C  C50  1  0.02272100  0.83572500  0.25590900  1
  C  C51  1  0.00071500  0.81991800  0.31467700  1
  C  C52  1  0.97850200  0.73928900  0.30926300  1
  C  C53  1  0.97632800  0.67431600  0.24447000  1
  C  C54  1  0.00100300  0.69087500  0.18734100  1
  C  C55  1  0.07487700  0.32442800  0.81590700  1
  C  C56  1  0.07543200  0.25966000  0.75354500  1
  C  C57  1  0.99786700  0.18495000  0.68614600  1
  C  C58  1  0.91995200  0.17466800  0.68308200  1
  C  C59  1  0.91984300  0.23759100  0.74782600  1
  C  C60  1  0.99720300  0.31336600  0.81390600  1
  Br  Br1  1  0.13176600  0.59482600  0.34534900  1
  Br  Br2  1  0.74838200  0.70776600  0.30392100  1
  Br  Br3  1  0.59617900  0.56640200  0.29826900  1
  Br  Br4  1  0.72569500  0.50956100  0.91741500  1
  Br  Br5  1  0.32566600  0.17969200  0.07853800  1
  Br  Br6  1  0.78950500  0.52178100  0.59585200  1
  Br  Br7  1  0.14655000  0.31826500  0.30110100  1
  Br  Br8  1  0.13779800  0.13016900  0.25851300  1
  Br  Br9  1  0.09938200  0.31356500  0.05519000  1
  O  O1  1  0.58314600  0.53028700  0.43544600  1
  O  O2  1  0.58630700  0.63938300  0.54224000  1
  O  O3  1  0.40833600  0.43841900  0.35326800  1
  O  O4  1  0.40632800  0.54622900  0.45664300  1
  O  O5  1  0.41327200  0.35588600  0.45075700  1
  O  O6  1  0.40867500  0.46465400  0.55001300  1
  O  O7  1  0.59770800  0.45304800  0.53713000  1
  O  O8  1  0.58859200  0.55314500  0.64045900  1
  O  O9  1  0.94673800  0.54029900  0.09073100  1
  O  O10  1  0.05603200  0.64621100  0.09225800  1
  O  O11  1  0.03433300  0.44291800  0.08475900  1
  O  O12  1  0.14248900  0.55730800  0.09423100  1
  O  O13  1  0.93905400  0.35833300  0.90568600  1
  O  O14  1  0.05587700  0.46364000  0.91517300  1
  O  O15  1  0.85611400  0.45051300  0.91140500  1
  O  O16  1  0.96451300  0.55744200  0.91301600  1
  O  O17  1  0.03096500  0.89557800  0.46120200  1
  O  O18  1  0.97194600  0.93807100  0.36328400  1
  O  O19  1  0.95720100  0.92854200  0.56390400  1
  O  O20  1  0.86055200  0.89756300  0.42705200  1
  O  O21  1  0.06657800  0.10542800  0.63999000  1
  O  O22  1  0.93093700  0.07269100  0.53787100  1
  O  O23  1  0.14036200  0.07215200  0.53697100  1
  O  O24  1  0.04242200  0.11314600  0.47395700  1
