# generated using pymatgen
data_FeH6C20(NO6)2
_symmetry_space_group_name_H-M   'P 1'
_cell_length_a   15.95062000
_cell_length_b   15.89002800
_cell_length_c   13.82908600
_cell_angle_alpha   88.48022500
_cell_angle_beta   97.50964200
_cell_angle_gamma   104.62033500
_symmetry_Int_Tables_number   1
_chemical_formula_structural   FeH6C20(NO6)2
_chemical_formula_sum   'Fe2 H12 C40 N4 O24'
_cell_volume   3362.40062256
_cell_formula_units_Z   2
loop_
 _symmetry_equiv_pos_site_id
 _symmetry_equiv_pos_as_xyz
  1  'x, y, z'
loop_
 _atom_site_type_symbol
 _atom_site_label
 _atom_site_symmetry_multiplicity
 _atom_site_fract_x
 _atom_site_fract_y
 _atom_site_fract_z
 _atom_site_occupancy
  Fe  Fe1  1  0.50065000  0.01036300  0.78511900  1
  Fe  Fe2  1  0.49082700  0.98727900  0.20586700  1
  H  H1  1  0.07208500  0.98876700  0.81341200  1
  H  H2  1  0.17020000  0.99136400  0.11268700  1
  H  H3  1  0.82087200  0.99019300  0.88461800  1
  H  H4  1  0.76641600  0.01516400  0.22242900  1
  H  H5  1  0.51028400  0.92172200  0.50046200  1
  H  H6  1  0.52013400  0.69688500  0.35106500  1
  H  H7  1  0.49528700  0.68369800  0.65615700  1
  H  H8  1  0.41219200  0.55461000  0.38406600  1
  H  H9  1  0.41921600  0.40402100  0.37783800  1
  H  H10  1  0.52882600  0.32069700  0.33975500  1
  H  H11  1  0.48710600  0.07731900  0.48711100  1
  H  H12  1  0.50524100  0.30615500  0.64532400  1
  C  C1  1  0.20855200  0.99627600  0.84441200  1
  C  C2  1  0.12616600  0.98854500  0.86928400  1
  C  C3  1  0.11348200  0.98869800  0.96539300  1
  C  C4  1  0.18240100  0.99199100  0.03762300  1
  C  C5  1  0.26550200  0.99671300  0.01446500  1
  C  C6  1  0.27906300  0.00053600  0.91643500  1
  C  C7  1  0.02953000  0.99191400  0.98959800  1
  C  C8  1  0.95942500  0.99675100  0.00923400  1
  C  C9  1  0.80792600  0.99593800  0.95858800  1
  C  C10  1  0.72468700  0.99529500  0.97784200  1
  C  C11  1  0.71046800  0.00015000  0.07434600  1
  C  C12  1  0.77939300  0.01108200  0.14818100  1
  C  C13  1  0.86269400  0.01357800  0.12875100  1
  C  C14  1  0.87621200  0.00335100  0.03309300  1
  C  C15  1  0.47491100  0.12941900  0.65553300  1
  C  C16  1  0.36689700  0.01552400  0.88716600  1
  C  C17  1  0.65503600  0.99324100  0.89549600  1
  C  C18  1  0.49716600  0.85538600  0.67727300  1
  C  C19  1  0.50696300  0.14495300  0.31380600  1
  C  C20  1  0.33603800  0.99782300  0.09540700  1
  C  C21  1  0.62307000  0.98525100  0.10293900  1
  C  C22  1  0.52827500  0.86915200  0.33302700  1
  C  C23  1  0.51290100  0.81353300  0.41785200  1
  C  C24  1  0.51237100  0.72676500  0.41753800  1
  C  C25  1  0.50845100  0.68025800  0.50386100  1
  C  C26  1  0.50061000  0.72034800  0.58934800  1
  C  C27  1  0.50108800  0.80759200  0.58905500  1
  C  C28  1  0.50832600  0.85331400  0.50309000  1
  C  C29  1  0.45993600  0.53279900  0.43452300  1
  C  C30  1  0.46438300  0.44767900  0.43051300  1
  C  C31  1  0.52344400  0.41740000  0.49511200  1
  C  C32  1  0.57957300  0.47388300  0.56410000  1
  C  C33  1  0.57478500  0.55998900  0.56839900  1
  C  C34  1  0.51412300  0.58927300  0.50357100  1
  C  C35  1  0.52072000  0.28315200  0.40573800  1
  C  C36  1  0.50893700  0.19390600  0.40290500  1
  C  C37  1  0.49647400  0.14697400  0.48708200  1
  C  C38  1  0.49687200  0.18676400  0.57373800  1
  C  C39  1  0.50943700  0.27562900  0.57781500  1
  C  C40  1  0.52055300  0.32422300  0.49335900  1
  N  N1  1  0.22125200  0.00947600  0.74457400  1
  N  N2  1  0.64774500  0.44605800  0.62361000  1
  N  N3  1  0.63903300  0.62047300  0.63099200  1
  N  N4  1  0.93198600  0.02348400  0.20804200  1
  O  O1  1  0.53287800  0.12942200  0.73215200  1
  O  O2  1  0.42497600  0.08882800  0.91156800  1
  O  O3  1  0.41086300  0.05938600  0.63745500  1
  O  O4  1  0.38487700  0.96055500  0.82836000  1
  O  O5  1  0.58034200  0.00873100  0.90968000  1
  O  O6  1  0.67034400  0.98311800  0.80616500  1
  O  O7  1  0.50821000  0.93994500  0.66970200  1
  O  O8  1  0.48373800  0.81588800  0.76047500  1
  O  O9  1  0.47971200  0.05982200  0.31786100  1
  O  O10  1  0.53519600  0.18364200  0.23499500  1
  O  O11  1  0.41036900  0.98212700  0.08053900  1
  O  O12  1  0.32257200  0.00992000  0.18498000  1
  O  O13  1  0.59493700  0.93769000  0.34335300  1
  O  O14  1  0.60554700  0.04013000  0.16172800  1
  O  O15  1  0.46362700  0.86978200  0.26378200  1
  O  O16  1  0.56591700  0.91084200  0.08105800  1
  O  O17  1  0.16264800  0.96516300  0.67816700  1
  O  O18  1  0.27218700  0.08226300  0.72009100  1
  O  O19  1  0.69610800  0.40516400  0.58442800  1
  O  O20  1  0.65825100  0.45616900  0.71777300  1
  O  O21  1  0.63608700  0.61857600  0.72458500  1
  O  O22  1  0.69104300  0.68612200  0.59352900  1
  O  O23  1  0.01207600  0.06158100  0.19541800  1
  O  O24  1  0.91322100  0.00711100  0.29642900  1
