# generated using pymatgen
data_Zn3H24C37O13
_symmetry_space_group_name_H-M   'P 1'
_cell_length_a   30.75565500
_cell_length_b   21.83991600
_cell_length_c   21.88131100
_cell_angle_alpha   90.00000000
_cell_angle_beta   134.65080200
_cell_angle_gamma   90.00000000
_symmetry_Int_Tables_number   1
_chemical_formula_structural   Zn3H24C37O13
_chemical_formula_sum   'Zn12 H96 C148 O52'
_cell_volume   10455.98841935
_cell_formula_units_Z   4
loop_
 _symmetry_equiv_pos_site_id
 _symmetry_equiv_pos_as_xyz
  1  'x, y, z'
loop_
 _atom_site_type_symbol
 _atom_site_label
 _atom_site_symmetry_multiplicity
 _atom_site_fract_x
 _atom_site_fract_y
 _atom_site_fract_z
 _atom_site_occupancy
  Zn  Zn1  1  0.99923400  0.50861800  0.06602000  1
  Zn  Zn2  1  0.49945000  0.99069300  0.06656000  1
  Zn  Zn3  1  0.00356000  0.49663400  0.93260900  1
  Zn  Zn4  1  0.50367400  0.00309000  0.93308600  1
  Zn  Zn5  1  0.93701400  0.00573700  0.94022600  1
  Zn  Zn6  1  0.43701300  0.49368500  0.93992900  1
  Zn  Zn7  1  0.07508100  0.99940500  0.07646600  1
  Zn  Zn8  1  0.57507200  0.50019500  0.07616200  1
  Zn  Zn9  1  0.50412500  0.56677200  0.51185200  1
  Zn  Zn10  1  0.49873500  0.42880900  0.49488800  1
  Zn  Zn11  1  0.99875600  0.07071500  0.49521700  1
  Zn  Zn12  1  0.00442700  0.93276300  0.51243500  1
  H  H1  1  0.07824400  0.69453300  0.00959700  1
  H  H2  1  0.09133600  0.30890600  0.04624400  1
  H  H3  1  0.59405700  0.19036600  0.05332800  1
  H  H4  1  0.57716500  0.80502000  0.00696300  1
  H  H5  1  0.08251400  0.80701300  0.01696500  1
  H  H6  1  0.09382200  0.19647000  0.05258700  1
  H  H7  1  0.59636400  0.30281700  0.05912100  1
  H  H8  1  0.58142300  0.69251500  0.01409100  1
  H  H9  1  0.85811200  0.81123800  0.88400400  1
  H  H10  1  0.87302400  0.19842400  0.92497600  1
  H  H11  1  0.37186000  0.30118800  0.91779300  1
  H  H12  1  0.35852300  0.68823800  0.88633100  1
  H  H13  1  0.90667400  0.80957300  0.00321400  1
  H  H14  1  0.91769200  0.19785400  0.04284000  1
  H  H15  1  0.41285000  0.30196100  0.03411600  1
  H  H16  1  0.40834000  0.68978700  0.00590900  1
  H  H17  1  0.85603500  0.69992200  0.88077100  1
  H  H18  1  0.87416300  0.30968500  0.92621800  1
  H  H19  1  0.37298500  0.18996500  0.91924400  1
  H  H20  1  0.35646200  0.79954200  0.88329200  1
  H  H21  1  0.90384000  0.69836000  0.99982400  1
  H  H22  1  0.91849800  0.30923100  0.04391800  1
  H  H23  1  0.41358900  0.19052600  0.03539800  1
  H  H24  1  0.40547800  0.80100100  0.00272700  1
  H  H25  1  0.19563800  0.43507800  0.12813200  1
  H  H26  1  0.69586700  0.06355700  0.12793400  1
  H  H27  1  0.30743100  0.43090100  0.24339200  1
  H  H28  1  0.80765000  0.06772500  0.24317200  1
  H  H29  1  0.30735200  0.63591000  0.36910800  1
  H  H30  1  0.30569900  0.57748700  0.43092100  1
  H  H31  1  0.80584900  0.92291300  0.43189400  1
  H  H32  1  0.80750900  0.86383100  0.37069400  1
  H  H33  1  0.19616200  0.63689500  0.25728500  1
  H  H34  1  0.19457600  0.57879500  0.31951800  1
  H  H35  1  0.69472600  0.92159100  0.32048600  1
  H  H36  1  0.69631100  0.86283500  0.25885400  1
  H  H37  1  0.80834600  0.43348600  0.72881800  1
  H  H38  1  0.30854800  0.06670700  0.72976100  1
  H  H39  1  0.69579000  0.43053100  0.61901100  1
  H  H40  1  0.19598700  0.06962600  0.61988500  1
  H  H41  1  0.69400600  0.54567600  0.82667600  1
  H  H42  1  0.69514100  0.61322500  0.77404400  1
  H  H43  1  0.19530000  0.88641500  0.77424500  1
  H  H44  1  0.19412500  0.95374900  0.82710300  1
  H  H45  1  0.80507200  0.54536300  0.93829200  1
  H  H46  1  0.80614300  0.61263600  0.88536000  1
  H  H47  1  0.30629300  0.88702500  0.88561500  1
  H  H48  1  0.30518500  0.95408600  0.93876800  1
  H  H49  1  0.10483000  0.00187000  0.90833300  1
  H  H50  1  0.60504700  0.49523000  0.90823100  1
  H  H51  1  0.60096300  0.49682900  0.79226200  1
  H  H52  1  0.10074900  0.00036900  0.79238400  1
  H  H53  1  0.37076900  0.42665000  0.57255000  1
  H  H54  1  0.36367600  0.51255200  0.56395500  1
  H  H55  1  0.86315600  0.99018600  0.56348600  1
  H  H56  1  0.87220500  0.07589500  0.57443600  1
  H  H57  1  0.07938400  0.92753900  0.27529300  1
  H  H58  1  0.57772600  0.57402000  0.27342200  1
  H  H59  1  0.57497800  0.57559500  0.38340300  1
  H  H60  1  0.07680200  0.92585600  0.38542300  1
  H  H61  1  0.37051400  0.45014800  0.17915500  1
  H  H62  1  0.42871800  0.38641300  0.23547300  1
  H  H63  1  0.92565900  0.11112100  0.23297800  1
  H  H64  1  0.86916500  0.04586000  0.17839300  1
  H  H65  1  0.92567000  0.10945500  0.12208300  1
  H  H66  1  0.86864700  0.04464200  0.06658600  1
  H  H67  1  0.37014400  0.45142900  0.06749300  1
  H  H68  1  0.42888700  0.38816600  0.12472700  1
  H  H69  1  0.92568400  0.91764200  0.76251900  1
  H  H70  1  0.88408400  0.90499000  0.65116000  1
  H  H71  1  0.76757000  0.94378100  0.63665800  1
  H  H72  1  0.70447100  0.87187200  0.63093000  1
  H  H73  1  0.73806700  0.76553200  0.67898800  1
  H  H74  1  0.83617500  0.73113000  0.73319800  1
  H  H75  1  0.90055000  0.80285600  0.73932200  1
  H  H76  1  0.83789500  0.05676500  0.73910000  1
  H  H77  1  0.78263400  0.07450200  0.62544500  1
  H  H78  1  0.90231500  0.18726000  0.74251800  1
  H  H79  1  0.89194400  0.28944500  0.77505200  1
  H  H80  1  0.80752900  0.31366000  0.76164600  1
  H  H81  1  0.73335100  0.23396300  0.71647900  1
  H  H82  1  0.74310900  0.13034200  0.68377600  1
  H  H83  1  0.28133000  0.42983900  0.62376700  1
  H  H84  1  0.33714900  0.44524100  0.73809500  1
  H  H85  1  0.39612000  0.31289400  0.73274400  1
  H  H86  1  0.38265300  0.21062400  0.76111500  1
  H  H87  1  0.29897100  0.18879500  0.75008600  1
  H  H88  1  0.22857900  0.27094100  0.71126900  1
  H  H89  1  0.24147300  0.37466300  0.68276800  1
  H  H90  1  0.38634400  0.59692500  0.65371400  1
  H  H91  1  0.42778600  0.58307500  0.76478300  1
  H  H92  1  0.26930900  0.56008400  0.63892600  1
  H  H93  1  0.20782100  0.63306400  0.63519100  1
  H  H94  1  0.24356200  0.73867200  0.68557000  1
  H  H95  1  0.34220800  0.77123800  0.74012100  1
  H  H96  1  0.40498900  0.69841100  0.74429400  1
  C  C1  1  0.12077500  0.50807300  0.11875200  1
  C  C2  1  0.62093700  0.99120800  0.11914100  1
  C  C3  1  0.99596100  0.62190100  0.98517600  1
  C  C4  1  0.00706400  0.38339300  0.01361300  1
  C  C5  1  0.50746200  0.11609300  0.01471300  1
  C  C6  1  0.49588300  0.87763900  0.98508500  1
  C  C7  1  0.88204100  0.49675800  0.87992300  1
  C  C8  1  0.38221400  0.00301900  0.88055700  1
  C  C9  1  0.95124800  0.72318000  0.96354200  1
  C  C10  1  0.96917200  0.28351200  0.01318700  1
  C  C11  1  0.46821000  0.21608200  0.01112000  1
  C  C12  1  0.45145900  0.77631300  0.96418600  1
  C  C13  1  0.99524000  0.68843900  0.97906900  1
  C  C14  1  0.01152000  0.31705200  0.02346800  1
  C  C15  1  0.51190300  0.18242700  0.02475500  1
  C  C16  1  0.49501000  0.81109600  0.97863900  1
  C  C17  1  0.04193600  0.71974600  0.99584900  1
  C  C18  1  0.05685100  0.28461900  0.03795100  1
  C  C19  1  0.55852600  0.21476000  0.04243300  1
  C  C20  1  0.54119300  0.77979900  0.99407900  1
  C  C21  1  0.04456700  0.78357700  0.00076500  1
  C  C22  1  0.05838600  0.22081300  0.04195800  1
  C  C23  1  0.55991500  0.27859000  0.04606700  1
  C  C24  1  0.54383100  0.71595200  0.99886200  1
  C  C25  1  0.99913400  0.81675900  0.98544500  1
  C  C26  1  0.01263200  0.18869300  0.02683900  1
  C  C27  1  0.51286600  0.31082500  0.02750800  1
  C  C28  1  0.49886600  0.68274000  0.98467700  1
  C  C29  1  0.95227300  0.78385000  0.96447300  1
  C  C30  1  0.96857100  0.22279700  0.01213800  1
  C  C31  1  0.46764600  0.27679600  0.00991900  1
  C  C32  1  0.45244700  0.71564000  0.96494500  1
  C  C33  1  0.89656300  0.79022500  0.94747600  1
  C  C34  1  0.91071300  0.21790300  0.98995700  1
  C  C35  1  0.40814300  0.28177700  0.98324000  1
  C  C36  1  0.39742000  0.70920900  0.94958900  1
  C  C37  1  0.89506500  0.71877500  0.94559200  1
  C  C38  1  0.91132700  0.28938300  0.99074600  1
  C  C39  1  0.40872200  0.21029600  0.98416800  1
  C  C40  1  0.39593000  0.78065900  0.94785500  1
  C  C41  1  0.22090200  0.54443800  0.25668800  1
  C  C42  1  0.72106300  0.95502900  0.25731800  1
  C  C43  1  0.18735900  0.50675500  0.18636300  1
  C  C44  1  0.68753200  0.99242200  0.18669400  1
  C  C45  1  0.21972600  0.46621700  0.18182700  1
  C  C46  1  0.71992500  0.03263400  0.18184500  1
  C  C47  1  0.28323300  0.46354800  0.24765300  1
  C  C48  1  0.78343100  0.03530600  0.24765800  1
  C  C49  1  0.31536700  0.50346700  0.31680700  1
  C  C50  1  0.81554600  0.99570500  0.31713900  1
  C  C51  1  0.28157900  0.54406000  0.31726500  1
  C  C52  1  0.78174300  0.95540000  0.31790600  1
  C  C53  1  0.28670100  0.59382000  0.36812400  1
  C  C54  1  0.78685400  0.90612000  0.36926800  1
  C  C55  1  0.21533700  0.59453000  0.29654400  1
  C  C56  1  0.71549000  0.90540600  0.29768000  1
  C  C57  1  0.78121400  0.52557000  0.82083600  1
  C  C58  1  0.28136800  0.97423800  0.82141900  1
  C  C59  1  0.81545100  0.49408500  0.81273500  1
  C  C60  1  0.31562400  0.00582300  0.81343100  1
  C  C61  1  0.78372500  0.45976700  0.73835300  1
  C  C62  1  0.28391300  0.04031000  0.73918200  1
  C  C63  1  0.71989400  0.45770100  0.67634500  1
  C  C64  1  0.22007600  0.04236000  0.67713700  1
  C  C65  1  0.68737400  0.49230900  0.68637500  1
  C  C66  1  0.18753700  0.00758800  0.68700400  1
  C  C67  1  0.72074600  0.52608800  0.76002500  1
  C  C68  1  0.22090100  0.97371500  0.76057700  1
  C  C69  1  0.71463500  0.56831000  0.80666300  1
  C  C70  1  0.21477400  0.93128200  0.80703000  1
  C  C71  1  0.78593100  0.56796000  0.87823700  1
  C  C72  1  0.28606800  0.93164500  0.87864000  1
  C  C73  1  0.00841600  0.01240300  0.89145600  1
  C  C74  1  0.50841300  0.48683300  0.89117500  1
  C  C75  1  0.00233400  0.88326100  0.99448400  1
  C  C76  1  0.00968800  0.12195300  0.02161500  1
  C  C77  1  0.50985900  0.37757100  0.02177800  1
  C  C78  1  0.50215200  0.61622900  0.99376200  1
  C  C79  1  0.00364600  0.99252900  0.12514100  1
  C  C80  1  0.50362800  0.50721800  0.12480300  1
  C  C81  1  0.50170100  0.50617000  0.38440000  1
  C  C82  1  0.00193400  0.99337000  0.38493300  1
  C  C83  1  0.38191700  0.50108700  0.38535800  1
  C  C84  1  0.88208700  0.99820500  0.38575900  1
  C  C85  1  0.50124600  0.48938500  0.62247800  1
  C  C86  1  0.00132700  0.01012500  0.62285000  1
  C  C87  1  0.62082900  0.49450900  0.62093800  1
  C  C88  1  0.12099000  0.00526200  0.62146400  1
  C  C89  1  0.95483900  0.02233100  0.73928600  1
  C  C90  1  0.45464400  0.47793200  0.73883800  1
  C  C91  1  0.00810900  0.01545900  0.82432200  1
  C  C92  1  0.50806700  0.48368600  0.82400200  1
  C  C93  1  0.06134000  0.00842100  0.84291300  1
  C  C94  1  0.56141800  0.48964200  0.84268400  1
  C  C95  1  0.55929500  0.49047400  0.77685600  1
  C  C96  1  0.05922300  0.00764600  0.77709800  1
  C  C97  1  0.50422600  0.48391700  0.69179800  1
  C  C98  1  0.00434800  0.01554500  0.69220500  1
  C  C99  1  0.45295400  0.47693800  0.67638500  1
  C  C100  1  0.95321700  0.02363800  0.67690300  1
  C  C101  1  0.38531100  0.47149400  0.60570200  1
  C  C102  1  0.88571400  0.03064000  0.60635400  1
  C  C103  1  0.88780100  0.02921600  0.67963700  1
  C  C104  1  0.38745900  0.47252200  0.67904700  1
  C  C105  1  0.96125600  0.02102500  0.18345300  1
  C  C106  1  0.46204000  0.47750200  0.18384100  1
  C  C107  1  0.00326600  0.98889900  0.19144200  1
  C  C108  1  0.50321400  0.51074600  0.19106900  1
  C  C109  1  0.04535200  0.95417900  0.26565900  1
  C  C110  1  0.54437800  0.54649700  0.26443200  1
  C  C111  1  0.54251400  0.54778700  0.32651400  1
  C  C112  1  0.04360200  0.95281500  0.32784800  1
  C  C113  1  0.50147400  0.51104700  0.31764900  1
  C  C114  1  0.00168100  0.98847500  0.31816900  1
  C  C115  1  0.46239200  0.47632900  0.24467100  1
  C  C116  1  0.96165700  0.02216000  0.24433400  1
  C  C117  1  0.41261000  0.43055100  0.20037700  1
  C  C118  1  0.91069000  0.06658800  0.19899600  1
  C  C119  1  0.91046300  0.06558600  0.12745800  1
  C  C120  1  0.41247100  0.43159800  0.12892600  1
  C  C121  1  0.88030000  0.92047700  0.69551600  1
  C  C122  1  0.83888600  0.87803100  0.68847800  1
  C  C123  1  0.78364700  0.89735500  0.65813800  1
  C  C124  1  0.74756700  0.85677400  0.65462700  1
  C  C125  1  0.76633900  0.79712200  0.68148200  1
  C  C126  1  0.82124700  0.77782700  0.71172200  1
  C  C127  1  0.85732200  0.81815800  0.71503800  1
  C  C128  1  0.82711400  0.08777600  0.68978900  1
  C  C129  1  0.82253700  0.15152000  0.70958800  1
  C  C130  1  0.86452600  0.19644300  0.73561200  1
  C  C131  1  0.85903400  0.25449600  0.75441000  1
  C  C132  1  0.81178500  0.26808900  0.74707700  1
  C  C133  1  0.77021700  0.22343500  0.72173900  1
  C  C134  1  0.77573200  0.16528200  0.70334600  1
  C  C135  1  0.32541300  0.41500400  0.68750900  1
  C  C136  1  0.31890800  0.35114600  0.70467400  1
  C  C137  1  0.35872100  0.30481500  0.72700700  1
  C  C138  1  0.35145300  0.24668500  0.74339700  1
  C  C139  1  0.30459800  0.23441700  0.73735200  1
  C  C140  1  0.26515500  0.28044300  0.71557900  1
  C  C141  1  0.27243200  0.33865500  0.69955000  1
  C  C142  1  0.38231700  0.58130000  0.69776500  1
  C  C143  1  0.34186200  0.62445600  0.69194100  1
  C  C144  1  0.28632100  0.60616400  0.66141300  1
  C  C145  1  0.25115000  0.64735900  0.65902800  1
  C  C146  1  0.27112100  0.70660200  0.68717600  1
  C  C147  1  0.32633300  0.72486900  0.71761300  1
  C  C148  1  0.36151200  0.68392100  0.71983300  1
  O  O1  1  0.09046000  0.51339800  0.14035700  1
  O  O2  1  0.59065600  0.98578100  0.14079000  1
  O  O3  1  0.09439700  0.50019100  0.03953300  1
  O  O4  1  0.59451800  0.99930100  0.03993300  1
  O  O5  1  0.99351600  0.59834900  0.03777800  1
  O  O6  1  0.00197200  0.41639500  0.05852900  1
  O  O7  1  0.50236500  0.08294100  0.05952600  1
  O  O8  1  0.49353300  0.90104200  0.03785100  1
  O  O9  1  0.00102200  0.58884700  0.94030400  1
  O  O10  1  0.00934700  0.40691400  0.96084700  1
  O  O11  1  0.50965100  0.09273300  0.96177900  1
  O  O12  1  0.50096300  0.91084800  0.94033200  1
  O  O13  1  0.90839700  0.50486200  0.95908200  1
  O  O14  1  0.40860600  0.99468900  0.95970000  1
  O  O15  1  0.91239900  0.49179500  0.85836100  1
  O  O16  1  0.41253500  0.00806200  0.85894600  1
  O  O17  1  0.95590500  0.01402700  0.86859200  1
  O  O18  1  0.45590500  0.48527100  0.86831000  1
  O  O19  1  0.06102200  0.00604000  0.97134400  1
  O  O20  1  0.56101400  0.49328100  0.97105800  1
  O  O21  1  0.95107600  0.91412500  0.94876500  1
  O  O22  1  0.95563300  0.09613700  0.96792000  1
  O  O23  1  0.45577700  0.40333100  0.96791500  1
  O  O24  1  0.45093500  0.58531100  0.94817300  1
  O  O25  1  0.05642700  0.90907500  0.04816500  1
  O  O26  1  0.06098200  0.09099400  0.06819100  1
  O  O27  1  0.56111400  0.40859800  0.06829000  1
  O  O28  1  0.55627600  0.59047300  0.04749000  1
  O  O29  1  0.95110300  0.99959800  0.04539800  1
  O  O30  1  0.45110300  0.49999800  0.04508700  1
  O  O31  1  0.05624300  0.99054800  0.14819500  1
  O  O32  1  0.55622900  0.50925800  0.14786800  1
  O  O33  1  0.50576200  0.55628200  0.42141000  1
  O  O34  1  0.49727800  0.45124800  0.40368800  1
  O  O35  1  0.99739700  0.04828400  0.40410900  1
  O  O36  1  0.00608100  0.94326000  0.42201300  1
  O  O37  1  0.41254200  0.55242700  0.42178300  1
  O  O38  1  0.40805500  0.44746400  0.40501800  1
  O  O39  1  0.90811500  0.05188000  0.40531700  1
  O  O40  1  0.91281500  0.94692600  0.42230900  1
  O  O41  1  0.50503200  0.54438300  0.60259700  1
  O  O42  1  0.49780600  0.43928000  0.58607100  1
  O  O43  1  0.99776600  0.06023500  0.58634000  1
  O  O44  1  0.00527500  0.95514800  0.60311900  1
  O  O45  1  0.59476500  0.54808200  0.60218900  1
  O  O46  1  0.59023800  0.44320500  0.58422800  1
  O  O47  1  0.09029100  0.05650400  0.58465400  1
  O  O48  1  0.09503000  0.95163200  0.60276700  1
  O  O49  1  0.85846100  0.97954900  0.67628400  1
  O  O50  1  0.87185000  0.08400200  0.69019200  1
  O  O51  1  0.37023800  0.41796600  0.68802700  1
  O  O52  1  0.35924000  0.52269400  0.67707800  1
