# generated using pymatgen
data_Zn2H9C25(NO3)3
_symmetry_space_group_name_H-M   'P 1'
_cell_length_a   8.51793800
_cell_length_b   10.70207700
_cell_length_c   14.42821700
_cell_angle_alpha   97.77103800
_cell_angle_beta   90.09380200
_cell_angle_gamma   90.00839200
_symmetry_Int_Tables_number   1
_chemical_formula_structural   Zn2H9C25(NO3)3
_chemical_formula_sum   'Zn2 H9 C25 N3 O9'
_cell_volume   1303.19003062
_cell_formula_units_Z   1
loop_
 _symmetry_equiv_pos_site_id
 _symmetry_equiv_pos_as_xyz
  1  'x, y, z'
loop_
 _atom_site_type_symbol
 _atom_site_label
 _atom_site_symmetry_multiplicity
 _atom_site_fract_x
 _atom_site_fract_y
 _atom_site_fract_z
 _atom_site_occupancy
  Zn  Zn1  1  0.50018100  0.49087600  0.10310100  1
  Zn  Zn2  1  0.50057000  0.50474300  0.89770000  1
  H  H1  1  0.99639000  0.59168700  0.05787700  1
  H  H2  1  0.99744700  0.40555900  0.94291300  1
  H  H3  1  0.25428900  0.90124500  0.99272300  1
  H  H4  1  0.25590300  0.09410000  0.00534300  1
  H  H5  1  0.50118400  0.29197100  0.40102000  1
  H  H6  1  0.50157700  0.30226400  0.57238700  1
  H  H7  1  0.50042700  0.70370900  0.59978800  1
  H  H8  1  0.50003600  0.69341600  0.42842300  1
  H  H9  1  0.54189600  0.86161800  0.95653200  1
  C  C1  1  0.99819500  0.68965500  0.04724400  1
  C  C2  1  0.13881000  0.74596000  0.03254000  1
  C  C3  1  0.14151400  0.86660700  0.01049400  1
  C  C4  1  0.85903800  0.75029100  0.03467400  1
  C  C5  1  0.86039600  0.87561800  0.01779600  1
  C  C6  1  0.00323900  0.93555700  0.00841200  1
  C  C7  1  0.00400900  0.06130900  0.99237200  1
  C  C8  1  0.14263100  0.12923100  0.98868200  1
  C  C9  1  0.13945100  0.25021000  0.96714900  1
  C  C10  1  0.72186900  0.94223800  0.01062700  1
  C  C11  1  0.86239100  0.12320800  0.98493100  1
  C  C12  1  0.86054600  0.24737900  0.96742100  1
  C  C13  1  0.99904100  0.30760900  0.95360000  1
  C  C14  1  0.28016400  0.66846700  0.02294200  1
  C  C15  1  0.28046700  0.32726900  0.97700900  1
  C  C16  1  0.71848100  0.32469800  0.97744600  1
  C  C17  1  0.71900600  0.67041300  0.02413100  1
  C  C18  1  0.50126400  0.38822000  0.54072300  1
  C  C19  1  0.50105600  0.50359800  0.59645700  1
  C  C20  1  0.50062000  0.61326300  0.55614500  1
  C  C21  1  0.50038700  0.60745700  0.46008400  1
  C  C22  1  0.50057700  0.49207500  0.40435100  1
  C  C23  1  0.50103100  0.38241400  0.44466300  1
  C  C24  1  0.50111900  0.50900900  0.69637000  1
  C  C25  1  0.50033400  0.48666200  0.30443800  1
  N  N1  1  0.72603500  0.06332900  0.99494800  1
  N  N2  1  0.50017100  0.48399400  0.22400800  1
  N  N3  1  0.50109000  0.51166600  0.77679900  1
  O  O1  1  0.33141700  0.63202000  0.93789900  1
  O  O2  1  0.33544100  0.62478300  0.09726600  1
  O  O3  1  0.33107300  0.36369700  0.06223600  1
  O  O4  1  0.33562100  0.37088400  0.90281000  1
  O  O5  1  0.66900100  0.36327700  0.06262200  1
  O  O6  1  0.66450900  0.37018700  0.90357600  1
  O  O7  1  0.66953000  0.63213100  0.93885300  1
  O  O8  1  0.66451600  0.62530700  0.09789400  1
  O  O9  1  0.57945900  0.88733100  0.02126700  1
