# generated using pymatgen
data_ZnH14C22NO8
_symmetry_space_group_name_H-M   'P 1'
_cell_length_a   11.02180000
_cell_length_b   11.84888900
_cell_length_c   13.04876900
_cell_angle_alpha   91.19071700
_cell_angle_beta   89.99594700
_cell_angle_gamma   85.77947200
_symmetry_Int_Tables_number   1
_chemical_formula_structural   ZnH14C22NO8
_chemical_formula_sum   'Zn2 H28 C44 N2 O16'
_cell_volume   1699.12769815
_cell_formula_units_Z   2
loop_
 _symmetry_equiv_pos_site_id
 _symmetry_equiv_pos_as_xyz
  1  'x, y, z'
loop_
 _atom_site_type_symbol
 _atom_site_label
 _atom_site_symmetry_multiplicity
 _atom_site_fract_x
 _atom_site_fract_y
 _atom_site_fract_z
 _atom_site_occupancy
  Zn  Zn1  1  0.51667400  0.36178900  0.50369400  1
  Zn  Zn2  1  0.48948300  0.61682500  0.48558400  1
  H  H1  1  0.88598600  0.88016000  0.51937900  1
  H  H2  1  0.11332600  0.10079800  0.50479200  1
  H  H3  1  0.82474600  0.30219300  0.37387000  1
  H  H4  1  0.18644400  0.67326700  0.62279300  1
  H  H5  1  0.92721200  0.11830000  0.40026900  1
  H  H6  1  0.07816200  0.85698800  0.61431200  1
  H  H7  1  0.20354500  0.26580000  0.56682500  1
  H  H8  1  0.79972400  0.72052300  0.44300900  1
  H  H9  1  0.53822400  0.62669600  0.16035000  1
  H  H10  1  0.48631100  0.34703100  0.82902100  1
  H  H11  1  0.46129200  0.27949700  0.17868100  1
  H  H12  1  0.54948700  0.69802000  0.81061900  1
  H  H13  1  0.55304900  0.71212500  0.99730000  1
  H  H14  1  0.46698000  0.26297500  0.99214200  1
  H  H15  1  0.41140100  0.17766700  0.39437800  1
  H  H16  1  0.59155900  0.80179100  0.59653000  1
  H  H17  1  0.21690400  0.09801200  0.16963200  1
  H  H18  1  0.07664700  0.11738100  0.24167200  1
  H  H19  1  0.10917800  0.98989600  0.16526300  1
  H  H20  1  0.77644800  0.88827100  0.82969800  1
  H  H21  1  0.64363500  0.89988500  0.91202800  1
  H  H22  1  0.74425100  0.01389000  0.90935900  1
  H  H23  1  0.78031400  0.31572400  0.78500600  1
  H  H24  1  0.92411400  0.28922200  0.71851000  1
  H  H25  1  0.88119600  0.19390200  0.81667900  1
  H  H26  1  0.18489500  0.68214400  0.22362900  1
  H  H27  1  0.28787600  0.66236800  0.11575800  1
  H  H28  1  0.18966100  0.79043100  0.12827800  1
  C  C1  1  0.51497400  0.51139900  0.69452600  1
  C  C2  1  0.49274200  0.46683200  0.29467300  1
  C  C3  1  0.74190600  0.49313100  0.47946700  1
  C  C4  1  0.26456400  0.48596200  0.51103100  1
  C  C5  1  0.90582300  0.29759800  0.42039600  1
  C  C6  1  0.10290200  0.68023000  0.57952000  1
  C  C7  1  0.96564500  0.19291100  0.43162800  1
  C  C8  1  0.04020200  0.78454600  0.57831500  1
  C  C9  1  0.07059600  0.18315100  0.48769800  1
  C  C10  1  0.93212300  0.79707900  0.52705100  1
  C  C11  1  0.12380500  0.27874300  0.51978500  1
  C  C12  1  0.88057400  0.70344500  0.48762400  1
  C  C13  1  0.06942700  0.38603200  0.50076600  1
  C  C14  1  0.93683600  0.59479100  0.49809100  1
  C  C15  1  0.95008500  0.39360900  0.46586000  1
  C  C16  1  0.05728300  0.58650700  0.53103000  1
  C  C17  1  0.12865900  0.48448400  0.52115400  1
  C  C18  1  0.87831800  0.49597100  0.47338900  1
  C  C19  1  0.49614900  0.45534200  0.18254100  1
  C  C20  1  0.51806500  0.52142600  0.80666400  1
  C  C21  1  0.53844000  0.63177100  0.96036000  1
  C  C22  1  0.48167300  0.34338600  0.02896600  1
  C  C23  1  0.53600000  0.62379100  0.85477300  1
  C  C24  1  0.47872300  0.35277300  0.13452900  1
  C  C25  1  0.50171300  0.42755300  0.86521100  1
  C  C26  1  0.51981400  0.54719300  0.12399400  1
  C  C27  1  0.50141200  0.43638700  0.97082100  1
  C  C28  1  0.52031700  0.53832500  0.01840300  1
  C  C29  1  0.39952600  0.95434300  0.39070700  1
  C  C30  1  0.60110500  0.02510500  0.60071200  1
  C  C31  1  0.40464800  0.83637000  0.39852600  1
  C  C32  1  0.60272800  0.14181500  0.58880000  1
  C  C33  1  0.53739300  0.84598100  0.53894300  1
  C  C34  1  0.46698600  0.13291800  0.45072500  1
  C  C35  1  0.53712300  0.96220000  0.53149100  1
  C  C36  1  0.46918300  0.01628100  0.45649200  1
  C  C37  1  0.21128400  0.99893400  0.30390200  1
  C  C38  1  0.14953200  0.05452700  0.21459200  1
  C  C39  1  0.62996200  0.00066100  0.77845200  1
  C  C40  1  0.70325300  0.94726000  0.86275800  1
  C  C41  1  0.78684400  0.17992900  0.67482700  1
  C  C42  1  0.84695200  0.24910700  0.75378500  1
  C  C43  1  0.33990100  0.77972700  0.23172600  1
  C  C44  1  0.24478500  0.72514000  0.17105300  1
  N  N1  1  0.53313600  0.19319000  0.51585300  1
  N  N2  1  0.47253500  0.78542100  0.47310000  1
  O  O1  1  0.52221800  0.40959900  0.65336100  1
  O  O2  1  0.48442700  0.56871900  0.33587700  1
  O  O3  1  0.50274400  0.60334100  0.63989100  1
  O  O4  1  0.50408900  0.37535900  0.34945300  1
  O  O5  1  0.69384600  0.39561400  0.49256700  1
  O  O6  1  0.31240500  0.58309400  0.49713300  1
  O  O7  1  0.67271800  0.58798800  0.47802600  1
  O  O8  1  0.33339800  0.39075600  0.51136100  1
  O  O9  1  0.33094200  0.01061700  0.31960100  1
  O  O10  1  0.15349800  0.94438400  0.36239100  1
  O  O11  1  0.65756000  0.97224400  0.67999400  1
  O  O12  1  0.54313100  0.06711400  0.79884500  1
  O  O13  1  0.66898000  0.20608700  0.65082700  1
  O  O14  1  0.84578100  0.10326300  0.62961400  1
  O  O15  1  0.34118800  0.77129800  0.33488100  1
  O  O16  1  0.41618500  0.83083800  0.18805300  1
