# generated using pymatgen
data_Zn3H23C46Br5O12
_symmetry_space_group_name_H-M   'P 1'
_cell_length_a   37.77512800
_cell_length_b   21.95428500
_cell_length_c   21.89953600
_cell_angle_alpha   90.00000000
_cell_angle_beta   122.34428700
_cell_angle_gamma   90.00000000
_symmetry_Int_Tables_number   1
_chemical_formula_structural   Zn3H23C46Br5O12
_chemical_formula_sum   'Zn12 H92 C184 Br20 O48'
_cell_volume   15344.01516729
_cell_formula_units_Z   4
loop_
 _symmetry_equiv_pos_site_id
 _symmetry_equiv_pos_as_xyz
  1  'x, y, z'
loop_
 _atom_site_type_symbol
 _atom_site_label
 _atom_site_symmetry_multiplicity
 _atom_site_fract_x
 _atom_site_fract_y
 _atom_site_fract_z
 _atom_site_occupancy
  Zn  Zn1  1  0.99991900  0.93305700  0.99994900  1
  Zn  Zn2  1  0.49991900  0.43305700  0.99994900  1
  Zn  Zn3  1  0.00018200  0.07104900  0.00028200  1
  Zn  Zn4  1  0.50018200  0.57104900  0.00028200  1
  Zn  Zn5  1  0.49734300  0.99844200  0.56663300  1
  Zn  Zn6  1  0.50282600  0.99844900  0.43366900  1
  Zn  Zn7  1  0.99734300  0.49844200  0.56663300  1
  Zn  Zn8  1  0.00282600  0.49844900  0.43366900  1
  Zn  Zn9  1  0.95263400  0.99853800  0.45761000  1
  Zn  Zn10  1  0.04746800  0.99893800  0.54224400  1
  Zn  Zn11  1  0.45263400  0.49853800  0.45761000  1
  Zn  Zn12  1  0.54746800  0.49893800  0.54224400  1
  H  H1  1  0.27789300  0.94965900  0.36049300  1
  H  H2  1  0.72256700  0.94994400  0.64022600  1
  H  H3  1  0.77789300  0.44965900  0.36049300  1
  H  H4  1  0.22256700  0.44994400  0.64022600  1
  H  H5  1  0.20861600  0.93328000  0.27889200  1
  H  H6  1  0.79194200  0.93449700  0.72198800  1
  H  H7  1  0.70861600  0.43328000  0.27889200  1
  H  H8  1  0.29194200  0.43449700  0.72198800  1
  H  H9  1  0.21605200  0.04324100  0.30194000  1
  H  H10  1  0.78379200  0.04429300  0.69795000  1
  H  H11  1  0.71605200  0.54324100  0.30194000  1
  H  H12  1  0.28379200  0.54429300  0.69795000  1
  H  H13  1  0.28542000  0.06187800  0.36107500  1
  H  H14  1  0.71431400  0.06208600  0.63871600  1
  H  H15  1  0.78542000  0.56187800  0.36107500  1
  H  H16  1  0.21431400  0.56208600  0.63871600  1
  H  H17  1  0.28134700  0.09843900  0.28412000  1
  H  H18  1  0.71818500  0.09885200  0.71540300  1
  H  H19  1  0.78134700  0.59843900  0.28412000  1
  H  H20  1  0.21818500  0.59885200  0.71540300  1
  H  H21  1  0.21558500  0.97098500  0.11956700  1
  H  H22  1  0.78474700  0.97261900  0.88099700  1
  H  H23  1  0.71558500  0.47098500  0.11956700  1
  H  H24  1  0.28474700  0.47261900  0.88099700  1
  H  H25  1  0.22266900  0.05156300  0.13635900  1
  H  H26  1  0.77711900  0.05306100  0.86344300  1
  H  H27  1  0.72266900  0.55156300  0.13635900  1
  H  H28  1  0.27711900  0.55306100  0.86344300  1
  H  H29  1  0.28394800  0.95080800  0.19863400  1
  H  H30  1  0.71652500  0.95139900  0.80208800  1
  H  H31  1  0.78394800  0.45080800  0.19863400  1
  H  H32  1  0.21652500  0.45139900  0.80208800  1
  H  H33  1  0.21851400  0.90313200  0.21267800  1
  H  H34  1  0.78222000  0.90444800  0.78845200  1
  H  H35  1  0.71851400  0.40313200  0.21267800  1
  H  H36  1  0.28222000  0.40444800  0.78845200  1
  H  H37  1  0.28736700  0.90293100  0.30279800  1
  H  H38  1  0.71337700  0.90324400  0.69829000  1
  H  H39  1  0.78736700  0.40293100  0.30279800  1
  H  H40  1  0.21337700  0.40324400  0.69829000  1
  H  H41  1  0.89224600  0.85989600  0.09437700  1
  H  H42  1  0.10867600  0.86301200  0.90743400  1
  H  H43  1  0.39224600  0.35989600  0.09437700  1
  H  H44  1  0.60867600  0.36301200  0.90743400  1
  H  H45  1  0.06143200  0.06867000  0.19852200  1
  H  H46  1  0.93773000  0.06953000  0.79968500  1
  H  H47  1  0.56143200  0.56867000  0.19852200  1
  H  H48  1  0.43773000  0.56953000  0.79968500  1
  H  H49  1  0.03932200  0.09554100  0.39748800  1
  H  H50  1  0.96155200  0.09702500  0.60283000  1
  H  H51  1  0.53932200  0.59554100  0.39748800  1
  H  H52  1  0.46155200  0.59702500  0.60283000  1
  H  H53  1  0.95201700  0.90480300  0.31497500  1
  H  H54  1  0.04738400  0.90419800  0.68564900  1
  H  H55  1  0.45201700  0.40480300  0.31497500  1
  H  H56  1  0.54738400  0.40419800  0.68564900  1
  H  H57  1  0.90291400  0.84374500  0.21392200  1
  H  H58  1  0.09704600  0.84443700  0.78758500  1
  H  H59  1  0.40291400  0.34374500  0.21392200  1
  H  H60  1  0.59704600  0.34443700  0.78758500  1
  H  H61  1  0.93283500  0.93405500  0.07754600  1
  H  H62  1  0.06830400  0.93802000  0.92363900  1
  H  H63  1  0.43283500  0.43405500  0.07754600  1
  H  H64  1  0.56830400  0.43802000  0.92363900  1
  H  H65  1  0.59497200  0.80067100  0.74326800  1
  H  H66  1  0.40385000  0.80333400  0.25785600  1
  H  H67  1  0.09497200  0.30067100  0.74326800  1
  H  H68  1  0.90385000  0.30333400  0.25785600  1
  H  H69  1  0.43954400  0.85804000  0.36982700  1
  H  H70  1  0.55980600  0.85656200  0.63210900  1
  H  H71  1  0.93954400  0.35804000  0.36982700  1
  H  H72  1  0.05980600  0.35656200  0.63210900  1
  H  H73  1  0.96022800  0.13859800  0.36417400  1
  H  H74  1  0.03776900  0.13718700  0.63434400  1
  H  H75  1  0.46022800  0.63859800  0.36417400  1
  H  H76  1  0.53776900  0.63718700  0.63434400  1
  H  H77  1  0.39063700  0.19476500  0.53074700  1
  H  H78  1  0.61064400  0.19445500  0.46911900  1
  H  H79  1  0.89063700  0.69476500  0.53074700  1
  H  H80  1  0.11064400  0.69445500  0.46911900  1
  H  H81  1  0.56809000  0.13970300  0.50127400  1
  H  H82  1  0.43283200  0.14003800  0.49779000  1
  H  H83  1  0.06809000  0.63970300  0.50127400  1
  H  H84  1  0.93283200  0.64003800  0.49779000  1
  H  H85  1  0.09905700  0.80341500  0.44045100  1
  H  H86  1  0.90284300  0.80345100  0.56077100  1
  H  H87  1  0.59905700  0.30341500  0.44045100  1
  H  H88  1  0.40284300  0.30345100  0.56077100  1
  H  H89  1  0.04724000  0.85805300  0.44980100  1
  H  H90  1  0.95493300  0.85790100  0.55199000  1
  H  H91  1  0.54724000  0.35805300  0.44980100  1
  H  H92  1  0.45493300  0.35790100  0.55199000  1
  C  C1  1  0.99745200  0.00081900  0.11726600  1
  C  C2  1  0.00263900  0.00327600  0.88287300  1
  C  C3  1  0.49745200  0.50081900  0.11726600  1
  C  C4  1  0.50263900  0.50327600  0.88287300  1
  C  C5  1  0.08198200  0.00075400  0.07973700  1
  C  C6  1  0.91815100  0.00334000  0.92054700  1
  C  C7  1  0.58198200  0.50075400  0.07973700  1
  C  C8  1  0.41815100  0.50334000  0.92054700  1
  C  C9  1  0.22523200  0.94135700  0.25050000  1
  C  C10  1  0.77526900  0.94248800  0.75029700  1
  C  C11  1  0.72523200  0.44135700  0.25050000  1
  C  C12  1  0.27526900  0.44248800  0.75029700  1
  C  C13  1  0.22521200  0.05280900  0.26249200  1
  C  C14  1  0.77459000  0.05389400  0.73733500  1
  C  C15  1  0.72521200  0.55280900  0.26249200  1
  C  C16  1  0.27459000  0.55389400  0.73733500  1
  C  C17  1  0.27248200  0.05741000  0.30236100  1
  C  C18  1  0.72729400  0.05788400  0.69746900  1
  C  C19  1  0.77248200  0.55741000  0.30236100  1
  C  C20  1  0.22729400  0.55788400  0.69746900  1
  C  C21  1  0.37323200  0.99922400  0.37322700  1
  C  C22  1  0.62690400  0.99863400  0.62706700  1
  C  C23  1  0.87323200  0.49922400  0.37322700  1
  C  C24  1  0.12690400  0.49863400  0.62706700  1
  C  C25  1  0.21051300  0.00069500  0.20863800  1
  C  C26  1  0.78961800  0.00210300  0.79164500  1
  C  C27  1  0.71051300  0.50069500  0.20863800  1
  C  C28  1  0.28961800  0.50210300  0.79164500  1
  C  C29  1  0.27203800  0.94507200  0.30538900  1
  C  C30  1  0.72844200  0.94554800  0.69536200  1
  C  C31  1  0.77203800  0.44507200  0.30538900  1
  C  C32  1  0.22844200  0.44554800  0.69536200  1
  C  C33  1  0.28968000  0.00004500  0.28851000  1
  C  C34  1  0.71045300  0.00036100  0.71178800  1
  C  C35  1  0.78968000  0.50004500  0.28851000  1
  C  C36  1  0.21045300  0.50036100  0.71178800  1
  C  C37  1  0.27621700  0.99661000  0.20964200  1
  C  C38  1  0.72394400  0.99726800  0.79068600  1
  C  C39  1  0.77621700  0.49661000  0.20964200  1
  C  C40  1  0.22394400  0.49726800  0.79068600  1
  C  C41  1  0.22931500  0.00624500  0.16246400  1
  C  C42  1  0.77077900  0.00758600  0.83776900  1
  C  C43  1  0.72931500  0.50624500  0.16246400  1
  C  C44  1  0.27077900  0.50758600  0.83776900  1
  C  C45  1  0.33550800  0.99962900  0.33492300  1
  C  C46  1  0.66462800  0.99936300  0.66537800  1
  C  C47  1  0.83550800  0.49962900  0.33492300  1
  C  C48  1  0.16462800  0.49936300  0.66537800  1
  C  C49  1  0.16468500  0.00086100  0.16235900  1
  C  C50  1  0.83544500  0.00287300  0.83792200  1
  C  C51  1  0.66468500  0.50086100  0.16235900  1
  C  C52  1  0.33544500  0.50287300  0.83792200  1
  C  C53  1  0.12694700  0.00079900  0.12445700  1
  C  C54  1  0.87318400  0.00318100  0.87582600  1
  C  C55  1  0.62694700  0.50079900  0.12445700  1
  C  C56  1  0.37318400  0.50318100  0.87582600  1
  C  C57  1  0.05439000  0.07354900  0.23988400  1
  C  C58  1  0.94519200  0.07463700  0.75887500  1
  C  C59  1  0.55439000  0.57354900  0.23988400  1
  C  C60  1  0.44519200  0.57463700  0.75887500  1
  C  C61  1  0.07784500  0.11541000  0.29327200  1
  C  C62  1  0.92187400  0.11643100  0.70531600  1
  C  C63  1  0.57784500  0.61541000  0.29327200  1
  C  C64  1  0.42187400  0.61643100  0.70531600  1
  C  C65  1  0.07119400  0.12362700  0.34838300  1
  C  C66  1  0.92905200  0.12488200  0.65085700  1
  C  C67  1  0.57119400  0.62362700  0.34838300  1
  C  C68  1  0.42905200  0.62488200  0.65085700  1
  C  C69  1  0.04336500  0.08683300  0.35313300  1
  C  C70  1  0.95709600  0.08813600  0.64668300  1
  C  C71  1  0.54336500  0.58683300  0.35313300  1
  C  C72  1  0.45709600  0.58813600  0.64668300  1
  C  C73  1  0.02124100  0.04171100  0.30179200  1
  C  C74  1  0.97894300  0.04287900  0.69799600  1
  C  C75  1  0.52124100  0.54171100  0.30179200  1
  C  C76  1  0.47894300  0.54287900  0.69799600  1
  C  C77  1  0.02396500  0.03882600  0.24128600  1
  C  C78  1  0.97598200  0.04020400  0.75827100  1
  C  C79  1  0.52396500  0.53882600  0.24128600  1
  C  C80  1  0.47598200  0.54020400  0.75827100  1
  C  C81  1  0.99653500  0.99987100  0.31033500  1
  C  C82  1  0.00356400  0.00067000  0.68967300  1
  C  C83  1  0.49653500  0.49987100  0.31033500  1
  C  C84  1  0.50356400  0.50067000  0.68967300  1
  C  C85  1  0.97148800  0.95911900  0.25496000  1
  C  C86  1  0.02857600  0.96017300  0.74543300  1
  C  C87  1  0.47148800  0.45911900  0.25496000  1
  C  C88  1  0.52857600  0.46017300  0.74543300  1
  C  C89  1  0.96924400  0.96299400  0.18983400  1
  C  C90  1  0.03106400  0.96497000  0.81070600  1
  C  C91  1  0.46924400  0.46299400  0.18983400  1
  C  C92  1  0.53106400  0.46497000  0.81070600  1
  C  C93  1  0.99679000  0.00101700  0.18378000  1
  C  C94  1  0.00332300  0.00295000  0.81631600  1
  C  C95  1  0.49679000  0.50101700  0.18378000  1
  C  C96  1  0.50332300  0.50295000  0.81631600  1
  C  C97  1  0.94866400  0.91402600  0.26379100  1
  C  C98  1  0.05116900  0.91447000  0.73694600  1
  C  C99  1  0.44866400  0.41402600  0.26379100  1
  C  C100  1  0.55116900  0.41447000  0.73694600  1
  C  C101  1  0.92086700  0.87804000  0.20662700  1
  C  C102  1  0.07924200  0.87916700  0.79461700  1
  C  C103  1  0.42086700  0.37804000  0.20662700  1
  C  C104  1  0.57924200  0.37916700  0.79461700  1
  C  C105  1  0.91511800  0.88677200  0.13995700  1
  C  C106  1  0.08551300  0.88923000  0.86145000  1
  C  C107  1  0.41511800  0.38677200  0.13995700  1
  C  C108  1  0.58551300  0.38923000  0.86145000  1
  C  C109  1  0.93914000  0.92871300  0.13141100  1
  C  C110  1  0.06157800  0.93158200  0.86964400  1
  C  C111  1  0.43914000  0.42871300  0.13141100  1
  C  C112  1  0.56157800  0.43158200  0.86964400  1
  C  C113  1  0.49982400  0.87898500  0.50107400  1
  C  C114  1  0.99982400  0.37898500  0.50107400  1
  C  C115  1  0.41817200  0.99882200  0.41872400  1
  C  C116  1  0.58196300  0.99810800  0.58154500  1
  C  C117  1  0.91817200  0.49882200  0.41872400  1
  C  C118  1  0.08196300  0.49810800  0.58154500  1
  C  C119  1  0.50036100  0.11795400  0.49925100  1
  C  C120  1  0.00036100  0.61795400  0.49925100  1
  C  C121  1  0.00096600  0.87938400  0.50069200  1
  C  C122  1  0.50096600  0.37938400  0.50069200  1
  C  C123  1  0.99717200  0.99872000  0.37788600  1
  C  C124  1  0.00291700  0.99896200  0.62205900  1
  C  C125  1  0.49717200  0.49872000  0.37788600  1
  C  C126  1  0.50291700  0.49896200  0.62205900  1
  C  C127  1  0.99914300  0.11801600  0.49914600  1
  C  C128  1  0.49914300  0.61801600  0.49914600  1
  C  C129  1  0.44635100  0.81017000  0.37183400  1
  C  C130  1  0.55270900  0.80874100  0.62934300  1
  C  C131  1  0.94635100  0.31017000  0.37183400  1
  C  C132  1  0.05270900  0.30874100  0.62934300  1
  C  C133  1  0.42501400  0.77916100  0.30734100  1
  C  C134  1  0.57374500  0.77704800  0.69338100  1
  C  C135  1  0.92501400  0.27916100  0.30734100  1
  C  C136  1  0.07374500  0.27704800  0.69338100  1
  C  C137  1  0.93123500  0.21787000  0.30560400  1
  C  C138  1  0.06713100  0.21577500  0.69414600  1
  C  C139  1  0.43123500  0.71787000  0.30560400  1
  C  C140  1  0.56713100  0.71577500  0.69414600  1
  C  C141  1  0.95657800  0.18674300  0.36888800  1
  C  C142  1  0.04171600  0.18535100  0.63036000  1
  C  C143  1  0.45657800  0.68674300  0.36888800  1
  C  C144  1  0.54171600  0.68535100  0.63036000  1
  C  C145  1  0.97677000  0.21700900  0.43498700  1
  C  C146  1  0.02179200  0.21631400  0.56471600  1
  C  C147  1  0.47677000  0.71700900  0.43498700  1
  C  C148  1  0.52179200  0.71631400  0.56471600  1
  C  C149  1  0.47442200  0.78001100  0.43594800  1
  C  C150  1  0.52453100  0.77930500  0.56473200  1
  C  C151  1  0.97442200  0.28001100  0.43594800  1
  C  C152  1  0.02453100  0.27930500  0.56473200  1
  C  C153  1  0.99921800  0.18491800  0.49960300  1
  C  C154  1  0.49921800  0.68491800  0.49960300  1
  C  C155  1  0.49960700  0.81173900  0.50057400  1
  C  C156  1  0.99960700  0.31173900  0.50057400  1
  C  C157  1  0.56131300  0.18737200  0.48878300  1
  C  C158  1  0.43987800  0.18758000  0.51086500  1
  C  C159  1  0.06131300  0.68737200  0.48878300  1
  C  C160  1  0.93987800  0.68758000  0.51086500  1
  C  C161  1  0.58651500  0.21841200  0.47181000  1
  C  C162  1  0.41487900  0.21862100  0.52829700  1
  C  C163  1  0.08651500  0.71841200  0.47181000  1
  C  C164  1  0.91487900  0.71862100  0.52829700  1
  C  C165  1  0.08027300  0.77936400  0.45636300  1
  C  C166  1  0.92146700  0.77942600  0.54450100  1
  C  C167  1  0.58027300  0.27936400  0.45636300  1
  C  C168  1  0.42146700  0.27942600  0.54450100  1
  C  C169  1  0.05097900  0.81029800  0.46324600  1
  C  C170  1  0.95090600  0.81026400  0.53793400  1
  C  C171  1  0.55097900  0.31029800  0.46324600  1
  C  C172  1  0.45090600  0.31026400  0.53793400  1
  C  C173  1  0.02709300  0.78023800  0.48507500  1
  C  C174  1  0.97459600  0.78024300  0.51566900  1
  C  C175  1  0.52709300  0.28023800  0.48507500  1
  C  C176  1  0.47459600  0.28024300  0.51566900  1
  C  C177  1  0.52952200  0.21726200  0.49109900  1
  C  C178  1  0.47181200  0.21732800  0.50885500  1
  C  C179  1  0.02952200  0.71726200  0.49109900  1
  C  C180  1  0.97181200  0.71732800  0.50885500  1
  C  C181  1  0.00091300  0.81223000  0.50053100  1
  C  C182  1  0.50091300  0.31223000  0.50053100  1
  C  C183  1  0.50056100  0.18521200  0.49973000  1
  C  C184  1  0.00056100  0.68521200  0.49973000  1
  Br  Br1  1  0.30500600  0.05658900  0.18679700  1
  Br  Br2  1  0.69475500  0.05694400  0.81303000  1
  Br  Br3  1  0.80500600  0.55658900  0.18679700  1
  Br  Br4  1  0.19475500  0.55694400  0.81303000  1
  Br  Br5  1  0.11862200  0.16329700  0.28923300  1
  Br  Br6  1  0.88064300  0.16400300  0.70834800  1
  Br  Br7  1  0.61862200  0.66329700  0.28923300  1
  Br  Br8  1  0.38064300  0.66400300  0.70834800  1
  Br  Br9  1  0.10167100  0.18428900  0.42009700  1
  Br  Br10  1  0.89892600  0.18564700  0.57909300  1
  Br  Br11  1  0.60167100  0.68428900  0.42009700  1
  Br  Br12  1  0.39892600  0.68564700  0.57909300  1
  Br  Br13  1  0.90354000  0.17522100  0.21590100  1
  Br  Br14  1  0.09434800  0.17215500  0.78318800  1
  Br  Br15  1  0.40354000  0.67522100  0.21590100  1
  Br  Br16  1  0.59434800  0.67215500  0.78318800  1
  Br  Br17  1  0.19990400  0.12933100  0.21520600  1
  Br  Br18  1  0.79944000  0.13081100  0.78394000  1
  Br  Br19  1  0.69990400  0.62933100  0.21520600  1
  Br  Br20  1  0.29944000  0.63081100  0.78394000  1
  O  O1  1  0.99957200  0.94825300  0.09087400  1
  O  O2  1  0.00199200  0.95085700  0.91111600  1
  O  O3  1  0.49957200  0.44825300  0.09087400  1
  O  O4  1  0.50199200  0.45085700  0.91111600  1
  O  O5  1  0.99647000  0.05321100  0.08749000  1
  O  O6  1  0.00225100  0.05587200  0.91098900  1
  O  O7  1  0.49647000  0.55321100  0.08749000  1
  O  O8  1  0.50225100  0.55587200  0.91098900  1
  O  O9  1  0.06250700  0.94814500  0.06101100  1
  O  O10  1  0.93760900  0.95079600  0.94191900  1
  O  O11  1  0.56250700  0.44814500  0.06101100  1
  O  O12  1  0.43760900  0.45079600  0.94191900  1
  O  O13  1  0.06247400  0.05335300  0.06046000  1
  O  O14  1  0.93767100  0.05590900  0.93707200  1
  O  O15  1  0.56247400  0.55335300  0.06046000  1
  O  O16  1  0.43767100  0.55590900  0.93707200  1
  O  O17  1  0.49605400  0.90748700  0.55002700  1
  O  O18  1  0.50364400  0.90791900  0.45237700  1
  O  O19  1  0.99605400  0.40748700  0.55002700  1
  O  O20  1  0.00364400  0.40791900  0.45237700  1
  O  O21  1  0.43543900  0.99841700  0.48899400  1
  O  O22  1  0.56470200  0.00071800  0.51133200  1
  O  O23  1  0.93543900  0.49841700  0.48899400  1
  O  O24  1  0.06470200  0.50071800  0.51133200  1
  O  O25  1  0.43986100  0.99900800  0.38785100  1
  O  O26  1  0.56027600  0.99567000  0.61237300  1
  O  O27  1  0.93986100  0.49900800  0.38785100  1
  O  O28  1  0.06027600  0.49567000  0.61237300  1
  O  O29  1  0.49820200  0.08900600  0.54967900  1
  O  O30  1  0.50238600  0.08945200  0.44847500  1
  O  O31  1  0.99820200  0.58900600  0.54967900  1
  O  O32  1  0.00238600  0.58945200  0.44847500  1
  O  O33  1  0.96487600  0.90806500  0.46524100  1
  O  O34  1  0.03706200  0.90799800  0.53631100  1
  O  O35  1  0.46487600  0.40806500  0.46524100  1
  O  O36  1  0.53706200  0.40799800  0.53631100  1
  O  O37  1  0.96141000  0.00149100  0.37419900  1
  O  O38  1  0.03871100  0.99961900  0.62572400  1
  O  O39  1  0.46141000  0.50149100  0.37419900  1
  O  O40  1  0.53871100  0.49961900  0.62572400  1
  O  O41  1  0.03359000  0.99603400  0.43922900  1
  O  O42  1  0.96647600  0.99809600  0.56064600  1
  O  O43  1  0.53359000  0.49603400  0.43922900  1
  O  O44  1  0.46647600  0.49809600  0.56064600  1
  O  O45  1  0.96295900  0.08956700  0.46698900  1
  O  O46  1  0.03531000  0.08950100  0.53123200  1
  O  O47  1  0.46295900  0.58956700  0.46698900  1
  O  O48  1  0.53531000  0.58950100  0.53123200  1
