# generated using pymatgen
data_CuH9C23N5O4F9
_symmetry_space_group_name_H-M   'P 1'
_cell_length_a   15.54244400
_cell_length_b   17.03738100
_cell_length_c   19.23961200
_cell_angle_alpha   90.00816600
_cell_angle_beta   92.77925000
_cell_angle_gamma   96.34330100
_symmetry_Int_Tables_number   1
_chemical_formula_structural   CuH9C23N5O4F9
_chemical_formula_sum   'Cu2 H18 C46 N10 O8 F18'
_cell_volume   5057.47356311
_cell_formula_units_Z   2
loop_
 _symmetry_equiv_pos_site_id
 _symmetry_equiv_pos_as_xyz
  1  'x, y, z'
loop_
 _atom_site_type_symbol
 _atom_site_label
 _atom_site_symmetry_multiplicity
 _atom_site_fract_x
 _atom_site_fract_y
 _atom_site_fract_z
 _atom_site_occupancy
  Cu  Cu1  1  0.41390700  0.49912300  0.49459200  1
  Cu  Cu2  1  0.58609000  0.50106500  0.50516300  1
  H  H1  1  0.36908700  0.50106000  0.27275500  1
  H  H2  1  0.63064000  0.49894600  0.72633000  1
  H  H3  1  0.37294300  0.49997000  0.14775500  1
  H  H4  1  0.62686200  0.49973100  0.85145300  1
  H  H5  1  0.64430100  0.51377300  0.29079300  1
  H  H6  1  0.35538900  0.48621200  0.70851700  1
  H  H7  1  0.39359500  0.73484500  0.53841600  1
  H  H8  1  0.60613100  0.26499100  0.46038200  1
  H  H9  1  0.34687100  0.08887600  0.51260100  1
  H  H10  1  0.65337200  0.91124500  0.48812300  1
  H  H11  1  0.28258300  0.56609400  0.57797800  1
  H  H12  1  0.71800300  0.43166000  0.42375200  1
  H  H13  1  0.12687400  0.56055700  0.57554700  1
  H  H14  1  0.87417400  0.43721100  0.42734200  1
  H  H15  1  0.88641600  0.58431400  0.60905800  1
  H  H16  1  0.11276900  0.41822200  0.39078300  1
  H  H17  1  0.72856800  0.57684000  0.60157500  1
  H  H18  1  0.27101600  0.42550700  0.39723900  1
  C  C1  1  0.48322100  0.34771400  0.49514400  1
  C  C2  1  0.51681500  0.65237100  0.50471300  1
  C  C3  1  0.50479100  0.50534000  0.36643900  1
  C  C4  1  0.49511200  0.49455200  0.63320800  1
  C  C5  1  0.43130600  0.50410600  0.24960100  1
  C  C6  1  0.56848100  0.49562800  0.74963500  1
  C  C7  1  0.43357600  0.50393300  0.17822500  1
  C  C8  1  0.56625900  0.49558700  0.82096400  1
  C  C9  1  0.51125700  0.50622000  0.14580000  1
  C  C10  1  0.48858000  0.49304900  0.85339800  1
  C  C11  1  0.58872700  0.51162900  0.18651100  1
  C  C12  1  0.41099600  0.48762700  0.81278900  1
  C  C13  1  0.58541200  0.51120300  0.25850200  1
  C  C14  1  0.41428000  0.48828900  0.74083900  1
  C  C15  1  0.50721100  0.50699600  0.29021900  1
  C  C16  1  0.49253600  0.49258800  0.70922900  1
  C  C17  1  0.49288100  0.49549600  0.92993600  1
  C  C18  1  0.50718200  0.50402400  0.06918300  1
  C  C19  1  0.47615800  0.26023500  0.49155300  1
  C  C20  1  0.52396800  0.73974000  0.50836000  1
  C  C21  1  0.54899600  0.22660100  0.47260800  1
  C  C22  1  0.45088000  0.77326800  0.52675500  1
  C  C23  1  0.54989100  0.14551400  0.46794800  1
  C  C24  1  0.44977000  0.85432400  0.53116900  1
  C  C25  1  0.47601400  0.09663200  0.48418900  1
  C  C26  1  0.52379000  0.90332000  0.51544100  1
  C  C27  1  0.40297200  0.12945600  0.50179100  1
  C  C28  1  0.59715300  0.87060500  0.49845400  1
  C  C29  1  0.40167600  0.21053700  0.50684200  1
  C  C30  1  0.59860400  0.78951300  0.49341400  1
  C  C31  1  0.75559000  0.46511300  0.46470200  1
  C  C32  1  0.24487300  0.53392800  0.53632200  1
  C  C33  1  0.84485200  0.46847200  0.46725100  1
  C  C34  1  0.15569500  0.53045500  0.53459500  1
  C  C35  1  0.89309000  0.51160200  0.51963600  1
  C  C36  1  0.10708600  0.48893100  0.48155600  1
  C  C37  1  0.85019900  0.54986400  0.56805300  1
  C  C38  1  0.14950400  0.45156700  0.43218700  1
  C  C39  1  0.76107600  0.54542400  0.56372400  1
  C  C40  1  0.23863100  0.45609300  0.43570900  1
  C  C41  1  0.67600500  0.52173000  0.15517300  1
  C  C42  1  0.32374400  0.47808200  0.84420400  1
  C  C43  1  0.37075500  0.88645800  0.55702500  1
  C  C44  1  0.62879600  0.11309300  0.44205800  1
  C  C45  1  0.32105700  0.24103100  0.53132800  1
  C  C46  1  0.67955200  0.75913500  0.46935500  1
  N  N1  1  0.56097400  0.46366200  0.03407800  1
  N  N2  1  0.43919900  0.53594600  0.96499700  1
  N  N3  1  0.55440900  0.46001900  0.96538800  1
  N  N4  1  0.44574100  0.53958700  0.03370000  1
  N  N5  1  0.47114300  0.01325600  0.48104800  1
  N  N6  1  0.52851400  0.98667700  0.51858300  1
  N  N7  1  0.71499600  0.50223700  0.51316800  1
  N  N8  1  0.28505000  0.49814200  0.48666400  1
  N  N9  1  0.98468700  0.51805000  0.52465600  1
  N  N10  1  0.01551100  0.48255300  0.47691300  1
  O  O1  1  0.41352900  0.38465300  0.48871300  1
  O  O2  1  0.58638300  0.61542900  0.51103900  1
  O  O3  1  0.56111700  0.38603500  0.50283700  1
  O  O4  1  0.43899500  0.61405200  0.49697800  1
  O  O5  1  0.42937100  0.50066300  0.39442700  1
  O  O6  1  0.57060300  0.49943700  0.60532200  1
  O  O7  1  0.57786000  0.50770200  0.40379100  1
  O  O8  1  0.42209000  0.49232800  0.59594900  1
  F  F1  1  0.74042200  0.54545700  0.20524600  1
  F  F2  1  0.67773700  0.57907800  0.10432000  1
  F  F3  1  0.69367900  0.45092400  0.12709500  1
  F  F4  1  0.25915700  0.45443700  0.79431400  1
  F  F5  1  0.30666000  0.54922400  0.87199100  1
  F  F6  1  0.32166300  0.42105000  0.89541100  1
  F  F7  1  0.39507100  0.94513900  0.60599200  1
  F  F8  1  0.31748900  0.82767400  0.58808500  1
  F  F9  1  0.32434800  0.91654800  0.50202300  1
  F  F10  1  0.67514400  0.08312400  0.49716100  1
  F  F11  1  0.68216900  0.17162300  0.41081800  1
  F  F12  1  0.60439700  0.05416100  0.39328700  1
  F  F13  1  0.26359800  0.17986100  0.55412900  1
  F  F14  1  0.28021100  0.27814200  0.47724700  1
  F  F15  1  0.34191000  0.29295500  0.58635600  1
  F  F16  1  0.73724200  0.82040300  0.44698800  1
  F  F17  1  0.65925100  0.70733500  0.41414500  1
  F  F18  1  0.71990400  0.72189500  0.52361900  1
