# generated using pymatgen
data_Cu2H27C49N5O11
_symmetry_space_group_name_H-M   'P 1'
_cell_length_a   12.16523400
_cell_length_b   13.43372200
_cell_length_c   14.99359700
_cell_angle_alpha   78.71588300
_cell_angle_beta   102.28631400
_cell_angle_gamma   116.27203000
_symmetry_Int_Tables_number   1
_chemical_formula_structural   Cu2H27C49N5O11
_chemical_formula_sum   'Cu2 H27 C49 N5 O11'
_cell_volume   2132.43400282
_cell_formula_units_Z   1
loop_
 _symmetry_equiv_pos_site_id
 _symmetry_equiv_pos_as_xyz
  1  'x, y, z'
loop_
 _atom_site_type_symbol
 _atom_site_label
 _atom_site_symmetry_multiplicity
 _atom_site_fract_x
 _atom_site_fract_y
 _atom_site_fract_z
 _atom_site_occupancy
  Cu  Cu1  1  0.09891300  0.45422100  0.53760000  1
  Cu  Cu2  1  0.90376000  0.50610100  0.49573200  1
  H  H1  1  0.14715100  0.42674100  0.27021800  1
  H  H2  1  0.83985200  0.51522000  0.20232200  1
  H  H3  1  0.75852200  0.54434400  0.04745500  1
  H  H4  1  0.86521400  0.54474800  0.75902800  1
  H  H5  1  0.16590500  0.45076100  0.83233400  1
  H  H6  1  0.24502500  0.41985100  0.98855500  1
  H  H7  1  0.23764600  0.40964400  0.15163500  1
  H  H8  1  0.09280000  0.85016900  0.38668400  1
  H  H9  1  0.45868600  0.17490900  0.33134100  1
  H  H10  1  0.38179000  0.78381300  0.55633500  1
  H  H11  1  0.89522500  0.12240200  0.66137200  1
  H  H12  1  0.54803000  0.85498200  0.63821100  1
  H  H13  1  0.75656900  0.93260800  0.70807000  1
  H  H14  1  0.66853200  0.23996000  0.39465300  1
  H  H15  1  0.55659100  0.28675800  0.68555800  1
  H  H16  1  0.36331400  0.24635300  0.70482000  1
  H  H17  1  0.33156600  0.53968100  0.46713700  1
  H  H18  1  0.83743000  0.66676900  0.36052000  1
  H  H19  1  0.48330900  0.62601000  0.39278000  1
  H  H20  1  0.66374200  0.71928400  0.31657800  1
  H  H21  1  0.72763600  0.38506600  0.61323500  1
  H  H22  1  0.14285000  0.06117900  0.19596000  1
  H  H23  1  0.04348900  0.02773300  0.27161500  1
  H  H24  1  0.06042300  0.08341600  0.68801400  1
  H  H25  1  0.14614100  0.12714100  0.78924300  1
  H  H26  1  0.69964700  0.69318500  0.82784800  1
  H  H27  1  0.59843000  0.59324100  0.89450300  1
  C  C1  1  0.85368500  0.27046700  0.53487500  1
  C  C2  1  0.01299000  0.49459800  0.68752600  1
  C  C3  1  0.14743700  0.68880200  0.49266300  1
  C  C4  1  0.99253600  0.46930000  0.34585100  1
  C  C5  1  0.07996000  0.44742700  0.22014600  1
  C  C6  1  0.99249400  0.46967800  0.24786200  1
  C  C7  1  0.90835900  0.49671400  0.18219600  1
  C  C8  1  0.91205100  0.50181500  0.08993700  1
  C  C9  1  0.99898500  0.47945500  0.06250500  1
  C  C10  1  0.08315000  0.45237600  0.12783200  1
  C  C11  1  0.82791500  0.52898400  0.02519500  1
  C  C12  1  0.82770000  0.53196500  0.93261300  1
  C  C13  1  0.91723300  0.51127200  0.90426800  1
  C  C14  1  0.00226800  0.48477400  0.96999900  1
  C  C15  1  0.09138200  0.46377000  0.94347800  1
  C  C16  1  0.17544200  0.43670200  0.00896900  1
  C  C17  1  0.17127900  0.43085400  0.10093300  1
  C  C18  1  0.92562600  0.51909400  0.81188400  1
  C  C19  1  0.01314400  0.49565000  0.78544000  1
  C  C20  1  0.09651100  0.46870700  0.85166900  1
  C  C21  1  0.27113600  0.98698900  0.38996300  1
  C  C22  1  0.23176800  0.80672900  0.47338500  1
  C  C23  1  0.80516800  0.08705400  0.62225800  1
  C  C24  1  0.72577100  0.98049700  0.64994600  1
  C  C25  1  0.60539700  0.93636000  0.60798500  1
  C  C26  1  0.56265800  0.99742500  0.53424100  1
  C  C27  1  0.64546000  0.10506600  0.50476000  1
  C  C28  1  0.43843600  0.95479400  0.49133500  1
  C  C29  1  0.39698300  0.02349300  0.42509000  1
  C  C30  1  0.48316200  0.12485700  0.39065100  1
  C  C31  1  0.60567100  0.16334400  0.42811700  1
  C  C32  1  0.35463800  0.84450700  0.51189400  1
  C  C33  1  0.18971900  0.87890900  0.41485600  1
  C  C34  1  0.76729100  0.15127300  0.55072300  1
  C  C35  1  0.35537500  0.31043200  0.65130400  1
  C  C36  1  0.75876200  0.62439900  0.39748300  1
  C  C37  1  0.66052100  0.65388300  0.37234200  1
  C  C38  1  0.55753700  0.60004200  0.41658100  1
  C  C39  1  0.55304700  0.51627000  0.48836600  1
  C  C40  1  0.65639700  0.49039400  0.51311000  1
  C  C41  1  0.44908300  0.45678600  0.53635600  1
  C  C42  1  0.45293200  0.37364600  0.60512100  1
  C  C43  1  0.55410500  0.35101100  0.63012200  1
  C  C44  1  0.65422400  0.40906700  0.58628400  1
  C  C45  1  0.34110400  0.47576500  0.51958500  1
  C  C46  1  0.25116500  0.32935100  0.63334000  1
  C  C47  1  0.21902900  0.06035500  0.32840900  1
  C  C48  1  0.15270100  0.25121800  0.68782300  1
  C  C49  1  0.72916600  0.55463200  0.86863500  1
  N  N1  1  0.24578600  0.41558800  0.56964300  1
  N  N2  1  0.75613400  0.54223300  0.46590800  1
  N  N3  1  0.11699700  0.01500000  0.25857000  1
  N  N4  1  0.14455300  0.14073900  0.71808700  1
  N  N5  1  0.69186900  0.63492900  0.88626700  1
  O  O1  1  0.97372700  0.29973700  0.54812300  1
  O  O2  1  0.80780000  0.34441500  0.51171000  1
  O  O3  1  0.09585000  0.47241000  0.66306600  1
  O  O4  1  0.92490400  0.50947400  0.62807100  1
  O  O5  1  0.19546000  0.61538100  0.51494800  1
  O  O6  1  0.02739600  0.66031800  0.47861400  1
  O  O7  1  0.08047900  0.45205100  0.40529800  1
  O  O8  1  0.90733300  0.48979900  0.36986500  1
  O  O9  1  0.25528900  0.15748700  0.34134400  1
  O  O10  1  0.09086400  0.28283400  0.71894000  1
  O  O11  1  0.67095900  0.49811700  0.80576700  1
