# generated using pymatgen
data_Zn3H24C46O17
_symmetry_space_group_name_H-M   'P 1'
_cell_length_a   19.52910000
_cell_length_b   19.15246400
_cell_length_c   19.71396700
_cell_angle_alpha   111.48686000
_cell_angle_beta   112.20999900
_cell_angle_gamma   103.95810000
_symmetry_Int_Tables_number   1
_chemical_formula_structural   Zn3H24C46O17
_chemical_formula_sum   'Zn6 H48 C92 O34'
_cell_volume   5701.90710582
_cell_formula_units_Z   2
loop_
 _symmetry_equiv_pos_site_id
 _symmetry_equiv_pos_as_xyz
  1  'x, y, z'
loop_
 _atom_site_type_symbol
 _atom_site_label
 _atom_site_symmetry_multiplicity
 _atom_site_fract_x
 _atom_site_fract_y
 _atom_site_fract_z
 _atom_site_occupancy
  Zn  Zn1  1  0.99818600  0.57383100  0.06960300  1
  Zn  Zn2  1  0.99782700  0.43252400  0.93349300  1
  Zn  Zn3  1  0.56399000  0.56931200  0.50069400  1
  Zn  Zn4  1  0.43787500  0.43676300  0.49581900  1
  Zn  Zn5  1  0.43024800  0.00162900  0.93343800  1
  Zn  Zn6  1  0.56907400  0.99670000  0.06667600  1
  H  H1  1  0.06698100  0.88317900  0.04332800  1
  H  H2  1  0.92899700  0.85534900  0.02321400  1
  H  H3  1  0.81420100  0.71545900  0.91822600  1
  H  H4  1  0.97559800  0.63036400  0.85370300  1
  H  H5  1  0.08968400  0.77114500  0.95766700  1
  H  H6  1  0.75568700  0.63330600  0.74865100  1
  H  H7  1  0.74661400  0.37710100  0.75326500  1
  H  H8  1  0.43229200  0.12654300  0.46369800  1
  H  H9  1  0.61917000  0.34440700  0.52067700  1
  H  H10  1  0.93097500  0.48434600  0.30656200  1
  H  H11  1  0.06840600  0.60223200  0.41244300  1
  H  H12  1  0.18356800  0.60859400  0.38829400  1
  H  H13  1  0.02365800  0.37891000  0.15145500  1
  H  H14  1  0.90915900  0.37250400  0.17694200  1
  H  H15  1  0.24489000  0.49641400  0.36939100  1
  H  H16  1  0.43456000  0.63949700  0.27170900  1
  H  H17  1  0.54888600  0.64356600  0.24599800  1
  H  H18  1  0.56518700  0.51524700  0.18781800  1
  H  H19  1  0.35556300  0.37972500  0.18558300  1
  H  H20  1  0.88414200  0.56881000  0.54832100  1
  H  H21  1  0.78421500  0.58896800  0.44494000  1
  H  H22  1  0.64524700  0.47545100  0.33765600  1
  H  H23  1  0.84551900  0.43436900  0.54306900  1
  H  H24  1  0.38092700  0.25151500  0.25169800  1
  H  H25  1  0.16908100  0.06272400  0.95717000  1
  H  H26  1  0.13691400  0.93168600  0.95956300  1
  H  H27  1  0.24149900  0.91967900  0.06722100  1
  H  H28  1  0.37926800  0.03754100  0.17083000  1
  H  H29  1  0.44389600  0.80050500  0.41631000  1
  H  H30  1  0.56372600  0.90269500  0.55998000  1
  H  H31  1  0.58173200  0.88039900  0.67924500  1
  H  H32  1  0.35987700  0.65284500  0.51110700  1
  H  H33  1  0.34167900  0.67672500  0.39238700  1
  H  H34  1  0.47834300  0.86798000  0.73800700  1
  H  H35  1  0.50628100  0.62531300  0.75259600  1
  H  H36  1  0.63863100  0.74148000  0.92170500  1
  H  H37  1  0.66239800  0.72038700  0.04266300  1
  H  H38  1  0.55466600  0.69658700  0.07865900  1
  H  H39  1  0.44752100  0.19416800  0.37004000  1
  H  H40  1  0.23649200  0.44676100  0.07107600  1
  H  H41  1  0.51951700  0.37547800  0.19398400  1
  H  H42  1  0.72075100  0.31768900  0.49419900  1
  H  H43  1  0.65172600  0.28707700  0.21670600  1
  H  H44  1  0.28280000  0.22441400  0.08918200  1
  H  H45  1  0.43131100  0.74144400  0.05131400  1
  H  H46  1  0.34868300  0.65367500  0.81729500  1
  H  H47  1  0.62051000  0.31194400  0.75875200  1
  H  H48  1  0.49174300  0.14904900  0.63213100  1
  C  C1  1  0.88552100  0.39307400  0.99838700  1
  C  C2  1  0.88297700  0.50820800  0.88238600  1
  C  C3  1  0.11049900  0.61299900  0.00467500  1
  C  C4  1  0.11380300  0.49885400  0.12076600  1
  C  C5  1  0.93929500  0.80575100  0.98632500  1
  C  C6  1  0.87488700  0.72712700  0.92734000  1
  C  C7  1  0.88786300  0.66332300  0.88063200  1
  C  C8  1  0.96533500  0.67922000  0.89175600  1
  C  C9  1  0.02943000  0.75826900  0.94992600  1
  C  C10  1  0.01660200  0.82134000  0.99763300  1
  C  C11  1  0.75310500  0.57674600  0.74974800  1
  C  C12  1  0.68479900  0.50158200  0.68654900  1
  C  C13  1  0.68134400  0.42938200  0.68948800  1
  C  C14  1  0.74823600  0.43360600  0.75251600  1
  C  C15  1  0.81616200  0.50869500  0.81576200  1
  C  C16  1  0.81793900  0.58134100  0.81530800  1
  C  C17  1  0.56871400  0.30373400  0.65222400  1
  C  C18  1  0.50442500  0.22489700  0.59364600  1
  C  C19  1  0.48228000  0.18861400  0.50937300  1
  C  C20  1  0.52365900  0.23157200  0.48331000  1
  C  C21  1  0.58724100  0.31087400  0.54151500  1
  C  C22  1  0.61041000  0.34719700  0.62631900  1
  C  C23  1  0.82472800  0.33311800  0.99809400  1
  C  C24  1  0.77447100  0.28200400  0.99791800  1
  C  C25  1  0.71640500  0.22171900  0.99815500  1
  C  C26  1  0.66712500  0.17019300  0.99854300  1
  C  C27  1  0.05852500  0.55347000  0.35487900  1
  C  C28  1  0.12314500  0.55692800  0.34121200  1
  C  C29  1  0.11068900  0.49519800  0.26741300  1
  C  C30  1  0.03352900  0.42882300  0.20824900  1
  C  C31  1  0.96920000  0.42495800  0.22256600  1
  C  C32  1  0.98152100  0.48746900  0.29554100  1
  C  C33  1  0.24686900  0.49830800  0.31601800  1
  C  C34  1  0.31577600  0.50285300  0.31004800  1
  C  C35  1  0.31818800  0.50626600  0.24197200  1
  C  C36  1  0.25089800  0.50252500  0.17977300  1
  C  C37  1  0.18204200  0.49843800  0.18613700  1
  C  C38  1  0.18084700  0.49789300  0.25582800  1
  C  C39  1  0.44267000  0.58342800  0.24769100  1
  C  C40  1  0.50664200  0.58567000  0.23310100  1
  C  C41  1  0.51583300  0.51374000  0.20058400  1
  C  C42  1  0.46151700  0.43972600  0.18342600  1
  C  C43  1  0.39857500  0.43784300  0.19973000  1
  C  C44  1  0.38882100  0.50960500  0.23142500  1
  C  C45  1  0.17212600  0.67202200  0.00521000  1
  C  C46  1  0.22326000  0.72150700  0.00486700  1
  C  C47  1  0.28224700  0.77970100  0.00377600  1
  C  C48  1  0.33212000  0.82972100  0.00264900  1
  C  C49  1  0.51115900  0.38749300  0.38456600  1
  C  C50  1  0.61777400  0.50148400  0.61928100  1
  C  C51  1  0.49099500  0.61867900  0.61176600  1
  C  C52  1  0.38384200  0.50342900  0.37649500  1
  C  C53  1  0.49824300  0.87719100  0.88114600  1
  C  C54  1  0.60834500  0.10901300  0.99909700  1
  C  C55  1  0.50035300  0.12036300  0.11901800  1
  C  C56  1  0.39099500  0.88956200  0.00114800  1
  C  C57  1  0.76653600  0.53041700  0.44390600  1
  C  C58  1  0.68825700  0.46676100  0.38403300  1
  C  C59  1  0.66479900  0.39220300  0.38315400  1
  C  C60  1  0.72208100  0.38005300  0.43947700  1
  C  C61  1  0.80063200  0.44367600  0.49896500  1
  C  C62  1  0.82256100  0.51908800  0.50175000  1
  C  C63  1  0.57814500  0.25651100  0.25183800  1
  C  C64  1  0.50313500  0.18901700  0.18710900  1
  C  C65  1  0.43198100  0.18822500  0.18689100  1
  C  C66  1  0.43681900  0.25369000  0.25189300  1
  C  C67  1  0.51144300  0.32128600  0.31684100  1
  C  C68  1  0.58300500  0.32299400  0.31638900  1
  C  C69  1  0.29209500  0.12389200  0.06298500  1
  C  C70  1  0.21535000  0.05719100  0.00404700  1
  C  C71  1  0.19731500  0.98372000  0.00533900  1
  C  C72  1  0.25613600  0.97684500  0.06542700  1
  C  C73  1  0.33338600  0.04298200  0.12350100  1
  C  C74  1  0.35155600  0.11664400  0.12236200  1
  C  C75  1  0.51920300  0.84759900  0.54921200  1
  C  C76  1  0.52918600  0.83499200  0.61615200  1
  C  C77  1  0.47297400  0.76427600  0.60261900  1
  C  C78  1  0.40546500  0.70720000  0.52193300  1
  C  C79  1  0.39500600  0.72055400  0.45525500  1
  C  C80  1  0.45211900  0.79034200  0.46872600  1
  C  C81  1  0.48447300  0.81455600  0.74135400  1
  C  C82  1  0.49551900  0.80929300  0.81240100  1
  C  C83  1  0.50404100  0.74082100  0.81657400  1
  C  C84  1  0.49951500  0.67844400  0.74901000  1
  C  C85  1  0.48928100  0.68416000  0.67840000  1
  C  C86  1  0.48285000  0.75357000  0.67508700  1
  C  C87  1  0.59134100  0.73173500  0.93774400  1
  C  C88  1  0.60474900  0.71985600  0.00562800  1
  C  C89  1  0.54439300  0.70658000  0.02581700  1
  C  C90  1  0.47060500  0.70514000  0.97808500  1
  C  C91  1  0.45727200  0.71769800  0.91047300  1
  C  C92  1  0.51809300  0.73175400  0.89061600  1
  O  O1  1  0.91362800  0.47284500  0.05173900  1
  O  O2  1  0.91101400  0.36493200  0.94598500  1
  O  O3  1  0.91221900  0.56193800  0.96255600  1
  O  O4  1  0.90793300  0.45077900  0.85849600  1
  O  O5  1  0.08584500  0.64138700  0.05795500  1
  O  O6  1  0.08159500  0.53341600  0.95052800  1
  O  O7  1  0.08740900  0.55497600  0.14476900  1
  O  O8  1  0.08475000  0.44545700  0.04058300  1
  O  O9  1  0.55558900  0.46575000  0.41207700  1
  O  O10  1  0.46146200  0.36524200  0.41069800  1
  O  O11  1  0.63716300  0.55152000  0.59148700  1
  O  O12  1  0.54150100  0.45220300  0.59001800  1
  O  O13  1  0.53912000  0.64099200  0.58426900  1
  O  O14  1  0.44751500  0.54040600  0.58567800  1
  O  O15  1  0.46025300  0.55268300  0.40541800  1
  O  O16  1  0.36454600  0.45595300  0.40654700  1
  O  O17  1  0.44588500  0.90812300  0.85970800  1
  O  O18  1  0.55328800  0.90544500  0.96047000  1
  O  O19  1  0.52982800  0.08643700  0.95075000  1
  O  O20  1  0.63588100  0.07914500  0.04838100  1
  O  O21  1  0.44546500  0.09222800  0.03967100  1
  O  O22  1  0.55418800  0.09097700  0.14047500  1
  O  O23  1  0.36331500  0.91858300  0.95108700  1
  O  O24  1  0.46953400  0.91261800  0.05015500  1
  O  O25  1  0.50184200  0.19528200  0.39978400  1
  O  O26  1  0.25376200  0.50542400  0.11259200  1
  O  O27  1  0.46875800  0.36786000  0.14813600  1
  O  O28  1  0.70185400  0.30429500  0.43485100  1
  O  O29  1  0.64810300  0.25974600  0.25005500  1
  O  O30  1  0.30938500  0.19671300  0.06169600  1
  O  O31  1  0.41027900  0.69008000  0.99719400  1
  O  O32  1  0.38300500  0.71350100  0.86175500  1
  O  O33  1  0.58933600  0.33947900  0.73546900  1
  O  O34  1  0.46280100  0.18250400  0.61923100  1
