# generated using pymatgen
data_Zn2H34C54N2O13
_symmetry_space_group_name_H-M   'P 1'
_cell_length_a   15.97358300
_cell_length_b   11.02066300
_cell_length_c   9.82964300
_cell_angle_alpha   90.00017700
_cell_angle_beta   89.98960100
_cell_angle_gamma   89.99923100
_symmetry_Int_Tables_number   1
_chemical_formula_structural   Zn2H34C54N2O13
_chemical_formula_sum   'Zn2 H34 C54 N2 O13'
_cell_volume   1730.40516592
_cell_formula_units_Z   1
loop_
 _symmetry_equiv_pos_site_id
 _symmetry_equiv_pos_as_xyz
  1  'x, y, z'
loop_
 _atom_site_type_symbol
 _atom_site_label
 _atom_site_symmetry_multiplicity
 _atom_site_fract_x
 _atom_site_fract_y
 _atom_site_fract_z
 _atom_site_occupancy
  Zn  Zn1  1  0.50659200  0.49878700  0.64892700  1
  Zn  Zn2  1  0.50723500  0.49590900  0.33935500  1
  H  H1  1  0.07697000  0.35934200  0.64480500  1
  H  H2  1  0.07406900  0.43829500  0.27859500  1
  H  H3  1  0.07667900  0.31972200  0.40113600  1
  H  H4  1  0.94007800  0.31611300  0.42373600  1
  H  H5  1  0.07428100  0.68201300  0.55854000  1
  H  H6  1  0.93601800  0.69038500  0.54253100  1
  H  H7  1  0.08248300  0.51059100  0.70988900  1
  H  H8  1  0.94418600  0.53638700  0.70856900  1
  H  H9  1  0.93637100  0.65872000  0.36528100  1
  H  H10  1  0.53283100  0.10705800  0.28675100  1
  H  H11  1  0.54836600  0.18772900  0.77235400  1
  H  H12  1  0.49220400  0.08626800  0.96602200  1
  H  H13  1  0.41752900  0.89295800  0.93976700  1
  H  H14  1  0.40862300  0.79798900  0.72009900  1
  H  H15  1  0.52777700  0.88788000  0.28379800  1
  H  H16  1  0.59869900  0.62700900  0.11942900  1
  H  H17  1  0.39932600  0.33121200  0.23842900  1
  H  H18  1  0.39506700  0.33701000  0.74881800  1
  H  H19  1  0.59804000  0.62916200  0.87018800  1
  H  H20  1  0.80416300  0.42050600  0.77789600  1
  H  H21  1  0.77718500  0.18736600  0.83235900  1
  H  H22  1  0.90679200  0.06793300  0.73392600  1
  H  H23  1  0.35030500  0.12744800  0.30948300  1
  H  H24  1  0.20133600  0.04526700  0.38692300  1
  H  H25  1  0.09246400  0.12749700  0.20753000  1
  H  H26  1  0.28053400  0.02373800  0.95406900  1
  H  H27  1  0.17616500  0.96090900  0.75649300  1
  H  H28  1  0.16236000  0.15155500  0.59601300  1
  H  H29  1  0.98323200  0.57579500  0.15653600  1
  H  H30  1  0.87172900  0.54203800  0.96262300  1
  H  H31  1  0.77514200  0.36099800  0.04291800  1
  H  H32  1  0.02788800  0.86577200  0.35727000  1
  H  H33  1  0.11222100  0.90440300  0.12726100  1
  H  H34  1  0.19832900  0.70532000  0.07961200  1
  C  C1  1  0.51398100  0.25844100  0.49715200  1
  C  C2  1  0.34310700  0.49382800  0.49311100  1
  C  C3  1  0.50116000  0.73558500  0.49315600  1
  C  C4  1  0.67037500  0.50442600  0.49513600  1
  C  C5  1  0.05501400  0.45336700  0.62852700  1
  C  C6  1  0.05246700  0.41229200  0.38117100  1
  C  C7  1  0.95763000  0.40831300  0.38975000  1
  C  C8  1  0.76021100  0.50424400  0.49539900  1
  C  C9  1  0.08601100  0.49741900  0.49072700  1
  C  C10  1  0.95990800  0.46337200  0.63529400  1
  C  C11  1  0.92723200  0.49972100  0.49537900  1
  C  C12  1  0.95983200  0.62643400  0.46448600  1
  C  C13  1  0.05485500  0.62711500  0.46942100  1
  C  C14  1  0.83564500  0.50257500  0.49556600  1
  C  C15  1  0.17774300  0.49468700  0.49183300  1
  C  C16  1  0.25321300  0.49371500  0.49257200  1
  C  C17  1  0.51382700  0.10589600  0.75312000  1
  C  C18  1  0.48519300  0.04588000  0.86645800  1
  C  C19  1  0.44484300  0.93725000  0.85225800  1
  C  C20  1  0.44306400  0.88184800  0.72734200  1
  C  C21  1  0.48136800  0.93506900  0.61487200  1
  C  C22  1  0.50394300  0.05661500  0.62323200  1
  C  C23  1  0.51624600  0.12318500  0.50256800  1
  C  C24  1  0.52172800  0.05970100  0.38128800  1
  C  C25  1  0.51679100  0.93456500  0.37880100  1
  C  C26  1  0.49650100  0.87029100  0.49491800  1
  C  C27  1  0.39993400  0.33860200  0.13120300  1
  C  C28  1  0.34096900  0.27072600  0.06354000  1
  C  C29  1  0.33984000  0.27270400  0.92386100  1
  C  C30  1  0.39629700  0.34473100  0.85610100  1
  C  C31  1  0.45212100  0.42076700  0.92323300  1
  C  C32  1  0.45371500  0.41782200  0.06434400  1
  C  C33  1  0.55684100  0.56710200  0.06510300  1
  C  C34  1  0.55623800  0.56868000  0.92384900  1
  C  C35  1  0.91995300  0.34859400  0.68575500  1
  C  C36  1  0.84451700  0.34502100  0.75294000  1
  C  C37  1  0.83058700  0.22609000  0.78059100  1
  C  C38  1  0.89841700  0.16515900  0.72874500  1
  C  C39  1  0.27640300  0.20735300  0.14228500  1
  C  C40  1  0.29099400  0.14331200  0.25985200  1
  C  C41  1  0.21497200  0.10148000  0.29965800  1
  C  C42  1  0.15911700  0.14431500  0.20497100  1
  C  C43  1  0.28168100  0.19864600  0.84334800  1
  C  C44  1  0.25972900  0.08037400  0.87096700  1
  C  C45  1  0.20673500  0.04763400  0.76958900  1
  C  C46  1  0.20048100  0.14741500  0.68662000  1
  C  C47  1  0.91491800  0.42439800  0.25522500  1
  C  C48  1  0.93400500  0.50882100  0.15664800  1
  C  C49  1  0.87705100  0.49139200  0.05632900  1
  C  C50  1  0.82744000  0.39730500  0.09953500  1
  C  C51  1  0.08991600  0.68729200  0.34488700  1
  C  C52  1  0.06991000  0.80366300  0.30641800  1
  C  C53  1  0.11302500  0.82374200  0.18957600  1
  C  C54  1  0.15722900  0.71916600  0.16560600  1
  N  N1  1  0.50595900  0.49198700  0.13511000  1
  N  N2  1  0.50409200  0.49606500  0.85307900  1
  O  O1  1  0.51030000  0.31859400  0.61058300  1
  O  O2  1  0.51264500  0.31520800  0.37946300  1
  O  O3  1  0.38206400  0.49762200  0.60952700  1
  O  O4  1  0.38252800  0.49243000  0.37704400  1
  O  O5  1  0.50520900  0.67922700  0.61113600  1
  O  O6  1  0.50370100  0.67736700  0.37503400  1
  O  O7  1  0.63150600  0.50356500  0.61330100  1
  O  O8  1  0.63189100  0.50316700  0.37669000  1
  O  O9  1  0.95316100  0.23913900  0.67077800  1
  O  O10  1  0.19609200  0.20895900  0.10865400  1
  O  O11  1  0.24658200  0.23940900  0.73015400  1
  O  O12  1  0.85020300  0.35590800  0.22042200  1
  O  O13  1  0.14362600  0.63569000  0.25988900  1
