# generated using pymatgen
data_CuH21C26NO6
_symmetry_space_group_name_H-M   'P 1'
_cell_length_a   13.68638400
_cell_length_b   15.14254300
_cell_length_c   15.89070400
_cell_angle_alpha   89.99626200
_cell_angle_beta   72.36434400
_cell_angle_gamma   89.99684800
_symmetry_Int_Tables_number   1
_chemical_formula_structural   CuH21C26NO6
_chemical_formula_sum   'Cu2 H42 C52 N2 O12'
_cell_volume   3138.51803382
_cell_formula_units_Z   2
loop_
 _symmetry_equiv_pos_site_id
 _symmetry_equiv_pos_as_xyz
  1  'x, y, z'
loop_
 _atom_site_type_symbol
 _atom_site_label
 _atom_site_symmetry_multiplicity
 _atom_site_fract_x
 _atom_site_fract_y
 _atom_site_fract_z
 _atom_site_occupancy
  Cu  Cu1  1  0.40485200  0.49826800  0.49643900  1
  Cu  Cu2  1  0.59969400  0.50379500  0.49779600  1
  H  H1  1  0.23058000  0.52936300  0.07066600  1
  H  H2  1  0.77505400  0.47954500  0.92336100  1
  H  H3  1  0.44976500  0.52355300  0.22143400  1
  H  H4  1  0.55683200  0.49271000  0.77204900  1
  H  H5  1  0.75569200  0.48048000  0.21915000  1
  H  H6  1  0.24849200  0.52041900  0.77551800  1
  H  H7  1  0.19382500  0.52979500  0.93536500  1
  H  H8  1  0.81059900  0.47501300  0.05840600  1
  H  H9  1  0.34448200  0.52258900  0.15421700  1
  H  H10  1  0.66179700  0.49221600  0.83954000  1
  H  H11  1  0.34151200  0.94423700  0.50281200  1
  H  H12  1  0.60646900  0.05885100  0.57560500  1
  H  H13  1  0.65475400  0.77858900  0.48606000  1
  H  H14  1  0.39841200  0.22613600  0.42833400  1
  H  H15  1  0.65838300  0.93692000  0.48656000  1
  H  H16  1  0.39606600  0.06848000  0.42296600  1
  H  H17  1  0.97322000  0.43714800  0.37380400  1
  H  H18  1  0.05082500  0.61837800  0.57202100  1
  H  H19  1  0.79765200  0.44083800  0.37701500  1
  H  H20  1  0.22553700  0.60926900  0.57297600  1
  H  H21  1  0.89094300  0.55931100  0.62814700  1
  H  H22  1  0.08924900  0.37162100  0.43427400  1
  H  H23  1  0.74141700  0.69102700  0.56383200  1
  H  H24  1  0.78051600  0.68715700  0.66293300  1
  H  H25  1  0.60292300  0.69920300  0.75668800  1
  H  H26  1  0.63451900  0.78979000  0.67853700  1
  H  H27  1  0.55762900  0.69869200  0.66100600  1
  H  H28  1  0.30480200  0.44338400  0.30714300  1
  H  H29  1  0.22527900  0.34748300  0.30753700  1
  H  H30  1  0.36955300  0.24890700  0.28007300  1
  H  H31  1  0.39966700  0.33655100  0.19854200  1
  H  H32  1  0.45334500  0.33834200  0.28959600  1
  H  H33  1  0.40174500  0.79531900  0.35550000  1
  H  H34  1  0.28043300  0.85335600  0.39606900  1
  H  H35  1  0.18943800  0.70967900  0.41538100  1
  H  H36  1  0.26605000  0.72899400  0.30222900  1
  H  H37  1  0.31152800  0.65353300  0.37050100  1
  H  H38  1  0.73604900  0.25050500  0.46238200  1
  H  H39  1  0.75547200  0.15159200  0.51960800  1
  H  H40  1  0.79970000  0.23782500  0.63159100  1
  H  H41  1  0.87762100  0.27263300  0.52294400  1
  H  H42  1  0.77022500  0.33967500  0.58502800  1
  C  C1  1  0.49733900  0.67114600  0.49326100  1
  C  C2  1  0.50776700  0.33120100  0.49945300  1
  C  C3  1  0.44064700  0.50360400  0.66742700  1
  C  C4  1  0.56360400  0.49977900  0.32714000  1
  C  C5  1  0.40729200  0.50718400  0.76437700  1
  C  C6  1  0.59768300  0.49921600  0.22980600  1
  C  C7  1  0.27478600  0.52222200  0.90038100  1
  C  C8  1  0.73029000  0.48455100  0.09380400  1
  C  C9  1  0.30520800  0.51678000  0.80981600  1
  C  C10  1  0.69976900  0.48755200  0.18432000  1
  C  C11  1  0.47864000  0.50229000  0.81006200  1
  C  C12  1  0.52725100  0.51001100  0.18360200  1
  C  C13  1  0.44980000  0.50848700  0.90203600  1
  C  C14  1  0.55617500  0.50457000  0.09190400  1
  C  C15  1  0.34610500  0.51815400  0.94615800  1
  C  C16  1  0.65944700  0.49221500  0.04802100  1
  C  C17  1  0.52087300  0.50445300  0.95080000  1
  C  C18  1  0.48542800  0.51006500  0.04317800  1
  C  C19  1  0.37992000  0.51914500  0.08427000  1
  C  C20  1  0.62630800  0.49486500  0.90954600  1
  C  C21  1  0.31200700  0.52307300  0.03636900  1
  C  C22  1  0.69380300  0.48797100  0.95761600  1
  C  C23  1  0.41145800  0.90816900  0.49695100  1
  C  C24  1  0.56379400  0.09474200  0.53934300  1
  C  C25  1  0.40992800  0.81702200  0.49190900  1
  C  C26  1  0.57009100  0.18583600  0.53733300  1
  C  C27  1  0.49671300  0.76864500  0.49122400  1
  C  C28  1  0.50956800  0.23420100  0.49817700  1
  C  C29  1  0.58528700  0.81374500  0.48931000  1
  C  C30  1  0.44607500  0.18999400  0.45938200  1
  C  C31  1  0.58709500  0.90449100  0.49068400  1
  C  C32  1  0.44376800  0.09932400  0.45764700  1
  C  C33  1  0.49994400  0.95278600  0.49584300  1
  C  C34  1  0.50242500  0.05035700  0.49794100  1
  C  C35  1  0.91831200  0.46563000  0.43087400  1
  C  C36  1  0.09570300  0.56193900  0.54080500  1
  C  C37  1  0.81747400  0.46919400  0.43207200  1
  C  C38  1  0.19639200  0.55801100  0.53976400  1
  C  C39  1  0.77245300  0.54181600  0.56861500  1
  C  C40  1  0.22104400  0.42859300  0.45589800  1
  C  C41  1  0.87241600  0.53588400  0.57052100  1
  C  C42  1  0.11870300  0.42789500  0.46072300  1
  C  C43  1  0.94728600  0.49904300  0.50072200  1
  C  C44  1  0.05517300  0.49633300  0.50080500  1
  C  C45  1  0.71873000  0.66978300  0.63390000  1
  C  C46  1  0.62212000  0.71756900  0.68585300  1
  C  C47  1  0.29357100  0.37240600  0.32384700  1
  C  C48  1  0.38535800  0.32057500  0.26930100  1
  C  C49  1  0.32190900  0.79124900  0.39993900  1
  C  C50  1  0.26861800  0.71559200  0.37009800  1
  C  C51  1  0.72960100  0.22127500  0.52779300  1
  C  C52  1  0.79881600  0.27127000  0.56966800  1
  N  N1  1  0.74547000  0.50819100  0.49940800  1
  N  N2  1  0.25913400  0.49440900  0.49493800  1
  O  O1  1  0.41372200  0.62705600  0.49738400  1
  O  O2  1  0.59154900  0.37491900  0.49623800  1
  O  O3  1  0.58265500  0.63135400  0.49278000  1
  O  O4  1  0.42165000  0.37045800  0.50142400  1
  O  O5  1  0.37178000  0.50400400  0.62490100  1
  O  O6  1  0.63281800  0.49850500  0.36943100  1
  O  O7  1  0.53891100  0.50140700  0.62605200  1
  O  O8  1  0.46502000  0.50035300  0.36807600  1
  O  O9  1  0.70065300  0.57871900  0.63965600  1
  O  O10  1  0.28245400  0.36099200  0.41360700  1
  O  O11  1  0.32226900  0.77667200  0.48675600  1
  O  O12  1  0.62820400  0.22702500  0.58234500  1
