# generated using pymatgen
data_ZnH11C21N3O4
_symmetry_space_group_name_H-M   'P 1'
_cell_length_a   8.53667800
_cell_length_b   11.00733400
_cell_length_c   17.56141300
_cell_angle_alpha   90.83327100
_cell_angle_beta   90.07963800
_cell_angle_gamma   102.65812500
_symmetry_Int_Tables_number   1
_chemical_formula_structural   ZnH11C21N3O4
_chemical_formula_sum   'Zn2 H22 C42 N6 O8'
_cell_volume   1609.88129281
_cell_formula_units_Z   2
loop_
 _symmetry_equiv_pos_site_id
 _symmetry_equiv_pos_as_xyz
  1  'x, y, z'
loop_
 _atom_site_type_symbol
 _atom_site_label
 _atom_site_symmetry_multiplicity
 _atom_site_fract_x
 _atom_site_fract_y
 _atom_site_fract_z
 _atom_site_occupancy
  Zn  Zn1  1  0.50707600  0.51731600  0.91575300  1
  Zn  Zn2  1  0.49306800  0.48282000  0.08423500  1
  H  H1  1  0.97747100  0.41533600  0.96208300  1
  H  H2  1  0.02266200  0.58479600  0.03789900  1
  H  H3  1  0.63377500  0.08252600  0.00586800  1
  H  H4  1  0.36636100  0.91760800  0.99411900  1
  H  H5  1  0.28241200  0.10989100  0.98699300  1
  H  H6  1  0.71772600  0.89024700  0.01300300  1
  H  H7  1  0.63589000  0.82719500  0.67962900  1
  H  H8  1  0.37071400  0.17222200  0.32015200  1
  H  H9  1  0.59482800  0.80555600  0.43480900  1
  H  H10  1  0.39667000  0.19426100  0.56556000  1
  H  H11  1  0.63504900  0.81702200  0.54761100  1
  H  H12  1  0.37346400  0.18175200  0.45199700  1
  H  H13  1  0.44596000  0.33985000  0.81419800  1
  H  H14  1  0.55265600  0.66033400  0.18588100  1
  H  H15  1  0.63657000  0.89152800  0.32391200  1
  H  H16  1  0.49090100  0.82167500  0.26287600  1
  H  H17  1  0.35581000  0.10874400  0.67643400  1
  H  H18  1  0.50255000  0.17700800  0.73734500  1
  H  H19  1  0.53723700  0.77229800  0.85235000  1
  H  H20  1  0.73050400  0.76136100  0.83217800  1
  H  H21  1  0.46593100  0.22744000  0.14802800  1
  H  H22  1  0.27207600  0.23800500  0.16731300  1
  C  C1  1  0.07210300  0.25472300  0.97855100  1
  C  C2  1  0.92803200  0.74541500  0.02144300  1
  C  C3  1  0.94938700  0.31634000  0.97111000  1
  C  C4  1  0.05074800  0.68379300  0.02887500  1
  C  C5  1  0.79288100  0.25619600  0.98310500  1
  C  C6  1  0.20725600  0.74393600  0.01687700  1
  C  C7  1  0.75689400  0.13003900  0.99640500  1
  C  C8  1  0.24324200  0.87009500  0.00358200  1
  C  C9  1  0.87859200  0.06492200  0.99688000  1
  C  C10  1  0.12154600  0.93521500  0.00311400  1
  C  C11  1  0.03707800  0.12755200  0.98991100  1
  C  C12  1  0.96305900  0.87258600  0.01008500  1
  C  C13  1  0.84184600  0.93766900  0.00671200  1
  C  C14  1  0.15829200  0.06246800  0.99328500  1
  C  C15  1  0.76545200  0.66931000  0.01500700  1
  C  C16  1  0.23467900  0.33083600  0.98498400  1
  C  C17  1  0.67233400  0.33174800  0.98882500  1
  C  C18  1  0.32780900  0.66838500  0.01115900  1
  C  C19  1  0.55875000  0.63847200  0.77444200  1
  C  C20  1  0.44252800  0.36147600  0.22550100  1
  C  C21  1  0.47485400  0.42249400  0.78039200  1
  C  C22  1  0.52426600  0.57761400  0.21965300  1
  C  C23  1  0.50901600  0.51698700  0.65842900  1
  C  C24  1  0.49103100  0.48286000  0.34156900  1
  C  C25  1  0.55361800  0.63056200  0.69540500  1
  C  C26  1  0.44796100  0.36927300  0.30452400  1
  C  C27  1  0.59734300  0.73644900  0.65302800  1
  C  C28  1  0.40677300  0.26312400  0.34681600  1
  C  C29  1  0.47137500  0.41201300  0.70185800  1
  C  C30  1  0.52733100  0.58798200  0.29820400  1
  C  C31  1  0.53801800  0.60738400  0.45664300  1
  C  C32  1  0.46109200  0.39229200  0.54338900  1
  C  C33  1  0.45593300  0.38372600  0.46358700  1
  C  C34  1  0.54500000  0.61583900  0.53638900  1
  C  C35  1  0.49542100  0.49131000  0.42086000  1
  C  C36  1  0.50459400  0.50837500  0.57914300  1
  C  C37  1  0.56999500  0.71297500  0.41146900  1
  C  C38  1  0.42592100  0.28689600  0.58869300  1
  C  C39  1  0.56560700  0.70351100  0.33319100  1
  C  C40  1  0.43080600  0.29650900  0.66696000  1
  C  C41  1  0.59419900  0.72949000  0.57498500  1
  C  C42  1  0.41010100  0.26987000  0.42485300  1
  N  N1  1  0.51580600  0.53404200  0.81631000  1
  N  N2  1  0.48434700  0.46605500  0.18367600  1
  N  N3  1  0.59847800  0.81362500  0.28857000  1
  N  N4  1  0.39555900  0.18653000  0.71167700  1
  N  N5  1  0.61612500  0.75723200  0.81000200  1
  N  N6  1  0.38617100  0.24257800  0.18993900  1
  O  O1  1  0.69913100  0.61265000  0.07590500  1
  O  O2  1  0.30097800  0.38752400  0.92409800  1
  O  O3  1  0.70510900  0.64514900  0.94627200  1
  O  O4  1  0.29505400  0.35497400  0.05371000  1
  O  O5  1  0.63975100  0.38809400  0.92739100  1
  O  O6  1  0.36035200  0.61201600  0.07260000  1
  O  O7  1  0.62245800  0.35579300  0.05697100  1
  O  O8  1  0.37772700  0.64437900  0.94300500  1
