# generated using pymatgen
data_Zn2H36C51(NO4)2
_symmetry_space_group_name_H-M   'P 1'
_cell_length_a   15.29736700
_cell_length_b   11.83910400
_cell_length_c   9.31507300
_cell_angle_alpha   90.17000300
_cell_angle_beta   90.00108400
_cell_angle_gamma   90.00000000
_symmetry_Int_Tables_number   1
_chemical_formula_structural   Zn2H36C51(NO4)2
_chemical_formula_sum   'Zn2 H36 C51 N2 O8'
_cell_volume   1687.01860643
_cell_formula_units_Z   1
loop_
 _symmetry_equiv_pos_site_id
 _symmetry_equiv_pos_as_xyz
  1  'x, y, z'
loop_
 _atom_site_type_symbol
 _atom_site_label
 _atom_site_symmetry_multiplicity
 _atom_site_fract_x
 _atom_site_fract_y
 _atom_site_fract_z
 _atom_site_occupancy
  Zn  Zn1  1  0.51051300  0.50170200  0.85024400  1
  Zn  Zn2  1  0.51551200  0.49585500  0.17071500  1
  H  H1  1  0.16563700  0.86594900  0.23900000  1
  H  H2  1  0.30430600  0.73801700  0.79277200  1
  H  H3  1  0.17829600  0.86319000  0.78916500  1
  H  H4  1  0.15743700  0.18770200  0.77326600  1
  H  H5  1  0.28527900  0.30751300  0.79063800  1
  H  H6  1  0.19394600  0.07301300  0.19599600  1
  H  H7  1  0.86479900  0.83500700  0.22276000  1
  H  H8  1  0.68775800  0.78454400  0.78744500  1
  H  H9  1  0.73602300  0.71479800  0.23026900  1
  H  H10  1  0.88008900  0.20325500  0.77572200  1
  H  H11  1  0.68962700  0.19836100  0.20114500  1
  H  H12  1  0.75476800  0.33005800  0.78791500  1
  H  H13  1  0.81336800  0.06858300  0.18536900  1
  H  H14  1  0.00778500  0.79511300  0.03518400  1
  H  H15  1  0.01412000  0.20380600  0.94796800  1
  H  H16  1  0.50423900  0.67526000  0.63679900  1
  H  H17  1  0.51509000  0.28265400  0.77235600  1
  H  H18  1  0.53245600  0.11530600  0.65094200  1
  H  H19  1  0.54069900  0.11160100  0.38958100  1
  H  H20  1  0.52762500  0.27690500  0.25951600  1
  H  H21  1  0.51065400  0.67021800  0.37512800  1
  H  H22  1  0.82153000  0.84738300  0.65597300  1
  H  H23  1  0.88881000  0.95286700  0.73661100  1
  H  H24  1  0.70460100  0.02487900  0.76944700  1
  H  H25  1  0.81779200  0.03586300  0.49926600  1
  H  H26  1  0.71764100  0.12087200  0.54260400  1
  H  H27  1  0.37643800  0.75129700  0.30192200  1
  H  H28  1  0.29897800  0.63455300  0.30496400  1
  H  H29  1  0.19346200  0.76281100  0.44174900  1
  H  H30  1  0.37661700  0.85734200  0.50041700  1
  H  H31  1  0.27465600  0.87912300  0.60578700  1
  H  H32  1  0.34367900  0.27523800  0.30799900  1
  H  H33  1  0.41175800  0.16418500  0.22840500  1
  H  H34  1  0.31502600  0.01858800  0.34060800  1
  H  H35  1  0.27817700  0.23126100  0.51909100  1
  H  H36  1  0.25781800  0.08097200  0.56903600  1
  C  C1  1  0.31156000  0.72860500  0.02272300  1
  C  C2  1  0.08812400  0.94068600  0.00848000  1
  C  C3  1  0.20014500  0.83711000  0.14496400  1
  C  C4  1  0.27729600  0.76622900  0.89366400  1
  C  C5  1  0.27229000  0.76524300  0.15164000  1
  C  C6  1  0.16843500  0.87407000  0.01525600  1
  C  C7  1  0.20652300  0.83799200  0.89028000  1
  C  C8  1  0.31805100  0.25931400  0.00667400  1
  C  C9  1  0.09008500  0.05528700  0.97920800  1
  C  C10  1  0.19603800  0.18700800  0.87046400  1
  C  C11  1  0.29258800  0.19138200  0.12225600  1
  C  C12  1  0.26898500  0.25491600  0.88130600  1
  C  C13  1  0.17188500  0.11937800  0.98331900  1
  C  C14  1  0.21936100  0.12227400  0.10842600  1
  C  C15  1  0.70207800  0.74182900  0.00931100  1
  C  C16  1  0.93140900  0.94347700  0.00150400  1
  C  C17  1  0.82497600  0.82583400  0.12756400  1
  C  C18  1  0.72518700  0.79725800  0.88454800  1
  C  C19  1  0.75168900  0.75810400  0.13162200  1
  C  C20  1  0.84885800  0.88039600  0.00288700  1
  C  C21  1  0.79815600  0.86622900  0.87998700  1
  C  C22  1  0.00892200  0.88538700  0.01820200  1
  C  C23  1  0.71364000  0.27280800  0.99548600  1
  C  C24  1  0.93342900  0.05859400  0.97706000  1
  C  C25  1  0.83720100  0.20039700  0.86788000  1
  C  C26  1  0.73031200  0.19870000  0.10630400  1
  C  C27  1  0.76633900  0.27186900  0.87504500  1
  C  C28  1  0.85342700  0.12568100  0.97785500  1
  C  C29  1  0.79928500  0.12405600  0.09640100  1
  C  C30  1  0.01262900  0.11328700  0.96262700  1
  C  C31  1  0.63028000  0.65921200  0.00908400  1
  C  C32  1  0.64125600  0.35305000  0.00470700  1
  C  C33  1  0.39271000  0.34008000  0.01135000  1
  C  C34  1  0.38622900  0.64798800  0.01596800  1
  C  C35  1  0.51934600  0.29391000  0.66022400  1
  C  C36  1  0.52931200  0.19308900  0.59067800  1
  C  C37  1  0.53402200  0.19107800  0.44594700  1
  C  C38  1  0.52766500  0.28988600  0.37142800  1
  C  C39  1  0.52003200  0.39529500  0.43824200  1
  C  C40  1  0.51612400  0.39790700  0.58820700  1
  C  C41  1  0.50773000  0.59447300  0.58278300  1
  C  C42  1  0.51143900  0.59152000  0.43332500  1
  C  C43  1  0.82258600  0.91562800  0.73779200  1
  C  C44  1  0.75763200  0.00366000  0.69703400  1
  C  C45  1  0.76480700  0.05665500  0.57196900  1
  C  C46  1  0.30669500  0.72737100  0.29539500  1
  C  C47  1  0.26209900  0.77939200  0.42172400  1
  C  C48  1  0.30737400  0.84156500  0.51488700  1
  C  C49  1  0.34492800  0.19033100  0.25808400  1
  C  C50  1  0.31262400  0.10770100  0.36600600  1
  C  C51  1  0.28128800  0.14224500  0.49208200  1
  N  N1  1  0.50927700  0.49854600  0.66065700  1
  N  N2  1  0.51668100  0.49286400  0.36038800  1
  O  O1  1  0.60535500  0.61693900  0.13384600  1
  O  O2  1  0.59835300  0.62601600  0.88373000  1
  O  O3  1  0.60921600  0.39270000  0.88588800  1
  O  O4  1  0.61166200  0.38373900  0.13004600  1
  O  O5  1  0.41878900  0.38365900  0.89030800  1
  O  O6  1  0.42656200  0.37338800  0.13330200  1
  O  O7  1  0.41844100  0.60755500  0.13666000  1
  O  O8  1  0.41640000  0.61748400  0.88796200  1
