# generated using pymatgen
data_ZnH14C18(NO2)2
_symmetry_space_group_name_H-M   'P 1'
_cell_length_a   8.52492500
_cell_length_b   10.83896900
_cell_length_c   13.44567700
_cell_angle_alpha   97.71893600
_cell_angle_beta   90.09553500
_cell_angle_gamma   90.00829300
_symmetry_Int_Tables_number   1
_chemical_formula_structural   ZnH14C18(NO2)2
_chemical_formula_sum   'Zn2 H28 C36 N4 O8'
_cell_volume   1231.14000279
_cell_formula_units_Z   2
loop_
 _symmetry_equiv_pos_site_id
 _symmetry_equiv_pos_as_xyz
  1  'x, y, z'
loop_
 _atom_site_type_symbol
 _atom_site_label
 _atom_site_symmetry_multiplicity
 _atom_site_fract_x
 _atom_site_fract_y
 _atom_site_fract_z
 _atom_site_occupancy
  Zn  Zn1  1  0.50679100  0.51477700  0.11580800  1
  Zn  Zn2  1  0.50950400  0.49822400  0.89174600  1
  H  H1  1  0.61829800  0.90478300  0.01439000  1
  H  H2  1  0.99943000  0.59931000  0.04440800  1
  H  H3  1  0.00971700  0.41484600  0.96492300  1
  H  H4  1  0.26261400  0.90803200  0.98616000  1
  H  H5  1  0.26597000  0.09857500  0.01279600  1
  H  H6  1  0.46823300  0.67942300  0.78121200  1
  H  H7  1  0.53478200  0.33308900  0.23249800  1
  H  H8  1  0.56742100  0.21667000  0.36774700  1
  H  H9  1  0.44025600  0.69867000  0.61072000  1
  H  H10  1  0.47027600  0.71591800  0.46240000  1
  H  H11  1  0.51665700  0.24918000  0.79383100  1
  H  H12  1  0.71404900  0.27226700  0.74872300  1
  H  H13  1  0.66908600  0.13528400  0.60144300  1
  H  H14  1  0.45521500  0.13573500  0.62091200  1
  H  H15  1  0.48187100  0.02219300  0.75883500  1
  H  H16  1  0.69016100  0.05364300  0.77081800  1
  H  H17  1  0.53344400  0.90153400  0.58901300  1
  H  H18  1  0.63220400  0.83750200  0.69059100  1
  H  H19  1  0.74169800  0.92584700  0.60978200  1
  H  H20  1  0.50048900  0.76519500  0.20427200  1
  H  H21  1  0.54799500  0.82467700  0.32888900  1
  H  H22  1  0.27336200  0.81493900  0.38161900  1
  H  H23  1  0.21757000  0.73868100  0.25929200  1
  H  H24  1  0.30628200  0.92401900  0.18315700  1
  H  H25  1  0.36428000  0.99953300  0.30592600  1
  H  H26  1  0.03137000  0.91191700  0.24254900  1
  H  H27  1  0.10216100  0.07063800  0.25719700  1
  H  H28  1  0.08950700  0.98821900  0.36527100  1
  C  C1  1  0.00280100  0.69467900  0.03104500  1
  C  C2  1  0.14382700  0.74920100  0.01603800  1
  C  C3  1  0.14895200  0.87200000  0.00113700  1
  C  C4  1  0.86486500  0.75663700  0.02103900  1
  C  C5  1  0.86814000  0.88275700  0.01145500  1
  C  C6  1  0.01146000  0.94246300  0.00549400  1
  C  C7  1  0.01293700  0.07032100  0.00051600  1
  C  C8  1  0.15254900  0.13724800  0.00096900  1
  C  C9  1  0.14992200  0.26027200  0.98718400  1
  C  C10  1  0.73049000  0.95001300  0.00972700  1
  C  C11  1  0.87121300  0.13404100  0.99900500  1
  C  C12  1  0.87094300  0.26046100  0.99069300  1
  C  C13  1  0.01004800  0.31909800  0.97732300  1
  C  C14  1  0.28490900  0.67223500  0.01087400  1
  C  C15  1  0.29238300  0.33480500  0.99272200  1
  C  C16  1  0.72908200  0.33786900  0.99650800  1
  C  C17  1  0.72236200  0.68058300  0.01507200  1
  C  C18  1  0.53722600  0.38317800  0.69126100  1
  C  C19  1  0.48266000  0.59647700  0.72811200  1
  C  C20  1  0.47215200  0.60841100  0.62819300  1
  C  C21  1  0.49937600  0.50755800  0.55622600  1
  C  C22  1  0.52994100  0.39388400  0.58832200  1
  C  C23  1  0.48166200  0.62847200  0.41522600  1
  C  C24  1  0.49933800  0.51703400  0.45336300  1
  C  C25  1  0.52206500  0.41190500  0.38577800  1
  C  C26  1  0.54811100  0.29999000  0.42014500  1
  C  C27  1  0.48492800  0.63325900  0.31322800  1
  C  C28  1  0.52118100  0.41798000  0.28377800  1
  C  C29  1  0.58822200  0.26340700  0.72826900  1
  C  C30  1  0.57255600  0.14272200  0.65705800  1
  C  C31  1  0.59151800  0.03478000  0.71704500  1
  C  C32  1  0.62681200  0.91702700  0.64678100  1
  C  C33  1  0.46772400  0.76023400  0.28223700  1
  C  C34  1  0.30044100  0.80605200  0.30039800  1
  C  C35  1  0.28140300  0.93215100  0.26467900  1
  C  C36  1  0.11508200  0.97862300  0.28375200  1
  N  N1  1  0.73440000  0.07309300  0.00382800  1
  N  N2  1  0.51264100  0.48620400  0.75990300  1
  N  N3  1  0.55362500  0.29396900  0.51916500  1
  N  N4  1  0.50400900  0.52737500  0.24751200  1
  O  O1  1  0.33689900  0.62478000  0.92205700  1
  O  O2  1  0.33961100  0.64020800  0.09488000  1
  O  O3  1  0.34131400  0.38297300  0.08225200  1
  O  O4  1  0.34704200  0.36772500  0.90894400  1
  O  O5  1  0.67821700  0.38700900  0.08543400  1
  O  O6  1  0.67629400  0.37256500  0.91296400  1
  O  O7  1  0.67432500  0.63067100  0.92573400  1
  O  O8  1  0.66962800  0.64494300  0.09820300  1
