# generated using pymatgen
data_Zn3H16(C15O7)2
_symmetry_space_group_name_H-M   'P 1'
_cell_length_a   28.98455400
_cell_length_b   18.60689400
_cell_length_c   18.61934600
_cell_angle_alpha   90.00000000
_cell_angle_beta   131.00904800
_cell_angle_gamma   90.00000000
_symmetry_Int_Tables_number   1
_chemical_formula_structural   Zn3H16(C15O7)2
_chemical_formula_sum   'Zn12 H64 C120 O56'
_cell_volume   7577.48636287
_cell_formula_units_Z   4
loop_
 _symmetry_equiv_pos_site_id
 _symmetry_equiv_pos_as_xyz
  1  'x, y, z'
loop_
 _atom_site_type_symbol
 _atom_site_label
 _atom_site_symmetry_multiplicity
 _atom_site_fract_x
 _atom_site_fract_y
 _atom_site_fract_z
 _atom_site_occupancy
  Zn  Zn1  1  0.49974800  0.91506700  0.49957600  1
  Zn  Zn2  1  0.99974800  0.41506700  0.49957600  1
  Zn  Zn3  1  0.49981000  0.07784600  0.49991200  1
  Zn  Zn4  1  0.99981000  0.57784600  0.49991200  1
  Zn  Zn5  1  0.00007900  0.00111500  0.08143000  1
  Zn  Zn6  1  0.99952000  0.00119400  0.91810300  1
  Zn  Zn7  1  0.50007900  0.50111500  0.08143000  1
  Zn  Zn8  1  0.49952000  0.50119400  0.91810300  1
  Zn  Zn9  1  0.56896800  0.00068200  0.07058000  1
  Zn  Zn10  1  0.43039000  0.00097500  0.92870000  1
  Zn  Zn11  1  0.06896800  0.50068200  0.07058000  1
  Zn  Zn12  1  0.93039000  0.50097500  0.92870000  1
  H  H1  1  0.62888700  0.77201300  0.86352300  1
  H  H2  1  0.37031800  0.76402200  0.14153000  1
  H  H3  1  0.12888700  0.27201300  0.86352300  1
  H  H4  1  0.87031800  0.26402200  0.14153000  1
  H  H5  1  0.64036900  0.73436400  0.74986200  1
  H  H6  1  0.35538900  0.72838400  0.25174100  1
  H  H7  1  0.14036900  0.23436400  0.74986200  1
  H  H8  1  0.85538900  0.22838400  0.25174100  1
  H  H9  1  0.68316400  0.81775500  0.70433800  1
  H  H10  1  0.31269800  0.81424000  0.29508000  1
  H  H11  1  0.18316400  0.31775500  0.70433800  1
  H  H12  1  0.81269800  0.31424000  0.29508000  1
  H  H13  1  0.70240700  0.97783500  0.88582600  1
  H  H14  1  0.30065900  0.97283600  0.11854200  1
  H  H15  1  0.20240700  0.47783500  0.88582600  1
  H  H16  1  0.80065900  0.47283600  0.11854200  1
  H  H17  1  0.81100600  0.92202600  0.89007700  1
  H  H18  1  0.18830000  0.91880700  0.11109500  1
  H  H19  1  0.31100600  0.42202600  0.89007700  1
  H  H20  1  0.68830000  0.41880700  0.11109500  1
  H  H21  1  0.68879500  0.07986000  0.61040500  1
  H  H22  1  0.31130100  0.07970400  0.38753600  1
  H  H23  1  0.18879500  0.57986000  0.61040500  1
  H  H24  1  0.81130100  0.57970400  0.38753600  1
  H  H25  1  0.83080100  0.13188100  0.55803500  1
  H  H26  1  0.16972800  0.13650000  0.43951400  1
  H  H27  1  0.33080100  0.63188100  0.55803500  1
  H  H28  1  0.66972800  0.63650000  0.43951400  1
  H  H29  1  0.87860000  0.23858900  0.65868500  1
  H  H30  1  0.12349400  0.24317100  0.33844800  1
  H  H31  1  0.37860000  0.73858900  0.65868500  1
  H  H32  1  0.62349400  0.74317100  0.33844800  1
  H  H33  1  0.88096900  0.25530700  0.79193300  1
  H  H34  1  0.12168100  0.25766000  0.20549800  1
  H  H35  1  0.38096900  0.75530700  0.79193300  1
  H  H36  1  0.62168100  0.75766000  0.20549800  1
  H  H37  1  0.83533900  0.16464300  0.82460100  1
  H  H38  1  0.16610400  0.16468500  0.17332000  1
  H  H39  1  0.33533900  0.66464300  0.82460100  1
  H  H40  1  0.66610400  0.66468500  0.17332000  1
  H  H41  1  0.63761300  0.85829600  0.96303300  1
  H  H42  1  0.63206000  0.95027100  0.92737200  1
  H  H43  1  0.73720900  0.86650300  0.06389700  1
  H  H44  1  0.36514400  0.84910400  0.04427800  1
  H  H45  1  0.37304200  0.94114700  0.08126300  1
  H  H46  1  0.26599900  0.86154100  0.94087800  1
  H  H47  1  0.13761300  0.35829600  0.96303300  1
  H  H48  1  0.13206000  0.45027100  0.92737200  1
  H  H49  1  0.23720900  0.36650300  0.06389700  1
  H  H50  1  0.86514400  0.34910400  0.04427800  1
  H  H51  1  0.87304200  0.44114700  0.08126300  1
  H  H52  1  0.76599900  0.36154100  0.94087800  1
  H  H53  1  0.77959200  0.02508700  0.51517700  1
  H  H54  1  0.72829900  0.01762300  0.53725800  1
  H  H55  1  0.84663400  0.96057000  0.63723700  1
  H  H56  1  0.21979200  0.02877200  0.48321300  1
  H  H57  1  0.27096500  0.01907900  0.46114200  1
  H  H58  1  0.15207100  0.96423200  0.36187200  1
  H  H59  1  0.27959200  0.52508700  0.51517700  1
  H  H60  1  0.22829900  0.51762300  0.53725800  1
  H  H61  1  0.34663400  0.46057000  0.63723700  1
  H  H62  1  0.71979200  0.52877200  0.48321300  1
  H  H63  1  0.77096500  0.51907900  0.46114200  1
  H  H64  1  0.65207100  0.46423200  0.36187200  1
  C  C1  1  0.49950500  0.99815000  0.35897600  1
  C  C2  1  0.50004700  0.99500100  0.64049500  1
  C  C3  1  0.99950500  0.49815000  0.35897600  1
  C  C4  1  0.00004700  0.49500100  0.64049500  1
  C  C5  1  0.61953400  0.99773100  0.62229400  1
  C  C6  1  0.38003300  0.99493200  0.37720400  1
  C  C7  1  0.11953400  0.49773100  0.62229400  1
  C  C8  1  0.88003300  0.49493200  0.37720400  1
  C  C9  1  0.65361800  0.78801300  0.77932000  1
  C  C10  1  0.34371700  0.78222300  0.22286300  1
  C  C11  1  0.15361800  0.28801300  0.77932000  1
  C  C12  1  0.84371700  0.28222300  0.22286300  1
  C  C13  1  0.67746300  0.83482300  0.75360200  1
  C  C14  1  0.31991800  0.83040100  0.24734100  1
  C  C15  1  0.17746300  0.33482300  0.75360200  1
  C  C16  1  0.81991800  0.33040100  0.24734100  1
  C  C17  1  0.69376000  0.90357900  0.79033300  1
  C  C18  1  0.30557400  0.89934800  0.21128700  1
  C  C19  1  0.19376000  0.40357900  0.79033300  1
  C  C20  1  0.80557400  0.39934800  0.21128700  1
  C  C21  1  0.68822800  0.92452000  0.85538900  1
  C  C22  1  0.31322200  0.91928100  0.14835900  1
  C  C23  1  0.18822800  0.42452000  0.85538900  1
  C  C24  1  0.81322200  0.41928100  0.14835900  1
  C  C25  1  0.66500900  0.87749600  0.88201800  1
  C  C26  1  0.33636900  0.87088100  0.12291000  1
  C  C27  1  0.16500900  0.37749600  0.88201800  1
  C  C28  1  0.83636900  0.37088100  0.12291000  1
  C  C29  1  0.64718900  0.80932600  0.84326800  1
  C  C30  1  0.35209600  0.80241400  0.16086000  1
  C  C31  1  0.14718900  0.30932600  0.84326800  1
  C  C32  1  0.85209600  0.30241400  0.16086000  1
  C  C33  1  0.78424600  0.95623900  0.82790900  1
  C  C34  1  0.21518300  0.95377100  0.17250000  1
  C  C35  1  0.28424600  0.45623900  0.82790900  1
  C  C36  1  0.71518300  0.45377100  0.17250000  1
  C  C37  1  0.81316200  0.00131400  0.80951300  1
  C  C38  1  0.18646900  0.00020800  0.18999900  1
  C  C39  1  0.31316200  0.50131400  0.80951300  1
  C  C40  1  0.68646900  0.50020800  0.18999900  1
  C  C41  1  0.77845800  0.04464000  0.72924500  1
  C  C42  1  0.22143400  0.04443500  0.26942000  1
  C  C43  1  0.27845800  0.54464000  0.72924500  1
  C  C44  1  0.72143400  0.54443500  0.26942000  1
  C  C45  1  0.71553700  0.04410100  0.67098200  1
  C  C46  1  0.28434000  0.04339200  0.32758700  1
  C  C47  1  0.21553700  0.54410100  0.67098200  1
  C  C48  1  0.78434000  0.54339200  0.32758700  1
  C  C49  1  0.68653400  0.99747600  0.68787100  1
  C  C50  1  0.31306900  0.99549600  0.31153400  1
  C  C51  1  0.18653400  0.49747600  0.68787100  1
  C  C52  1  0.81306900  0.49549600  0.31153400  1
  C  C53  1  0.72138900  0.95233800  0.76636500  1
  C  C54  1  0.27802700  0.94955400  0.23400500  1
  C  C55  1  0.22138900  0.45233800  0.76636500  1
  C  C56  1  0.77802700  0.44955400  0.23400500  1
  C  C57  1  0.80538700  0.08704000  0.63391000  1
  C  C58  1  0.19470600  0.08940300  0.36406600  1
  C  C59  1  0.30538700  0.58704000  0.63391000  1
  C  C60  1  0.69470600  0.58940300  0.36406600  1
  C  C61  1  0.83137800  0.13839200  0.61630100  1
  C  C62  1  0.16931700  0.14198700  0.38130800  1
  C  C63  1  0.33137800  0.63839200  0.61630100  1
  C  C64  1  0.66931700  0.64198700  0.38130800  1
  C  C65  1  0.85849200  0.19859700  0.67300000  1
  C  C66  1  0.14309200  0.20217700  0.32438200  1
  C  C67  1  0.35849200  0.69859700  0.67300000  1
  C  C68  1  0.64309200  0.70217700  0.32438200  1
  C  C69  1  0.85996400  0.20788100  0.74781300  1
  C  C70  1  0.14191000  0.21020400  0.24970800  1
  C  C71  1  0.35996400  0.70788100  0.74781300  1
  C  C72  1  0.64191000  0.71020400  0.24970800  1
  C  C73  1  0.83443200  0.15686800  0.76615000  1
  C  C74  1  0.16677000  0.15791100  0.23165600  1
  C  C75  1  0.33443200  0.65686800  0.76615000  1
  C  C76  1  0.66677000  0.65791100  0.23165600  1
  C  C77  1  0.80708600  0.09639000  0.70965000  1
  C  C78  1  0.19322400  0.09745000  0.28839300  1
  C  C79  1  0.30708600  0.59639000  0.70965000  1
  C  C80  1  0.69322400  0.59745000  0.28839300  1
  C  C81  1  0.49993600  0.99858100  0.28227500  1
  C  C82  1  0.49949700  0.99584700  0.71708300  1
  C  C83  1  0.99993600  0.49858100  0.28227500  1
  C  C84  1  0.99949700  0.49584700  0.71708300  1
  C  C85  1  0.50041700  0.99981000  0.21801600  1
  C  C86  1  0.49894700  0.99756600  0.78126800  1
  C  C87  1  0.00041700  0.49981000  0.21801600  1
  C  C88  1  0.99894700  0.49756600  0.78126800  1
  C  C89  1  0.99995900  0.14160900  0.00130400  1
  C  C90  1  0.49995900  0.64160900  0.00130400  1
  C  C91  1  0.88009500  0.00202700  0.87632800  1
  C  C92  1  0.11950900  0.00134800  0.12312400  1
  C  C93  1  0.38009500  0.50202700  0.87632800  1
  C  C94  1  0.61950900  0.50134800  0.12312400  1
  C  C95  1  0.99961500  0.86061400  0.99819200  1
  C  C96  1  0.49961500  0.36061400  0.99819200  1
  C  C97  1  0.49872200  0.14143800  0.99806500  1
  C  C98  1  0.99872200  0.64143800  0.99806500  1
  C  C99  1  0.50088600  0.00124600  0.14136200  1
  C  C100  1  0.49848400  0.99975300  0.85792300  1
  C  C101  1  0.00088600  0.50124600  0.14136200  1
  C  C102  1  0.99848400  0.49975300  0.85792300  1
  C  C103  1  0.50063600  0.86038500  0.00121600  1
  C  C104  1  0.00063600  0.36038500  0.00121600  1
  C  C105  1  0.00008600  0.21864000  0.00116700  1
  C  C106  1  0.50008600  0.71864000  0.00116700  1
  C  C107  1  0.50028100  0.78335200  0.00113200  1
  C  C108  1  0.00028100  0.28335200  0.00113200  1
  C  C109  1  0.99937100  0.78342700  0.99820900  1
  C  C110  1  0.49937100  0.28342700  0.99820900  1
  C  C111  1  0.49909800  0.21862500  0.99816300  1
  C  C112  1  0.99909800  0.71862500  0.99816300  1
  C  C113  1  0.65988200  0.90061300  0.95303600  1
  C  C114  1  0.34362300  0.89278000  0.05392700  1
  C  C115  1  0.15988200  0.40061300  0.95303600  1
  C  C116  1  0.84362300  0.39278000  0.05392700  1
  C  C117  1  0.77716600  0.02174500  0.57205800  1
  C  C118  1  0.22215800  0.02428100  0.42634100  1
  C  C119  1  0.27716600  0.52174500  0.57205800  1
  C  C120  1  0.72215800  0.52428100  0.42634100  1
  O  O1  1  0.49843600  0.93606000  0.39141600  1
  O  O2  1  0.49812000  0.93281900  0.60528500  1
  O  O3  1  0.99843600  0.43606000  0.39141600  1
  O  O4  1  0.99812000  0.43281900  0.60528500  1
  O  O5  1  0.50067500  0.06017300  0.39347300  1
  O  O6  1  0.50188600  0.05688000  0.60876900  1
  O  O7  1  0.00067500  0.56017300  0.39347300  1
  O  O8  1  0.00188600  0.55688000  0.60876900  1
  O  O9  1  0.59061600  0.93601000  0.59432900  1
  O  O10  1  0.40842200  0.93290300  0.40770700  1
  O  O11  1  0.09061600  0.43601000  0.59432900  1
  O  O12  1  0.90842200  0.43290300  0.40770700  1
  O  O13  1  0.59116900  0.05989400  0.59086000  1
  O  O14  1  0.40887100  0.05688700  0.40609200  1
  O  O15  1  0.09116900  0.55989400  0.59086000  1
  O  O16  1  0.90887100  0.55688700  0.40609200  1
  O  O17  1  0.00125200  0.10849400  0.06478200  1
  O  O18  1  0.99865600  0.10807400  0.93800400  1
  O  O19  1  0.50125200  0.60849400  0.06478200  1
  O  O20  1  0.49865600  0.60807400  0.93800400  1
  O  O21  1  0.90916500  0.00222100  0.96770100  1
  O  O22  1  0.09042000  0.99866700  0.03180100  1
  O  O23  1  0.40916500  0.50222100  0.96770100  1
  O  O24  1  0.59042000  0.49866700  0.03180100  1
  O  O25  1  0.90812800  0.00026000  0.84268100  1
  O  O26  1  0.09144800  0.00295200  0.15672400  1
  O  O27  1  0.40812800  0.50026000  0.84268100  1
  O  O28  1  0.59144800  0.50295200  0.15672400  1
  O  O29  1  0.00183900  0.89425000  0.06235300  1
  O  O30  1  0.99740200  0.89383100  0.93385500  1
  O  O31  1  0.50183900  0.39425000  0.06235300  1
  O  O32  1  0.49740200  0.39383100  0.93385500  1
  O  O33  1  0.55135500  0.10765100  0.05388300  1
  O  O34  1  0.44578800  0.10836800  0.94213900  1
  O  O35  1  0.05135500  0.60765100  0.05388300  1
  O  O36  1  0.94578800  0.60836800  0.94213900  1
  O  O37  1  0.55385400  0.99945700  0.16248000  1
  O  O38  1  0.44551800  0.00203100  0.83680700  1
  O  O39  1  0.05385400  0.49945700  0.16248000  1
  O  O40  1  0.94551800  0.50203100  0.83680700  1
  O  O41  1  0.44825500  0.00310200  0.05377400  1
  O  O42  1  0.55110300  0.99845100  0.94551600  1
  O  O43  1  0.94825500  0.50310200  0.05377400  1
  O  O44  1  0.05110300  0.49845100  0.94551600  1
  O  O45  1  0.55361800  0.89335100  0.05713100  1
  O  O46  1  0.44794900  0.89406300  0.94539800  1
  O  O47  1  0.05361800  0.39335100  0.05713100  1
  O  O48  1  0.94794900  0.39406300  0.94539800  1
  O  O49  1  0.71801900  0.91448200  0.03980600  1
  O  O50  1  0.28647600  0.90875800  0.96649000  1
  O  O51  1  0.21801900  0.41448200  0.03980600  1
  O  O52  1  0.78647600  0.40875800  0.96649000  1
  O  O53  1  0.80827900  0.96031200  0.62628500  1
  O  O54  1  0.19031400  0.96295200  0.37252600  1
  O  O55  1  0.30827900  0.46031200  0.62628500  1
  O  O56  1  0.69031400  0.46295200  0.37252600  1
