# generated using pymatgen
data_CuH8C17N3O4
_symmetry_space_group_name_H-M   'P 1'
_cell_length_a   14.64190900
_cell_length_b   18.00670400
_cell_length_c   6.69280000
_cell_angle_alpha   90.00000000
_cell_angle_beta   98.07112600
_cell_angle_gamma   90.00000000
_symmetry_Int_Tables_number   1
_chemical_formula_structural   CuH8C17N3O4
_chemical_formula_sum   'Cu2 H16 C34 N6 O8'
_cell_volume   1747.09467942
_cell_formula_units_Z   2
loop_
 _symmetry_equiv_pos_site_id
 _symmetry_equiv_pos_as_xyz
  1  'x, y, z'
loop_
 _atom_site_type_symbol
 _atom_site_label
 _atom_site_symmetry_multiplicity
 _atom_site_fract_x
 _atom_site_fract_y
 _atom_site_fract_z
 _atom_site_occupancy
  Cu  Cu1  1  0.00226300  0.92543300  0.99308600  1
  Cu  Cu2  1  0.99727400  0.07177600  0.01493700  1
  H  H1  1  0.01813500  0.20000300  0.33796300  1
  H  H2  1  0.03024400  0.80031800  0.30298500  1
  H  H3  1  0.01958800  0.33674000  0.33405600  1
  H  H4  1  0.03012400  0.66397500  0.31027900  1
  H  H5  1  0.97324500  0.33177500  0.69174700  1
  H  H6  1  0.98111400  0.66189700  0.66799600  1
  H  H7  1  0.97233500  0.19539700  0.70375600  1
  H  H8  1  0.98169900  0.79872600  0.66881000  1
  H  H9  1  0.76879200  0.03428800  0.90997100  1
  H  H10  1  0.62162400  0.04416700  0.04490900  1
  H  H11  1  0.29339800  0.02914500  0.95485000  1
  H  H12  1  0.29235700  0.98059000  0.23312200  1
  H  H13  1  0.45233500  0.98106600  0.28020200  1
  H  H14  1  0.45836700  0.03708500  0.99947700  1
  H  H15  1  0.56538500  0.96405600  0.18414600  1
  H  H16  1  0.71117000  0.95842700  0.05847800  1
  C  C1  1  0.87291900  0.00158100  0.69023000  1
  C  C2  1  0.87510200  0.99007300  0.24475100  1
  C  C3  1  0.12550000  0.99612200  0.32115300  1
  C  C4  1  0.12615400  0.00639400  0.76779500  1
  C  C5  1  0.00774000  0.22940600  0.19575600  1
  C  C6  1  0.02002800  0.76948600  0.16303500  1
  C  C7  1  0.00869700  0.30612700  0.19378600  1
  C  C8  1  0.01985700  0.69299600  0.16749400  1
  C  C9  1  0.99646400  0.34345700  0.01219500  1
  C  C10  1  0.00564200  0.65372700  0.98962000  1
  C  C11  1  0.98283800  0.30340400  0.83550700  1
  C  C12  1  0.99251900  0.69187400  0.80923900  1
  C  C13  1  0.98223300  0.22689700  0.84261000  1
  C  C14  1  0.99298800  0.76865700  0.80991900  1
  C  C15  1  0.00353600  0.57265200  0.99449800  1
  C  C16  1  0.99866200  0.42451100  0.00613400  1
  C  C17  1  0.62353500  0.99567300  0.48616200  1
  C  C18  1  0.70549000  0.00744900  0.61239900  1
  C  C19  1  0.70450300  0.02454800  0.81261300  1
  C  C20  1  0.62201300  0.03022400  0.88798800  1
  C  C21  1  0.53999300  0.01889300  0.76330200  1
  C  C22  1  0.54007000  0.00214500  0.56166400  1
  C  C23  1  0.45783300  0.02451700  0.84138800  1
  C  C24  1  0.37515100  0.01440400  0.71810300  1
  C  C25  1  0.37474900  0.99890500  0.51720200  1
  C  C26  1  0.45646400  0.99269400  0.43878600  1
  C  C27  1  0.29289200  0.01928300  0.79539100  1
  C  C28  1  0.20982300  0.00974600  0.67176700  1
  C  C29  1  0.20960100  0.99643300  0.46742800  1
  C  C30  1  0.29232100  0.99040200  0.39245800  1
  C  C31  1  0.62666600  0.97607500  0.28750700  1
  C  C32  1  0.70991300  0.97184000  0.21540000  1
  C  C33  1  0.79128500  0.98585700  0.33939400  1
  C  C34  1  0.78940700  0.00131100  0.54148100  1
  N  N1  1  0.99479300  0.19111600  0.02111500  1
  N  N2  1  0.00642100  0.80612000  0.98591600  1
  N  N3  1  0.98713700  0.46012000  0.82754000  1
  N  N4  1  0.98948200  0.53351900  0.82170000  1
  N  N5  1  0.01503800  0.53702400  0.17299400  1
  N  N6  1  0.01267000  0.46365700  0.17883400  1
  O  O1  1  0.90768800  0.93749000  0.75770500  1
  O  O2  1  0.89994900  0.06379300  0.78275200  1
  O  O3  1  0.90582800  0.92961000  0.16770300  1
  O  O4  1  0.90454300  0.05553500  0.19511400  1
  O  O5  1  0.09845800  0.93405700  0.22815700  1
  O  O6  1  0.09167400  0.05992800  0.25063000  1
  O  O7  1  0.09630700  0.94099400  0.81693800  1
  O  O8  1  0.09446300  0.06750000  0.84074600  1
