# generated using pymatgen
data_CuH16C29(NO4)2
_symmetry_space_group_name_H-M   'P 1'
_cell_length_a   23.34018100
_cell_length_b   15.91665400
_cell_length_c   14.47513500
_cell_angle_alpha   90.00706100
_cell_angle_beta   89.99898400
_cell_angle_gamma   90.00806500
_symmetry_Int_Tables_number   1
_chemical_formula_structural   CuH16C29(NO4)2
_chemical_formula_sum   'Cu2 H32 C58 N4 O16'
_cell_volume   5377.47760407
_cell_formula_units_Z   2
loop_
 _symmetry_equiv_pos_site_id
 _symmetry_equiv_pos_as_xyz
  1  'x, y, z'
loop_
 _atom_site_type_symbol
 _atom_site_label
 _atom_site_symmetry_multiplicity
 _atom_site_fract_x
 _atom_site_fract_y
 _atom_site_fract_z
 _atom_site_occupancy
  Cu  Cu1  1  0.50017400  0.50046300  0.59303000  1
  Cu  Cu2  1  0.50028400  0.49953600  0.40823100  1
  H  H1  1  0.95004300  0.30875100  0.40480100  1
  H  H2  1  0.05041600  0.69124800  0.59646200  1
  H  H3  1  0.05348000  0.31060900  0.40472200  1
  H  H4  1  0.94697900  0.68939000  0.59654200  1
  H  H5  1  0.21544200  0.49611900  0.35349400  1
  H  H6  1  0.78501600  0.50388000  0.64776900  1
  H  H7  1  0.31965200  0.49576800  0.35297400  1
  H  H8  1  0.68080600  0.50423100  0.64828800  1
  H  H9  1  0.31951900  0.51193200  0.64834800  1
  H  H10  1  0.68094000  0.48806800  0.35291400  1
  H  H11  1  0.21530200  0.51133500  0.64759700  1
  H  H12  1  0.78515600  0.48866400  0.35366500  1
  H  H13  1  0.58171900  0.94990800  0.59036400  1
  H  H14  1  0.41873900  0.05009100  0.41089900  1
  H  H15  1  0.51046800  0.94959000  0.34245800  1
  H  H16  1  0.48999100  0.05040900  0.65880500  1
  H  H17  1  0.40545500  0.53483700  0.05849000  1
  H  H18  1  0.59500300  0.46516200  0.94277200  1
  H  H19  1  0.47359000  0.63820900  0.94382000  1
  H  H20  1  0.52686900  0.36179000  0.05744100  1
  H  H21  1  0.43208100  0.39747800  0.94241100  1
  H  H22  1  0.56837700  0.60252100  0.05885000  1
  H  H23  1  0.66552200  0.15460700  0.30957000  1
  H  H24  1  0.69843700  0.15201200  0.42317000  1
  H  H25  1  0.62290900  0.29357700  0.34587800  1
  H  H26  1  0.70021500  0.29563400  0.35677600  1
  H  H27  1  0.65570200  0.29086700  0.45911800  1
  H  H28  1  0.30202200  0.84798600  0.57808800  1
  H  H29  1  0.33493400  0.84539300  0.69169000  1
  H  H30  1  0.34475900  0.70913100  0.54214500  1
  H  H31  1  0.30024300  0.70436500  0.64448300  1
  H  H32  1  0.37754800  0.70642300  0.65538700  1
  C  C1  1  0.49827600  0.33881300  0.50123900  1
  C  C2  1  0.50218300  0.66118600  0.50002200  1
  C  C3  1  0.39008100  0.50274700  0.50079900  1
  C  C4  1  0.61037800  0.49725200  0.50046200  1
  C  C5  1  0.88117900  0.56484500  0.53444200  1
  C  C6  1  0.11927900  0.43515400  0.46682200  1
  C  C7  1  0.88224200  0.43090200  0.46699800  1
  C  C8  1  0.11821700  0.56909700  0.53426500  1
  C  C9  1  0.94150600  0.43108700  0.46635900  1
  C  C10  1  0.05895200  0.56891200  0.53490500  1
  C  C11  1  0.97067000  0.49946400  0.50066000  1
  C  C12  1  0.02978900  0.50053500  0.50060400  1
  C  C13  1  0.94042200  0.56677300  0.53500600  1
  C  C14  1  0.06003600  0.43322500  0.46625700  1
  C  C15  1  0.97180400  0.36329200  0.43206600  1
  C  C16  1  0.02865400  0.63670600  0.56919700  1
  C  C17  1  0.03084300  0.36435600  0.43202200  1
  C  C18  1  0.96961600  0.63564300  0.56924200  1
  C  C19  1  0.23832000  0.49921400  0.41834000  1
  C  C20  1  0.76213800  0.50078500  0.58292300  1
  C  C21  1  0.29738400  0.49934700  0.41829100  1
  C  C22  1  0.70307400  0.50065200  0.58297100  1
  C  C23  1  0.32724500  0.50370200  0.50068300  1
  C  C24  1  0.67321300  0.49629700  0.50057900  1
  C  C25  1  0.29730400  0.50842700  0.58297900  1
  C  C26  1  0.70315400  0.49157200  0.41828300  1
  C  C27  1  0.23823600  0.50849300  0.58279100  1
  C  C28  1  0.76222200  0.49150600  0.41847200  1
  C  C29  1  0.20850800  0.50361900  0.50053800  1
  C  C30  1  0.79195100  0.49638000  0.50072400  1
  C  C31  1  0.54443200  0.97318600  0.55040100  1
  C  C32  1  0.45602700  0.02681300  0.45086200  1
  C  C33  1  0.54739500  0.02840800  0.46534500  1
  C  C34  1  0.45306300  0.97159100  0.53591800  1
  C  C35  1  0.49777300  0.24872100  0.50182700  1
  C  C36  1  0.50268500  0.75127700  0.49943500  1
  C  C37  1  0.49518200  0.02699400  0.58714500  1
  C  C38  1  0.50527600  0.97300500  0.41411800  1
  C  C39  1  0.49896500  0.08115800  0.50147200  1
  C  C40  1  0.50149400  0.91884100  0.49979100  1
  C  C41  1  0.49791500  0.17304600  0.50196900  1
  C  C42  1  0.50254300  0.82695300  0.49929400  1
  C  C43  1  0.48566800  0.57553000  0.97098400  1
  C  C44  1  0.51479000  0.42446900  0.03027700  1
  C  C45  1  0.44843400  0.51905400  0.03084400  1
  C  C46  1  0.55202500  0.48094500  0.97041700  1
  C  C47  1  0.53747000  0.55604000  0.03104000  1
  C  C48  1  0.46298800  0.44395900  0.97022200  1
  C  C49  1  0.50023600  0.49957000  0.08910200  1
  C  C50  1  0.50022300  0.50042900  0.91216000  1
  C  C51  1  0.50024400  0.49919400  0.19014500  1
  C  C52  1  0.50021400  0.50080500  0.81111600  1
  C  C53  1  0.60189800  0.06059600  0.42471400  1
  C  C54  1  0.66133200  0.17504500  0.38253200  1
  C  C55  1  0.65996700  0.27011300  0.38629600  1
  C  C56  1  0.39856000  0.93940300  0.57654800  1
  C  C57  1  0.33912600  0.82495400  0.61872900  1
  C  C58  1  0.34049100  0.72988600  0.61496600  1
  N  N1  1  0.85309000  0.49735800  0.50076000  1
  N  N2  1  0.14736800  0.50264000  0.50050300  1
  N  N3  1  0.50025300  0.49903200  0.27006600  1
  N  N4  1  0.50020600  0.50096600  0.73119500  1
  O  O1  1  0.49672100  0.37840500  0.58044000  1
  O  O2  1  0.50373700  0.62159400  0.42082100  1
  O  O3  1  0.50086700  0.37745100  0.42155200  1
  O  O4  1  0.49959200  0.62254800  0.57970900  1
  O  O5  1  0.41695300  0.50544300  0.58019800  1
  O  O6  1  0.58350600  0.49455600  0.42106400  1
  O  O7  1  0.41701600  0.49873500  0.42150400  1
  O  O8  1  0.58344200  0.50126400  0.57975800  1
  O  O9  1  0.85133600  0.63121300  0.56570800  1
  O  O10  1  0.14912200  0.36878600  0.43555500  1
  O  O11  1  0.85345700  0.36354600  0.43567500  1
  O  O12  1  0.14700100  0.63645300  0.56558800  1
  O  O13  1  0.63780300  0.01108700  0.39680300  1
  O  O14  1  0.61150000  0.14394900  0.41921200  1
  O  O15  1  0.36265500  0.98891200  0.60445800  1
  O  O16  1  0.38895900  0.85605000  0.58205100  1
