# generated using pymatgen
data_V4H34C69O20
_symmetry_space_group_name_H-M   'P 1'
_cell_length_a   6.69882700
_cell_length_b   20.02087200
_cell_length_c   23.44980400
_cell_angle_alpha   91.06755300
_cell_angle_beta   90.70846800
_cell_angle_gamma   89.15801000
_symmetry_Int_Tables_number   1
_chemical_formula_structural   V4H34C69O20
_chemical_formula_sum   'V4 H34 C69 O20'
_cell_volume   3143.88691845
_cell_formula_units_Z   1
loop_
 _symmetry_equiv_pos_site_id
 _symmetry_equiv_pos_as_xyz
  1  'x, y, z'
loop_
 _atom_site_type_symbol
 _atom_site_label
 _atom_site_symmetry_multiplicity
 _atom_site_fract_x
 _atom_site_fract_y
 _atom_site_fract_z
 _atom_site_occupancy
  V  V1  1  0.23662500  0.49693300  0.49452000  1
  V  V2  1  0.73707700  0.50088300  0.50897100  1
  V  V3  1  0.59541600  0.00471900  0.00919400  1
  V  V4  1  0.09442100  0.99940400  0.99706700  1
  H  H1  1  0.47451600  0.67060100  0.79812500  1
  H  H2  1  0.80205000  0.64214800  0.64328500  1
  H  H3  1  0.29190500  0.69872500  0.54490100  1
  H  H4  1  0.28651300  0.85408200  0.69361700  1
  H  H5  1  0.42707900  0.72305200  0.88621200  1
  H  H6  1  0.51133500  0.81054700  0.95659900  1
  H  H7  1  0.97487300  0.87725800  0.85248100  1
  H  H8  1  0.64363100  0.65807200  0.70946500  1
  H  H9  1  0.10906600  0.86937600  0.78095000  1
  H  H10  1  0.35455100  0.79409300  0.60961700  1
  H  H11  1  0.10528100  0.27122300  0.83617100  1
  H  H12  1  0.82651700  0.35230200  0.77790300  1
  H  H13  1  0.28939300  0.24024900  0.73118000  1
  H  H14  1  0.03747500  0.12866500  0.71876300  1
  H  H15  1  0.75858100  0.20986300  0.66040600  1
  H  H16  1  0.57458100  0.24084200  0.76546800  1
  H  H17  1  0.31536800  0.63587200  0.21956000  1
  H  H18  1  0.61059200  0.70437200  0.16009100  1
  H  H19  1  0.08415400  0.75488400  0.22351000  1
  H  H20  1  0.26861900  0.78776000  0.32903600  1
  H  H21  1  0.56374500  0.85623700  0.26965900  1
  H  H22  1  0.79519400  0.73719900  0.26576000  1
  H  H23  1  0.04293600  0.35505200  0.18815300  1
  H  H24  1  0.32386800  0.36486900  0.35411400  1
  H  H25  1  0.78470100  0.29301200  0.46180500  1
  H  H26  1  0.80221400  0.14706400  0.30670300  1
  H  H27  1  0.99880200  0.30341100  0.09855900  1
  H  H28  1  0.50501600  0.13273100  0.14389300  1
  H  H29  1  0.19499800  0.36060400  0.28089500  1
  H  H30  1  0.64545500  0.14021800  0.21494600  1
  H  H31  1  0.85426100  0.20030800  0.39464800  1
  H  H32  1  0.09846200  0.16635200  0.99098000  1
  H  H33  1  0.88099800  0.20379500  0.02469800  1
  H  H34  1  0.06225800  0.25609300  0.99114300  1
  C  C1  1  0.51075700  0.57806100  0.42123700  1
  C  C2  1  0.52255100  0.39159200  0.44740700  1
  C  C3  1  0.02413300  0.41931800  0.58191800  1
  C  C4  1  0.01781400  0.60634100  0.55602800  1
  C  C5  1  0.75077600  0.84766800  0.90784000  1
  C  C6  1  0.03825400  0.66682800  0.59069900  1
  C  C7  1  0.54877800  0.75642600  0.87843300  1
  C  C8  1  0.59649700  0.80510600  0.91789100  1
  C  C9  1  0.85797500  0.84195400  0.85821700  1
  C  C10  1  0.80768300  0.79366900  0.81729300  1
  C  C11  1  0.65260200  0.75110500  0.82832700  1
  C  C12  1  0.90772500  0.78726300  0.76562100  1
  C  C13  1  0.85301900  0.73765600  0.72627400  1
  C  C14  1  0.69559700  0.69629500  0.73844500  1
  C  C15  1  0.59705300  0.70315700  0.78909300  1
  C  C16  1  0.06205300  0.82961200  0.75276400  1
  C  C17  1  0.16401200  0.82153000  0.70268400  1
  C  C18  1  0.11593000  0.77098100  0.66496800  1
  C  C19  1  0.95895800  0.72919400  0.67580300  1
  C  C20  1  0.23084400  0.76146400  0.61717100  1
  C  C21  1  0.19535400  0.70833100  0.58082900  1
  C  C22  1  0.91744500  0.67780800  0.63701200  1
  C  C23  1  0.87345500  0.30096800  0.76485700  1
  C  C24  1  0.02723400  0.25773200  0.79568600  1
  C  C25  1  0.83488900  0.11510800  0.87353500  1
  C  C26  1  0.02830600  0.37137200  0.62711200  1
  C  C27  1  0.73727700  0.24119400  0.75731400  1
  C  C28  1  0.89160500  0.19865700  0.78744800  1
  C  C29  1  0.83665200  0.22333800  0.70089000  1
  C  C30  1  0.97230500  0.28239300  0.70919300  1
  C  C31  1  0.99051600  0.17999800  0.73180500  1
  C  C32  1  0.12669000  0.23987300  0.73932200  1
  C  C33  1  0.85284400  0.15195900  0.83366400  1
  C  C34  1  0.01081400  0.33099300  0.66441600  1
  C  C35  1  0.53354000  0.72284200  0.19901800  1
  C  C36  1  0.37123300  0.68646000  0.23042300  1
  C  C37  1  0.51185100  0.62296800  0.37390100  1
  C  C38  1  0.34804900  0.87170300  0.11787700  1
  C  C39  1  0.63343900  0.74167900  0.25565700  1
  C  C40  1  0.47058200  0.70608800  0.28622000  1
  C  C41  1  0.50794900  0.80564200  0.25879100  1
  C  C42  1  0.40857200  0.78601900  0.20299700  1
  C  C43  1  0.34570800  0.76928800  0.29011600  1
  C  C44  1  0.24591700  0.75039600  0.23360100  1
  C  C45  1  0.49891700  0.66051800  0.33419600  1
  C  C46  1  0.37345100  0.83246800  0.15596100  1
  C  C47  1  0.29959200  0.16875200  0.08401800  1
  C  C48  1  0.54504600  0.33238400  0.41133700  1
  C  C49  1  0.11308300  0.26667900  0.10868900  1
  C  C50  1  0.15495000  0.21551200  0.07063800  1
  C  C51  1  0.40066700  0.17254400  0.13527400  1
  C  C52  1  0.35484200  0.22252900  0.17485300  1
  C  C53  1  0.21003000  0.26945100  0.16084500  1
  C  C54  1  0.44644900  0.22519600  0.22853200  1
  C  C55  1  0.39006900  0.27460900  0.26786000  1
  C  C56  1  0.24462900  0.32120500  0.25257400  1
  C  C57  1  0.15682900  0.31865300  0.19939900  1
  C  C58  1  0.59374500  0.17909400  0.24344000  1
  C  C59  1  0.68495900  0.18251100  0.29602000  1
  C  C60  1  0.63228600  0.23173300  0.33450900  1
  C  C61  1  0.48293700  0.27752300  0.32140600  1
  C  C62  1  0.73576300  0.23589000  0.38548700  1
  C  C63  1  0.69621500  0.28743200  0.42319500  1
  C  C64  1  0.43543700  0.32687500  0.36153400  1
  C  C65  1  0.32219100  0.10837700  0.04931100  1
  C  C66  1  0.32548400  0.92003100  0.07334700  1
  C  C67  1  0.78389500  0.90209100  0.94856300  1
  C  C68  1  0.83825900  0.07400500  0.92343000  1
  C  C69  1  0.04185700  0.21007500  0.01589700  1
  O  O1  1  0.68721400  0.41785000  0.46529900  1
  O  O2  1  0.33898200  0.55362600  0.43377800  1
  O  O3  1  0.18309700  0.57978900  0.53841600  1
  O  O4  1  0.34632700  0.41890900  0.45201600  1
  O  O5  1  0.19046500  0.43635800  0.55819900  1
  O  O6  1  0.68002400  0.56108700  0.44508500  1
  O  O7  1  0.51188500  0.50655500  0.53720100  1
  O  O8  1  0.84986500  0.44440600  0.56979500  1
  O  O9  1  0.84332000  0.57912800  0.55126600  1
  O  O10  1  0.00965500  0.49127600  0.46628600  1
  O  O11  1  0.14453000  0.92421200  0.04854900  1
  O  O12  1  0.50080000  0.09651000  0.02740200  1
  O  O13  1  0.68368500  0.03533500  0.93408300  1
  O  O14  1  0.45426500  0.97038400  0.07600900  1
  O  O15  1  0.63794900  0.91092000  0.98561900  1
  O  O16  1  0.18537200  0.06281000  0.05711300  1
  O  O17  1  0.31873200  0.99271700  0.96579200  1
  O  O18  1  0.94957800  0.93885800  0.94357900  1
  O  O19  1  0.00042900  0.07861200  0.95509500  1
  O  O20  1  0.82111200  0.00990800  0.04114700  1
