# generated using pymatgen
data_ZnH4C17N7O12
_symmetry_space_group_name_H-M   'P 1'
_cell_length_a   13.90683500
_cell_length_b   8.59894400
_cell_length_c   15.03100300
_cell_angle_alpha   90.00000000
_cell_angle_beta   110.73930700
_cell_angle_gamma   90.00000000
_symmetry_Int_Tables_number   1
_chemical_formula_structural   ZnH4C17N7O12
_chemical_formula_sum   'Zn2 H8 C34 N14 O24'
_cell_volume   1680.99527391
_cell_formula_units_Z   2
loop_
 _symmetry_equiv_pos_site_id
 _symmetry_equiv_pos_as_xyz
  1  'x, y, z'
loop_
 _atom_site_type_symbol
 _atom_site_label
 _atom_site_symmetry_multiplicity
 _atom_site_fract_x
 _atom_site_fract_y
 _atom_site_fract_z
 _atom_site_occupancy
  Zn  Zn1  1  0.88969100  0.51156300  0.45545500  1
  Zn  Zn2  1  0.11824200  0.52455100  0.54532300  1
  H  H1  1  0.97439800  0.01919100  0.55028200  1
  H  H2  1  0.05762800  0.01557900  0.45418900  1
  H  H3  1  0.25080500  0.55482000  0.45878200  1
  H  H4  1  0.75738100  0.53085100  0.54198300  1
  H  H5  1  0.54835500  0.44566300  0.21094400  1
  H  H6  1  0.45710700  0.48611700  0.79243500  1
  H  H7  1  0.31068400  0.46390700  0.36514600  1
  H  H8  1  0.69520900  0.45216000  0.63745500  1
  C  C1  1  0.99730100  0.15632400  0.67306200  1
  C  C2  1  0.00991600  0.88105000  0.32761200  1
  C  C3  1  0.02758100  0.15833400  0.33231200  1
  C  C4  1  0.98038700  0.87848800  0.66758600  1
  C  C5  1  0.00413400  0.15623200  0.76724600  1
  C  C6  1  0.97835900  0.88529100  0.22905200  1
  C  C7  1  0.01069800  0.16008500  0.23610700  1
  C  C8  1  0.98404000  0.87733400  0.76085600  1
  C  C9  1  0.99398300  0.01689700  0.81064800  1
  C  C10  1  0.98842900  0.02282500  0.18387200  1
  C  C11  1  0.98214400  0.01826100  0.62389000  1
  C  C12  1  0.03664900  0.01771700  0.37820900  1
  C  C13  1  0.98809200  0.02184900  0.08538000  1
  C  C14  1  0.99326400  0.01707100  0.90844800  1
  C  C15  1  0.98808600  0.73600000  0.61621200  1
  C  C16  1  0.02026500  0.30069100  0.38423000  1
  C  C17  1  0.00718500  0.73839100  0.38105500  1
  C  C18  1  0.00037800  0.29947800  0.62051900  1
  C  C19  1  0.59220500  0.45835000  0.28560400  1
  C  C20  1  0.41433100  0.49384700  0.71723400  1
  C  C21  1  0.69756000  0.46826600  0.31281600  1
  C  C22  1  0.30926600  0.50924900  0.68895500  1
  C  C23  1  0.70933700  0.50825600  0.47010100  1
  C  C24  1  0.29883700  0.53405600  0.53099900  1
  C  C25  1  0.60384100  0.48858100  0.44639800  1
  C  C26  1  0.40375900  0.50725600  0.55564000  1
  C  C27  1  0.54451100  0.46889000  0.35181600  1
  C  C28  1  0.46231300  0.49068100  0.65084000  1
  C  C29  1  0.55696400  0.48971800  0.51524600  1
  C  C30  1  0.45046400  0.49523700  0.48698300  1
  C  C31  1  0.39257200  0.47891900  0.39083000  1
  C  C32  1  0.61420000  0.47601600  0.61171700  1
  C  C33  1  0.43874200  0.45936900  0.32447000  1
  C  C34  1  0.56748400  0.47029700  0.67847700  1
  N  N1  1  0.92803600  0.92392700  0.93181800  1
  N  N2  1  0.05430900  0.11336800  0.06220200  1
  N  N3  1  0.92598300  0.92572300  0.01920300  1
  N  N4  1  0.05680000  0.11128000  0.97499200  1
  N  N5  1  0.75503500  0.50140900  0.40439600  1
  N  N6  1  0.25281900  0.53298600  0.59631500  1
  N  N7  1  0.01558800  0.29998800  0.81698100  1
  N  N8  1  0.94265500  0.74667900  0.17598500  1
  N  N9  1  0.02107200  0.30244400  0.19245000  1
  N  N10  1  0.98008500  0.73267900  0.80561600  1
  N  N11  1  0.37543000  0.42623100  0.22846500  1
  N  N12  1  0.62920500  0.43789500  0.77506300  1
  N  N13  1  0.26218500  0.49383600  0.75868200  1
  N  N14  1  0.74282200  0.43645300  0.24300900  1
  O  O1  1  0.08026000  0.69127100  0.62126700  1
  O  O2  1  0.92808300  0.34629900  0.37879700  1
  O  O3  1  0.91735400  0.68323900  0.37625300  1
  O  O4  1  0.09023800  0.35478700  0.62551600  1
  O  O5  1  0.90361800  0.67547600  0.55541700  1
  O  O6  1  0.10446300  0.36095800  0.44527200  1
  O  O7  1  0.09433000  0.68654900  0.44255300  1
  O  O8  1  0.91348000  0.35032400  0.55851700  1
  O  O9  1  0.95513900  0.33333333  0.86339500  1
  O  O10  1  0.07391400  0.40779800  0.80255300  1
  O  O11  1  0.85006500  0.74334300  0.11304700  1
  O  O12  1  0.98730200  0.61625900  0.21014400  1
  O  O13  1  0.10540000  0.38209400  0.22918300  1
  O  O14  1  0.95527500  0.33989400  0.10936100  1
  O  O15  1  0.03977500  0.70789600  0.89311200  1
  O  O16  1  0.92653700  0.61866000  0.75523900  1
  O  O17  1  0.28432300  0.48798700  0.19390700  1
  O  O18  1  0.39609800  0.30597200  0.18590400  1
  O  O19  1  0.72367200  0.48729000  0.80818600  1
  O  O20  1  0.60180700  0.32741000  0.82021500  1
  O  O21  1  0.21394700  0.61199100  0.77684000  1
  O  O22  1  0.29592500  0.38630600  0.82308400  1
  O  O23  1  0.81742600  0.52159800  0.23750300  1
  O  O24  1  0.69495400  0.34486300  0.17233900  1
