# generated using pymatgen
data_Zn2H16C30N2O9
_symmetry_space_group_name_H-M   'P 1'
_cell_length_a   6.57189400
_cell_length_b   13.36152100
_cell_length_c   13.74562800
_cell_angle_alpha   100.34447000
_cell_angle_beta   100.22347700
_cell_angle_gamma   89.91392200
_symmetry_Int_Tables_number   1
_chemical_formula_structural   Zn2H16C30N2O9
_chemical_formula_sum   'Zn2 H16 C30 N2 O9'
_cell_volume   1167.96437003
_cell_formula_units_Z   1
loop_
 _symmetry_equiv_pos_site_id
 _symmetry_equiv_pos_as_xyz
  1  'x, y, z'
loop_
 _atom_site_type_symbol
 _atom_site_label
 _atom_site_symmetry_multiplicity
 _atom_site_fract_x
 _atom_site_fract_y
 _atom_site_fract_z
 _atom_site_occupancy
  Zn  Zn1  1  0.99651600  0.11439700  0.50927300  1
  Zn  Zn2  1  0.01643300  0.88992200  0.49910100  1
  H  H1  1  0.26656600  0.07456300  0.83467700  1
  H  H2  1  0.51646700  0.07120100  0.98938300  1
  H  H3  1  0.99221600  0.00368800  0.81560100  1
  H  H4  1  0.85908400  0.04226500  0.07596000  1
  H  H5  1  0.15377300  0.96199700  0.93242300  1
  H  H6  1  0.49636300  0.93305600  0.01896500  1
  H  H7  1  0.74633200  0.92972600  0.17365300  1
  H  H8  1  0.02071300  0.00061900  0.19279800  1
  H  H9  1  0.73272000  0.76738300  0.53980500  1
  H  H10  1  0.45404600  0.38708300  0.44107100  1
  H  H11  1  0.46632900  0.56938900  0.43405500  1
  H  H12  1  0.70773400  0.58895100  0.54768100  1
  H  H13  1  0.69484300  0.44668500  0.55034500  1
  H  H14  1  0.31472400  0.73180600  0.45415400  1
  H  H15  1  0.69570200  0.26586800  0.55338800  1
  H  H16  1  0.28396000  0.21184500  0.39064100  1
  C  C1  1  0.42725600  0.06090300  0.83077000  1
  C  C2  1  0.56732900  0.05752400  0.91771800  1
  C  C3  1  0.76946600  0.03241800  0.91292000  1
  C  C4  1  0.83321700  0.01878600  0.82125200  1
  C  C5  1  0.69521800  0.02612500  0.73483500  1
  C  C6  1  0.48943500  0.04278500  0.73857300  1
  C  C7  1  0.91219100  0.02082100  0.00527700  1
  C  C8  1  0.10066500  0.98344600  0.00310600  1
  C  C9  1  0.44553800  0.94674800  0.09064000  1
  C  C10  1  0.58565100  0.94338800  0.17757800  1
  C  C11  1  0.52352100  0.96152600  0.26978600  1
  C  C12  1  0.31774000  0.97818600  0.27355000  1
  C  C13  1  0.17970600  0.98551400  0.18713800  1
  C  C14  1  0.24341300  0.97186000  0.09545900  1
  C  C15  1  0.77629900  0.01731400  0.64204400  1
  C  C16  1  0.33171400  0.02840100  0.64726100  1
  C  C17  1  0.23667500  0.98700000  0.36635200  1
  C  C18  1  0.68129300  0.97591100  0.36107500  1
  C  C19  1  0.18072200  0.69899600  0.47378600  1
  C  C20  1  0.85688100  0.71850700  0.52141400  1
  C  C21  1  0.84330100  0.61679300  0.52589500  1
  C  C22  1  0.00211600  0.55415800  0.50359400  1
  C  C23  1  0.17198300  0.59633100  0.47727900  1
  C  C24  1  0.82760200  0.40482700  0.53267200  1
  C  C25  1  0.99480200  0.45098300  0.50743800  1
  C  C26  1  0.15806100  0.39185100  0.48501200  1
  C  C27  1  0.32694500  0.43419700  0.45874500  1
  C  C28  1  0.33393000  0.53632300  0.45481800  1
  C  C29  1  0.82723000  0.30187000  0.53473300  1
  C  C30  1  0.15282300  0.28948900  0.48814300  1
  N  N1  1  0.02288400  0.75812800  0.49522800  1
  N  N2  1  0.98945800  0.24620000  0.51324000  1
  O  O1  1  0.84434500  0.92859300  0.60675000  1
  O  O2  1  0.81721900  0.10144700  0.61135400  1
  O  O3  1  0.24244200  0.10891000  0.61889200  1
  O  O4  1  0.26607100  0.93479300  0.60671600  1
  O  O5  1  0.16864300  0.07581300  0.40161800  1
  O  O6  1  0.19578600  0.90277100  0.39701100  1
  O  O7  1  0.77054700  0.89545600  0.38948000  1
  O  O8  1  0.74691500  0.06947400  0.40165800  1
  O  O9  1  0.31451300  0.23126400  0.46483300  1
