# generated using pymatgen
data_ZnH21C22NO4
_symmetry_space_group_name_H-M   'P 1'
_cell_length_a   13.38620000
_cell_length_b   14.53492000
_cell_length_c   17.37427100
_cell_angle_alpha   90.00000000
_cell_angle_beta   86.55821600
_cell_angle_gamma   90.00000000
_symmetry_Int_Tables_number   1
_chemical_formula_structural   ZnH21C22NO4
_chemical_formula_sum   'Zn2 H42 C44 N2 O8'
_cell_volume   3374.36849410
_cell_formula_units_Z   2
loop_
 _symmetry_equiv_pos_site_id
 _symmetry_equiv_pos_as_xyz
  1  'x, y, z'
loop_
 _atom_site_type_symbol
 _atom_site_label
 _atom_site_symmetry_multiplicity
 _atom_site_fract_x
 _atom_site_fract_y
 _atom_site_fract_z
 _atom_site_occupancy
  Zn  Zn1  1  0.38625400  0.47968700  0.50068200  1
  Zn  Zn2  1  0.61372900  0.47968700  0.49931200  1
  H  H1  1  0.62777300  0.58086900  0.26444500  1
  H  H2  1  0.37221100  0.58087000  0.73554900  1
  H  H3  1  0.61379500  0.49694200  0.98929600  1
  H  H4  1  0.38618900  0.49694200  0.01069900  1
  H  H5  1  0.42306200  0.38509200  0.10722900  1
  H  H6  1  0.57692100  0.38509100  0.89276400  1
  H  H7  1  0.67985200  0.35102600  0.76862800  1
  H  H8  1  0.61410900  0.34608200  0.68263300  1
  H  H9  1  0.55644500  0.24178800  0.83183500  1
  H  H10  1  0.45925900  0.25604200  0.67626300  1
  H  H11  1  0.40289700  0.28321600  0.77092700  1
  H  H12  1  0.43316800  0.16605500  0.74624900  1
  H  H13  1  0.63182400  0.17912300  0.67000600  1
  H  H14  1  0.60194200  0.10725100  0.75318600  1
  H  H15  1  0.70647700  0.18551000  0.75335000  1
  H  H16  1  0.32013000  0.35102700  0.23136500  1
  H  H17  1  0.38587200  0.34608200  0.31736100  1
  H  H18  1  0.44353600  0.24178900  0.16815900  1
  H  H19  1  0.54072200  0.25604200  0.32373100  1
  H  H20  1  0.59708400  0.28321500  0.22906700  1
  H  H21  1  0.56681200  0.16605400  0.25374400  1
  H  H22  1  0.36815600  0.17912300  0.32998700  1
  H  H23  1  0.39803800  0.10725200  0.24680800  1
  H  H24  1  0.29350300  0.18551100  0.24664300  1
  H  H25  1  0.37734500  0.65485900  0.93148000  1
  H  H26  1  0.27926400  0.57035100  0.93195700  1
  H  H27  1  0.31926400  0.70392600  0.79670000  1
  H  H28  1  0.12860500  0.60594700  0.86342900  1
  H  H29  1  0.20716600  0.55733000  0.78613400  1
  H  H30  1  0.14624900  0.66632500  0.77286400  1
  H  H31  1  0.19143800  0.72691800  0.94693400  1
  H  H32  1  0.18138800  0.79566800  0.86092500  1
  H  H33  1  0.29566100  0.79709200  0.91076000  1
  H  H34  1  0.62264000  0.65485800  0.06851300  1
  H  H35  1  0.72071800  0.57034900  0.06803600  1
  H  H36  1  0.68072300  0.70392600  0.20329300  1
  H  H37  1  0.87138000  0.60594300  0.13656500  1
  H  H38  1  0.79281700  0.55732700  0.21385900  1
  H  H39  1  0.85373700  0.66632100  0.22713000  1
  H  H40  1  0.80854900  0.72691400  0.05306000  1
  H  H41  1  0.81860000  0.79566400  0.13906900  1
  H  H42  1  0.70432600  0.79709000  0.08923300  1
  C  C1  1  0.49999200  0.65949800  0.49999700  1
  C  C2  1  0.49999100  0.29989700  0.49999700  1
  C  C3  1  0.48940500  0.47837000  0.65095300  1
  C  C4  1  0.51057800  0.47837000  0.34904000  1
  C  C5  1  0.48290200  0.47869400  0.73558900  1
  C  C6  1  0.51708100  0.47869400  0.26440500  1
  C  C7  1  0.53961100  0.42063800  0.77949500  1
  C  C8  1  0.46037100  0.42063800  0.22049800  1
  C  C9  1  0.53248400  0.42962300  0.85863100  1
  C  C10  1  0.46749900  0.42962400  0.14136300  1
  C  C11  1  0.46626500  0.49060700  0.89514700  1
  C  C12  1  0.53371800  0.49060700  0.10484700  1
  C  C13  1  0.40479400  0.54468100  0.85206500  1
  C  C14  1  0.59519000  0.54468000  0.14792900  1
  C  C15  1  0.41529600  0.53858000  0.77208200  1
  C  C16  1  0.58468800  0.53857900  0.22791200  1
  C  C17  1  0.45893000  0.49335900  0.98001200  1
  C  C18  1  0.54105400  0.49335900  0.01998200  1
  C  C19  1  0.49999200  0.75821500  0.49999700  1
  C  C20  1  0.49999100  0.20119100  0.49999700  1
  C  C21  1  0.49999200  0.84111600  0.49999700  1
  C  C22  1  0.49999100  0.11829800  0.49999700  1
  C  C23  1  0.49999200  0.93825800  0.49999700  1
  C  C24  1  0.49999100  0.02116100  0.49999700  1
  C  C25  1  0.84957900  0.47985500  0.49910300  1
  C  C26  1  0.15040400  0.47985500  0.50089100  1
  C  C27  1  0.95500700  0.47987700  0.49970900  1
  C  C28  1  0.04497600  0.47987700  0.50028500  1
  C  C29  1  0.60449100  0.34430800  0.74598600  1
  C  C30  1  0.56131700  0.25021200  0.76834500  1
  C  C31  1  0.45766400  0.23849300  0.73842100  1
  C  C32  1  0.62980800  0.17580600  0.73386200  1
  C  C33  1  0.39549100  0.34430800  0.25400800  1
  C  C34  1  0.43866400  0.25021200  0.23164800  1
  C  C35  1  0.54231700  0.23849300  0.26157200  1
  C  C36  1  0.37017200  0.17580700  0.26613200  1
  C  C37  1  0.33308700  0.61043300  0.89436400  1
  C  C38  1  0.27218200  0.67365400  0.84479900  1
  C  C39  1  0.18325200  0.62235400  0.81486400  1
  C  C40  1  0.23257300  0.75332600  0.89417900  1
  C  C41  1  0.66689800  0.61043100  0.10562900  1
  C  C42  1  0.72780300  0.67365200  0.15519500  1
  C  C43  1  0.81673300  0.62235000  0.18513000  1
  C  C44  1  0.76741400  0.75332300  0.10581500  1
  N  N1  1  0.76317600  0.47982200  0.49874500  1
  N  N2  1  0.23680700  0.47982200  0.50124800  1
  O  O1  1  0.41371400  0.61675500  0.50071100  1
  O  O2  1  0.58637900  0.34259100  0.49955000  1
  O  O3  1  0.58626900  0.61675500  0.49928200  1
  O  O4  1  0.41360400  0.34259100  0.50044300  1
  O  O5  1  0.40556000  0.47976300  0.61545300  1
  O  O6  1  0.59442300  0.47976300  0.38454000  1
  O  O7  1  0.57804200  0.48013200  0.61428500  1
  O  O8  1  0.42194100  0.48013200  0.38570800  1
