# generated using pymatgen
data_ZnH23C25NO4
_symmetry_space_group_name_H-M   'P 1'
_cell_length_a   9.58656400
_cell_length_b   10.80858500
_cell_length_c   17.46676500
_cell_angle_alpha   89.99978300
_cell_angle_beta   86.24752100
_cell_angle_gamma   90.06169700
_symmetry_Int_Tables_number   1
_chemical_formula_structural   ZnH23C25NO4
_chemical_formula_sum   'Zn2 H46 C50 N2 O8'
_cell_volume   1805.97592174
_cell_formula_units_Z   2
loop_
 _symmetry_equiv_pos_site_id
 _symmetry_equiv_pos_as_xyz
  1  'x, y, z'
loop_
 _atom_site_type_symbol
 _atom_site_label
 _atom_site_symmetry_multiplicity
 _atom_site_fract_x
 _atom_site_fract_y
 _atom_site_fract_z
 _atom_site_occupancy
  Zn  Zn1  1  0.33758900  0.49408300  0.49663200  1
  Zn  Zn2  1  0.65536300  0.49371600  0.49520600  1
  H  H1  1  0.68795700  0.44828100  0.73858400  1
  H  H2  1  0.30062600  0.51769200  0.25318900  1
  H  H3  1  0.74075600  0.44997400  0.24967200  1
  H  H4  1  0.61955800  0.39235400  0.99376400  1
  H  H5  1  0.30919800  0.49946800  0.11553200  1
  H  H6  1  0.25522700  0.54350700  0.74178100  1
  H  H7  1  0.37907400  0.57848600  0.00085900  1
  H  H8  1  0.67885400  0.45731200  0.87631200  1
  H  H9  1  0.74883600  0.43231200  0.11052200  1
  H  H10  1  0.27114300  0.89588100  0.48781000  1
  H  H11  1  0.36936200  0.88368700  0.39709500  1
  H  H12  1  0.39904000  0.08857200  0.38905100  1
  H  H13  1  0.27520200  0.10422700  0.46830400  1
  H  H14  1  0.37688800  0.89696700  0.60015800  1
  H  H15  1  0.72350100  0.88377400  0.46506100  1
  H  H16  1  0.61539700  0.90119300  0.38738100  1
  H  H17  1  0.64416400  0.10571500  0.39650300  1
  H  H18  1  0.72346600  0.09190700  0.48637000  1
  H  H19  1  0.59393700  0.08988300  0.59971400  1
  H  H20  1  0.87854200  0.58134300  0.60407500  1
  H  H21  1  0.86763400  0.68546500  0.52412800  1
  H  H22  1  0.09902000  0.68893800  0.49851400  1
  H  H23  1  0.11156000  0.61924100  0.59156400  1
  H  H24  1  0.85690800  0.36138200  0.58463700  1
  H  H25  1  0.08603600  0.39758100  0.60097800  1
  H  H26  1  0.88733800  0.43577800  0.38138000  1
  H  H27  1  0.90398400  0.60032300  0.39601900  1
  H  H28  1  0.13590800  0.56843700  0.38549600  1
  H  H29  1  0.11586900  0.40262200  0.39265400  1
  H  H30  1  0.89486700  0.30257900  0.48896300  1
  H  H31  1  0.11859200  0.30287600  0.51680100  1
  H  H32  1  0.53627400  0.19484200  0.70518400  1
  H  H33  1  0.36653900  0.26661700  0.80453800  1
  H  H34  1  0.11499700  0.24088200  0.79061300  1
  H  H35  1  0.03424400  0.13173700  0.67837500  1
  H  H36  1  0.20049600  0.04704900  0.58266000  1
  H  H37  1  0.41207100  0.79648200  0.70676500  1
  H  H38  1  0.56120900  0.72670000  0.80510500  1
  H  H39  1  0.81613300  0.74818900  0.78746300  1
  H  H40  1  0.92083200  0.85377400  0.67322000  1
  H  H41  1  0.77446200  0.93815700  0.57886100  1
  H  H42  1  0.20049800  0.37979600  0.95384200  1
  H  H43  1  0.97468800  0.42296400  0.02249700  1
  H  H44  1  0.85090600  0.61725600  0.99902800  1
  H  H45  1  0.95361900  0.76809600  0.90620300  1
  H  H46  1  0.17931200  0.72530500  0.83682400  1
  C  C1  1  0.49552900  0.73643200  0.49493200  1
  C  C2  1  0.48003700  0.49488900  0.64613700  1
  C  C3  1  0.49746000  0.25142300  0.49622600  1
  C  C4  1  0.51290400  0.49203500  0.34567900  1
  C  C5  1  0.47225600  0.49592000  0.73029700  1
  C  C6  1  0.58944600  0.46973000  0.76929800  1
  C  C7  1  0.58323800  0.47244800  0.84837100  1
  C  C8  1  0.45912700  0.50034800  0.88997400  1
  C  C9  1  0.34087000  0.52543400  0.85062900  1
  C  C10  1  0.34827400  0.52392700  0.77133300  1
  C  C11  1  0.40570100  0.49187700  0.14377200  1
  C  C12  1  0.40037700  0.50055200  0.22263800  1
  C  C13  1  0.64572800  0.46294100  0.22064200  1
  C  C14  1  0.65050300  0.45242900  0.14179000  1
  C  C15  1  0.53127800  0.46843800  0.10270800  1
  C  C16  1  0.45402200  0.51429800  0.97433000  1
  C  C17  1  0.54007700  0.45387300  0.01871600  1
  C  C18  1  0.52033300  0.48661200  0.26158500  1
  C  C19  1  0.37007600  0.92289900  0.45576000  1
  C  C20  1  0.37752600  0.06323200  0.45021600  1
  C  C21  1  0.48302600  0.92346900  0.57781800  1
  C  C22  1  0.62471400  0.92534500  0.44854500  1
  C  C23  1  0.49645000  0.87526800  0.49515500  1
  C  C24  1  0.49642000  0.11269200  0.49579000  1
  C  C25  1  0.49236300  0.06379100  0.57812600  1
  C  C26  1  0.63114700  0.06553200  0.45497800  1
  C  C27  1  0.91214300  0.59692000  0.54286800  1
  C  C28  1  0.07020000  0.60688300  0.53423700  1
  C  C29  1  0.91353800  0.38030800  0.52845100  1
  C  C30  1  0.92820400  0.50778800  0.41916800  1
  C  C31  1  0.06885000  0.38913900  0.53901700  1
  C  C32  1  0.08520600  0.49233600  0.41959100  1
  C  C33  1  0.38258000  0.11986000  0.63353000  1
  C  C34  1  0.42637700  0.18179100  0.69718900  1
  C  C35  1  0.33066200  0.22353400  0.75363900  1
  C  C36  1  0.18980500  0.20790000  0.74629200  1
  C  C37  1  0.14473300  0.14711100  0.68331000  1
  C  C38  1  0.24014700  0.10160400  0.62787800  1
  C  C39  1  0.58123400  0.86751000  0.63229200  1
  C  C40  1  0.52386900  0.80798500  0.69721700  1
  C  C41  1  0.60786900  0.76731000  0.75310500  1
  C  C42  1  0.75055200  0.78090300  0.74375600  1
  C  C43  1  0.80904000  0.83957100  0.67960600  1
  C  C44  1  0.72511300  0.88470400  0.62489800  1
  C  C45  1  0.20567800  0.55064200  0.89165300  1
  C  C46  1  0.14726000  0.46573900  0.94355400  1
  C  C47  1  0.01991400  0.48959700  0.98193700  1
  C  C48  1  0.95045900  0.59829500  0.96865000  1
  C  C49  1  0.00785500  0.68266800  0.91642400  1
  C  C50  1  0.13460700  0.65841300  0.87741600  1
  N  N1  1  0.86412700  0.49514900  0.49654800  1
  N  N2  1  0.12862400  0.49591000  0.49783000  1
  O  O1  1  0.37464600  0.67875700  0.49593900  1
  O  O2  1  0.61539600  0.67779600  0.49484200  1
  O  O3  1  0.36308500  0.49596100  0.61089000  1
  O  O4  1  0.60411000  0.49375600  0.60958500  1
  O  O5  1  0.37760000  0.31003900  0.49720900  1
  O  O6  1  0.61824100  0.30905900  0.49586500  1
  O  O7  1  0.38908600  0.49374000  0.38229000  1
  O  O8  1  0.62965000  0.49203200  0.38096200  1
