# generated using pymatgen
data_Zn3H27C46O12F
_symmetry_space_group_name_H-M   'P 1'
_cell_length_a   44.42251900
_cell_length_b   38.86953100
_cell_length_c   22.04373100
_cell_angle_alpha   90.00000000
_cell_angle_beta   61.00928000
_cell_angle_gamma   90.00000000
_symmetry_Int_Tables_number   1
_chemical_formula_structural   Zn3H27C46O12F
_chemical_formula_sum   'Zn12 H108 C184 O48 F4'
_cell_volume   33293.22202402
_cell_formula_units_Z   4
loop_
 _symmetry_equiv_pos_site_id
 _symmetry_equiv_pos_as_xyz
  1  'x, y, z'
loop_
 _atom_site_type_symbol
 _atom_site_label
 _atom_site_symmetry_multiplicity
 _atom_site_fract_x
 _atom_site_fract_y
 _atom_site_fract_z
 _atom_site_occupancy
  Zn  Zn1  1  0.99980400  0.52795800  0.50033200  1
  Zn  Zn2  1  0.49980400  0.02795800  0.50033300  1
  Zn  Zn3  1  0.00002600  0.45003700  0.49989300  1
  Zn  Zn4  1  0.50002600  0.95003700  0.49989400  1
  Zn  Zn5  1  0.96125000  0.50443400  0.03301800  1
  Zn  Zn6  1  0.03900600  0.50425700  0.96649400  1
  Zn  Zn7  1  0.46125000  0.00443400  0.03301800  1
  Zn  Zn8  1  0.53900600  0.00425700  0.96649400  1
  Zn  Zn9  1  0.50141100  0.50396300  0.06713400  1
  Zn  Zn10  1  0.49849800  0.50410100  0.93283800  1
  Zn  Zn11  1  0.00141100  0.00396300  0.06713400  1
  Zn  Zn12  1  0.99849800  0.00410100  0.93283800  1
  H  H1  1  0.95909600  0.52565800  0.84238000  1
  H  H2  1  0.04086600  0.52683600  0.15735200  1
  H  H3  1  0.45909600  0.02565800  0.84238000  1
  H  H4  1  0.54086600  0.02683600  0.15735200  1
  H  H5  1  0.03233300  0.49712300  0.76313600  1
  H  H6  1  0.96797700  0.49737300  0.23627900  1
  H  H7  1  0.53233300  0.99712300  0.76313600  1
  H  H8  1  0.46797700  0.99737300  0.23628000  1
  H  H9  1  0.97463200  0.53736100  0.71553900  1
  H  H10  1  0.02573200  0.53844100  0.28362500  1
  H  H11  1  0.47463200  0.03736100  0.71553900  1
  H  H12  1  0.52573200  0.03844100  0.28362500  1
  H  H13  1  0.38849400  0.49772600  0.02047100  1
  H  H14  1  0.61147200  0.50063400  0.97987000  1
  H  H15  1  0.88849400  0.99772600  0.02047100  1
  H  H16  1  0.11147200  0.00063400  0.97987000  1
  H  H17  1  0.32632200  0.49457200  0.08524700  1
  H  H18  1  0.67364100  0.49721500  0.91526700  1
  H  H19  1  0.82632200  0.99457200  0.08524700  1
  H  H20  1  0.17364100  0.99721500  0.91526700  1
  H  H21  1  0.32982500  0.50310200  0.27507000  1
  H  H22  1  0.67001200  0.49998800  0.72505200  1
  H  H23  1  0.82982500  0.00310200  0.27507000  1
  H  H24  1  0.17001200  0.99998800  0.72505200  1
  H  H25  1  0.39196400  0.50695600  0.21047000  1
  H  H26  1  0.60789300  0.50409900  0.78939500  1
  H  H27  1  0.89196400  0.00695600  0.21047000  1
  H  H28  1  0.10789300  0.00409900  0.78939500  1
  H  H29  1  0.28023800  0.53555600  0.29712500  1
  H  H30  1  0.71974600  0.53296900  0.69967000  1
  H  H31  1  0.78023800  0.03555600  0.29712500  1
  H  H32  1  0.21974600  0.03296900  0.69967000  1
  H  H33  1  0.21804400  0.53195900  0.36166600  1
  H  H34  1  0.78191200  0.52892300  0.63520500  1
  H  H35  1  0.71804400  0.03195900  0.36166600  1
  H  H36  1  0.28191200  0.02892300  0.63520500  1
  H  H37  1  0.21982700  0.45378900  0.22354600  1
  H  H38  1  0.77994000  0.45493000  0.78056400  1
  H  H39  1  0.71982700  0.95378900  0.22354600  1
  H  H40  1  0.27994000  0.95493000  0.78056400  1
  H  H41  1  0.28216900  0.45633400  0.16075500  1
  H  H42  1  0.71761300  0.45787100  0.84339300  1
  H  H43  1  0.78216900  0.95633400  0.16075500  1
  H  H44  1  0.21761300  0.95787100  0.84339300  1
  H  H45  1  0.17312700  0.43665000  0.33287400  1
  H  H46  1  0.82644800  0.43565700  0.67285800  1
  H  H47  1  0.67312700  0.93665000  0.33287400  1
  H  H48  1  0.32644800  0.93565700  0.67285800  1
  H  H49  1  0.11068000  0.43538600  0.39247400  1
  H  H50  1  0.88889500  0.43410700  0.61311200  1
  H  H51  1  0.61068000  0.93538600  0.39247400  1
  H  H52  1  0.38889500  0.93410700  0.61311200  1
  H  H53  1  0.10871900  0.54532100  0.40515200  1
  H  H54  1  0.89139700  0.54356000  0.58975300  1
  H  H55  1  0.60871900  0.04532100  0.40515200  1
  H  H56  1  0.39139700  0.04356000  0.58975300  1
  H  H57  1  0.17083500  0.54646900  0.34467700  1
  H  H58  1  0.82929300  0.54502800  0.65037400  1
  H  H59  1  0.67083500  0.04646900  0.34467700  1
  H  H60  1  0.32929300  0.04502800  0.65037400  1
  H  H61  1  0.50296200  0.61393300  0.09522300  1
  H  H62  1  0.49697300  0.61367600  0.90718300  1
  H  H63  1  0.00296200  0.11393300  0.09522300  1
  H  H64  1  0.99697300  0.11367600  0.90718300  1
  H  H65  1  0.50248200  0.67619400  0.09536100  1
  H  H66  1  0.49724500  0.67594000  0.90675600  1
  H  H67  1  0.00248200  0.17619400  0.09536100  1
  H  H68  1  0.99724500  0.17594000  0.90675600  1
  H  H69  1  0.46130700  0.72284300  0.96917800  1
  H  H70  1  0.53820600  0.72319000  0.03278900  1
  H  H71  1  0.96130700  0.22284300  0.96917800  1
  H  H72  1  0.03820600  0.22319000  0.03278900  1
  H  H73  1  0.96173700  0.28516900  0.96754600  1
  H  H74  1  0.03748200  0.28551400  0.03424300  1
  H  H75  1  0.46173700  0.78516900  0.96754600  1
  H  H76  1  0.53748200  0.78551400  0.03424300  1
  H  H77  1  0.05432100  0.33241400  0.95553200  1
  H  H78  1  0.94469500  0.33216600  0.04608300  1
  H  H79  1  0.55432100  0.83241400  0.95553200  1
  H  H80  1  0.44469500  0.83216600  0.04608300  1
  H  H81  1  0.05422700  0.39467300  0.95607100  1
  H  H82  1  0.94453100  0.39443000  0.04535700  1
  H  H83  1  0.55422700  0.89467300  0.95607100  1
  H  H84  1  0.44453100  0.89443000  0.04535700  1
  H  H85  1  0.50376200  0.39425600  0.89816400  1
  H  H86  1  0.49618000  0.39450100  0.09931800  1
  H  H87  1  0.00376200  0.89425600  0.89816400  1
  H  H88  1  0.99618000  0.89450100  0.09931800  1
  H  H89  1  0.50363400  0.33197500  0.89866800  1
  H  H90  1  0.49668300  0.33222200  0.09898300  1
  H  H91  1  0.00363400  0.83197500  0.89866800  1
  H  H92  1  0.99668300  0.83222200  0.09898300  1
  H  H93  1  0.46070500  0.28531200  0.10480400  1
  H  H94  1  0.53997500  0.28542200  0.89290300  1
  H  H95  1  0.96070500  0.78531200  0.10480400  1
  H  H96  1  0.03997500  0.78542200  0.89290300  1
  H  H97  1  0.96141900  0.72294500  0.10524400  1
  H  H98  1  0.03971200  0.72304700  0.89253000  1
  H  H99  1  0.46141900  0.22294500  0.10524400  1
  H  H100  1  0.53971200  0.22304700  0.89253000  1
  H  H101  1  0.05566900  0.67640500  0.94154800  1
  H  H102  1  0.94573600  0.67612400  0.05621300  1
  H  H103  1  0.55566900  0.17640500  0.94154800  1
  H  H104  1  0.44573600  0.17612400  0.05621300  1
  H  H105  1  0.05590100  0.61412000  0.94092100  1
  H  H106  1  0.94582400  0.61385200  0.05682800  1
  H  H107  1  0.55590100  0.11412000  0.94092100  1
  H  H108  1  0.44582400  0.11385200  0.05682800  1
  C  C1  1  0.06730700  0.48988900  0.43856300  1
  C  C2  1  0.93253600  0.48821400  0.56163800  1
  C  C3  1  0.56730700  0.98988900  0.43856300  1
  C  C4  1  0.43253600  0.98821400  0.56163800  1
  C  C5  1  0.99737600  0.48819400  0.62108000  1
  C  C6  1  0.00244300  0.48973100  0.37917200  1
  C  C7  1  0.49737600  0.98819400  0.62108000  1
  C  C8  1  0.50244300  0.98973100  0.37917200  1
  C  C9  1  0.98183900  0.51476800  0.79917200  1
  C  C10  1  0.01823400  0.51574200  0.20048700  1
  C  C11  1  0.48183900  0.01476800  0.79917200  1
  C  C12  1  0.51823400  0.01574200  0.20048800  1
  C  C13  1  0.00812000  0.50429200  0.80767300  1
  C  C14  1  0.99210500  0.50484500  0.19185700  1
  C  C15  1  0.50812000  0.00429200  0.80767300  1
  C  C16  1  0.49210500  0.00484500  0.19185700  1
  C  C17  1  0.98463300  0.51530300  0.73012400  1
  C  C18  1  0.01548100  0.51641500  0.26952300  1
  C  C19  1  0.48463300  0.01530300  0.73012400  1
  C  C20  1  0.51548100  0.01641500  0.26952300  1
  C  C21  1  0.99593600  0.48787400  0.68867900  1
  C  C22  1  0.00386700  0.48921100  0.31157900  1
  C  C23  1  0.49593600  0.98787400  0.68867900  1
  C  C24  1  0.50386700  0.98921100  0.31157900  1
  C  C25  1  0.37593400  0.49906000  0.07639700  1
  C  C26  1  0.62400700  0.50065200  0.92388300  1
  C  C27  1  0.87593400  0.99906000  0.07639700  1
  C  C28  1  0.12400700  0.00065200  0.92388300  1
  C  C29  1  0.34053500  0.49688800  0.11329400  1
  C  C30  1  0.65940100  0.49832800  0.88712200  1
  C  C31  1  0.84053500  0.99688800  0.11329400  1
  C  C32  1  0.15940100  0.99832800  0.88712200  1
  C  C33  1  0.32351900  0.49850400  0.18490800  1
  C  C34  1  0.67637900  0.49824900  0.81543400  1
  C  C35  1  0.82351900  0.99850400  0.18490800  1
  C  C36  1  0.17637900  0.99824900  0.81543400  1
  C  C37  1  0.34244100  0.50239200  0.21908800  1
  C  C38  1  0.65743000  0.50062400  0.78103400  1
  C  C39  1  0.84244100  0.00239200  0.21908800  1
  C  C40  1  0.15743000  0.00062400  0.78103400  1
  C  C41  1  0.37785900  0.50431100  0.18227000  1
  C  C42  1  0.62202000  0.50269200  0.81773700  1
  C  C43  1  0.87785900  0.00431100  0.18227000  1
  C  C44  1  0.12202000  0.00269200  0.81773700  1
  C  C45  1  0.39484700  0.50264600  0.11065900  1
  C  C46  1  0.60506600  0.50269200  0.88942500  1
  C  C47  1  0.89484700  0.00264600  0.11065900  1
  C  C48  1  0.10506600  0.00269200  0.88942500  1
  C  C49  1  0.26728000  0.51709600  0.28112700  1
  C  C50  1  0.73265300  0.51532200  0.71733300  1
  C  C51  1  0.76728000  0.01709600  0.28112700  1
  C  C52  1  0.23265300  0.01532200  0.71733300  1
  C  C53  1  0.23185000  0.51544800  0.31715700  1
  C  C54  1  0.76807100  0.51343700  0.68130300  1
  C  C55  1  0.73185000  0.01544800  0.31715700  1
  C  C56  1  0.26807100  0.01343700  0.68130300  1
  C  C57  1  0.21436300  0.49267700  0.29722100  1
  C  C58  1  0.78549600  0.49169800  0.70326600  1
  C  C59  1  0.71436300  0.99267700  0.29722100  1
  C  C60  1  0.28549600  0.99169800  0.70326600  1
  C  C61  1  0.23287300  0.47145200  0.24086100  1
  C  C62  1  0.76693700  0.47174800  0.76168000  1
  C  C63  1  0.73287300  0.97145200  0.24086100  1
  C  C64  1  0.26693700  0.97174800  0.76168000  1
  C  C65  1  0.26830500  0.47333900  0.20439500  1
  C  C66  1  0.73151800  0.47388500  0.79812300  1
  C  C67  1  0.76830500  0.97333900  0.20439500  1
  C  C68  1  0.23151800  0.97388500  0.79812300  1
  C  C69  1  0.28577600  0.49622600  0.22417000  1
  C  C70  1  0.71411000  0.49573700  0.77629600  1
  C  C71  1  0.78577600  0.99622600  0.22417000  1
  C  C72  1  0.21411000  0.99573700  0.77629600  1
  C  C73  1  0.15915100  0.46066600  0.34804800  1
  C  C74  1  0.84054600  0.45952100  0.65528000  1
  C  C75  1  0.65915100  0.96066600  0.34804800  1
  C  C76  1  0.34054600  0.95952100  0.65528000  1
  C  C77  1  0.12362600  0.45993900  0.38250400  1
  C  C78  1  0.87606800  0.45861300  0.62074000  1
  C  C79  1  0.62362600  0.95993900  0.38250400  1
  C  C80  1  0.37606800  0.95861300  0.62074000  1
  C  C81  1  0.10506600  0.49024100  0.40331700  1
  C  C82  1  0.89477800  0.48869700  0.59691800  1
  C  C83  1  0.60506600  0.99024100  0.40331700  1
  C  C84  1  0.39477800  0.98869700  0.59691800  1
  C  C85  1  0.12247400  0.52119400  0.38977800  1
  C  C86  1  0.87752300  0.51959500  0.60752000  1
  C  C87  1  0.62247400  0.02119400  0.38977800  1
  C  C88  1  0.37752300  0.01959500  0.60752000  1
  C  C89  1  0.15791500  0.52186900  0.35589600  1
  C  C90  1  0.84208700  0.52043500  0.64148700  1
  C  C91  1  0.65791500  0.02186900  0.35589600  1
  C  C92  1  0.34208700  0.02043500  0.64148700  1
  C  C93  1  0.17654300  0.49165100  0.33455800  1
  C  C94  1  0.82330900  0.49045200  0.66584600  1
  C  C95  1  0.67654300  0.99165100  0.33455800  1
  C  C96  1  0.32330900  0.99045200  0.66584600  1
  C  C97  1  0.99929700  0.43691600  0.00066500  1
  C  C98  1  0.49929700  0.93691600  0.00066500  1
  C  C99  1  0.00551400  0.50433700  0.87629900  1
  C  C100  1  0.99473200  0.50468700  0.12320300  1
  C  C101  1  0.50551400  0.00433700  0.87629900  1
  C  C102  1  0.49473200  0.00468700  0.12320300  1
  C  C103  1  0.00095700  0.57170200  0.99886100  1
  C  C104  1  0.50095700  0.07170200  0.99886100  1
  C  C105  1  0.49991100  0.43665900  0.99862800  1
  C  C106  1  0.99991100  0.93665900  0.99862800  1
  C  C107  1  0.43257500  0.50389100  0.07150800  1
  C  C108  1  0.56733700  0.50397000  0.92849700  1
  C  C109  1  0.93257500  0.00389100  0.07150800  1
  C  C110  1  0.06733700  0.00397000  0.92849700  1
  C  C111  1  0.49999700  0.57144300  0.00134600  1
  C  C112  1  0.99999700  0.07144300  0.00134600  1
  C  C113  1  0.50168300  0.62722800  0.05349400  1
  C  C114  1  0.49821800  0.62708500  0.94884000  1
  C  C115  1  0.00168300  0.12722800  0.05349400  1
  C  C116  1  0.99821800  0.12708500  0.94884000  1
  C  C117  1  0.50173200  0.66269900  0.05326500  1
  C  C118  1  0.49804700  0.66255600  0.94890600  1
  C  C119  1  0.00173200  0.16269900  0.05326500  1
  C  C120  1  0.99804700  0.16255600  0.94890600  1
  C  C121  1  0.49985400  0.68062900  0.00105000  1
  C  C122  1  0.99985400  0.18062900  0.00105000  1
  C  C123  1  0.49997500  0.60918600  0.00121400  1
  C  C124  1  0.99997500  0.10918600  0.00121400  1
  C  C125  1  0.47850400  0.73634900  0.98265000  1
  C  C126  1  0.52094600  0.73654100  0.01927600  1
  C  C127  1  0.97850400  0.23634900  0.98265000  1
  C  C128  1  0.02094600  0.23654100  0.01927600  1
  C  C129  1  0.97830900  0.27181600  0.98289900  1
  C  C130  1  0.02097400  0.27200900  0.01892700  1
  C  C131  1  0.47830900  0.77181600  0.98289900  1
  C  C132  1  0.52097400  0.77200900  0.01892700  1
  C  C133  1  0.99960000  0.28991800  0.00088600  1
  C  C134  1  0.49960000  0.78991800  0.00088600  1
  C  C135  1  0.49976800  0.71843900  0.00098700  1
  C  C136  1  0.99976800  0.21843900  0.00098700  1
  C  C137  1  0.03001200  0.34579900  0.97624500  1
  C  C138  1  0.96894800  0.34566000  0.02533000  1
  C  C139  1  0.53001200  0.84579900  0.97624500  1
  C  C140  1  0.46894800  0.84566000  0.02533000  1
  C  C141  1  0.02996500  0.38127000  0.97597300  1
  C  C142  1  0.96884600  0.38113300  0.02549500  1
  C  C143  1  0.52996500  0.88127000  0.97597300  1
  C  C144  1  0.46884600  0.88113300  0.02549500  1
  C  C145  1  0.99936900  0.39917200  0.00071000  1
  C  C146  1  0.49936900  0.89917200  0.00071000  1
  C  C147  1  0.99951700  0.32772900  0.00081900  1
  C  C148  1  0.49951700  0.82772900  0.00081900  1
  C  C149  1  0.50215700  0.38095500  0.94267000  1
  C  C150  1  0.49785000  0.38109000  0.05486200  1
  C  C151  1  0.00215700  0.88095500  0.94267000  1
  C  C152  1  0.99785000  0.88109000  0.05486200  1
  C  C153  1  0.50241600  0.34550400  0.94262300  1
  C  C154  1  0.49780900  0.34563800  0.05500000  1
  C  C155  1  0.00241600  0.84550400  0.94262300  1
  C  C156  1  0.99780900  0.84563800  0.05500000  1
  C  C157  1  0.50017700  0.32761500  0.99882600  1
  C  C158  1  0.00017700  0.82761500  0.99882600  1
  C  C159  1  0.49995600  0.39896000  0.99873600  1
  C  C160  1  0.99995600  0.89896000  0.99873600  1
  C  C161  1  0.47848400  0.27187500  0.05813200  1
  C  C162  1  0.52229600  0.27193500  0.93959300  1
  C  C163  1  0.97848400  0.77187500  0.05813200  1
  C  C164  1  0.02229600  0.77193500  0.93959300  1
  C  C165  1  0.97848000  0.73642800  0.05803800  1
  C  C166  1  0.02255900  0.73648800  0.93972100  1
  C  C167  1  0.47848000  0.23642800  0.05803800  1
  C  C168  1  0.52255900  0.23648800  0.93972100  1
  C  C169  1  0.00058100  0.71849800  0.99888600  1
  C  C170  1  0.50058100  0.21849800  0.99888600  1
  C  C171  1  0.50032000  0.28986500  0.99885100  1
  C  C172  1  0.00032000  0.78986500  0.99885100  1
  C  C173  1  0.03138700  0.66286900  0.96627200  1
  C  C174  1  0.97008900  0.66271400  0.03149800  1
  C  C175  1  0.53138700  0.16286900  0.96627200  1
  C  C176  1  0.47008900  0.16271400  0.03149800  1
  C  C177  1  0.03150600  0.62741600  0.96650500  1
  C  C178  1  0.97015400  0.62726400  0.03125200  1
  C  C179  1  0.53150600  0.12741600  0.96650500  1
  C  C180  1  0.47015400  0.12726400  0.03125200  1
  C  C181  1  0.00087500  0.60940100  0.99887300  1
  C  C182  1  0.50087500  0.10940100  0.99887300  1
  C  C183  1  0.00069000  0.68074700  0.99889000  1
  C  C184  1  0.50069000  0.18074700  0.99889000  1
  O  O1  1  0.05121100  0.51951600  0.45248600  1
  O  O2  1  0.94876200  0.51780200  0.54501800  1
  O  O3  1  0.55121100  0.01951600  0.45248600  1
  O  O4  1  0.44876200  0.01780200  0.54501900  1
  O  O5  1  0.05114900  0.46018100  0.45414000  1
  O  O6  1  0.94856100  0.45849600  0.54881400  1
  O  O7  1  0.55114900  0.96018100  0.45414000  1
  O  O8  1  0.44856100  0.95849600  0.54881400  1
  O  O9  1  0.99847200  0.51789500  0.59178300  1
  O  O10  1  0.00280000  0.51947400  0.40690200  1
  O  O11  1  0.49847200  0.01789500  0.59178300  1
  O  O12  1  0.50280000  0.01947400  0.40690200  1
  O  O13  1  0.99765100  0.45848700  0.59275700  1
  O  O14  1  0.00075200  0.46010400  0.40904200  1
  O  O15  1  0.49765100  0.95848700  0.59275700  1
  O  O16  1  0.50075200  0.96010400  0.40904200  1
  O  O17  1  0.96963800  0.45298400  0.02697500  1
  O  O18  1  0.02891300  0.45309800  0.97434000  1
  O  O19  1  0.46963800  0.95298400  0.02697500  1
  O  O20  1  0.52891300  0.95309800  0.97434000  1
  O  O21  1  0.97482500  0.50379900  0.93104100  1
  O  O22  1  0.02540900  0.50551000  0.06846100  1
  O  O23  1  0.47482500  0.00379900  0.93104100  1
  O  O24  1  0.52540900  0.00551000  0.06846100  1
  O  O25  1  0.03413400  0.50465700  0.87978500  1
  O  O26  1  0.96613700  0.50340900  0.11969500  1
  O  O27  1  0.53413400  0.00465700  0.87978500  1
  O  O28  1  0.46613700  0.00340900  0.11969500  1
  O  O29  1  0.97129700  0.55555300  0.02621600  1
  O  O30  1  0.03066100  0.55566500  0.97146900  1
  O  O31  1  0.47129700  0.05555300  0.02621600  1
  O  O32  1  0.53066100  0.05566500  0.97146900  1
  O  O33  1  0.50011000  0.45283200  0.05069000  1
  O  O34  1  0.49974900  0.45268800  0.94642600  1
  O  O35  1  0.00011000  0.95283200  0.05069000  1
  O  O36  1  0.99974900  0.95268800  0.94642600  1
  O  O37  1  0.44970000  0.50488000  0.10604400  1
  O  O38  1  0.55020800  0.50337900  0.89395400  1
  O  O39  1  0.94970000  0.00488000  0.10604400  1
  O  O40  1  0.05020800  0.00337900  0.89395400  1
  O  O41  1  0.44771700  0.50321400  0.00350400  1
  O  O42  1  0.55219800  0.50478000  0.99649900  1
  O  O43  1  0.94771700  0.00321400  0.00350400  1
  O  O44  1  0.05219800  0.00478000  0.99649900  1
  O  O45  1  0.50036400  0.55538300  0.05331200  1
  O  O46  1  0.49959900  0.55523800  0.94951500  1
  O  O47  1  0.00036400  0.05538300  0.05331200  1
  O  O48  1  0.99959900  0.05523800  0.94951500  1
  F  F1  1  0.00337500  0.45820300  0.71114600  1
  F  F2  1  0.99600500  0.45953500  0.28988200  1
  F  F3  1  0.50337500  0.95820300  0.71114600  1
  F  F4  1  0.49600500  0.95953500  0.28988200  1
