# generated using pymatgen
data_Zn2H16C31S(NO4)2
_symmetry_space_group_name_H-M   'P 1'
_cell_length_a   8.54794100
_cell_length_b   11.17891600
_cell_length_c   13.40126200
_cell_angle_alpha   90.54725900
_cell_angle_beta   92.61634200
_cell_angle_gamma   80.69984700
_symmetry_Int_Tables_number   1
_chemical_formula_structural   Zn2H16C31S(NO4)2
_chemical_formula_sum   'Zn2 H16 C31 S1 N2 O8'
_cell_volume   1262.42728590
_cell_formula_units_Z   1
loop_
 _symmetry_equiv_pos_site_id
 _symmetry_equiv_pos_as_xyz
  1  'x, y, z'
loop_
 _atom_site_type_symbol
 _atom_site_label
 _atom_site_symmetry_multiplicity
 _atom_site_fract_x
 _atom_site_fract_y
 _atom_site_fract_z
 _atom_site_occupancy
  Zn  Zn1  1  0.49213800  0.49804000  0.88664500  1
  Zn  Zn2  1  0.49720400  0.50982100  0.10886400  1
  H  H1  1  0.00172300  0.58776200  0.96515300  1
  H  H2  1  0.64882900  0.88628700  0.02108500  1
  H  H3  1  0.98929200  0.41958100  0.02833500  1
  H  H4  1  0.33738100  0.11394400  0.97436100  1
  H  H5  1  0.27568100  0.91813100  0.98151500  1
  H  H6  1  0.51961400  0.32369900  0.23899400  1
  H  H7  1  0.46980700  0.68316600  0.74806900  1
  H  H8  1  0.46041100  0.79403400  0.59786100  1
  H  H9  1  0.46431700  0.80124900  0.41611700  1
  H  H10  1  0.51871900  0.30515200  0.41548200  1
  H  H11  1  0.51347500  0.29889300  0.56800800  1
  H  H12  1  0.47790900  0.70208100  0.25831800  1
  H  H13  1  0.51023200  0.30431400  0.74621500  1
  H  H14  1  0.55375500  0.09551900  0.20482700  1
  H  H15  1  0.74043900  0.15227700  0.20178600  1
  H  H16  1  0.73334100  0.99247500  0.18099500  1
  C  C1  1  0.08820300  0.75215100  0.98670700  1
  C  C2  1  0.97020700  0.68263500  0.97992900  1
  C  C3  1  0.81574800  0.73154600  0.99638000  1
  C  C4  1  0.77253700  0.85279900  0.01078800  1
  C  C5  1  0.88410500  0.92795600  0.00541000  1
  C  C6  1  0.04308500  0.87788100  0.99505700  1
  C  C7  1  0.83566400  0.05248900  0.01122200  1
  C  C8  1  0.94461200  0.12942400  0.00345500  1
  C  C9  1  0.10309700  0.07890200  0.99324500  1
  C  C10  1  0.15204200  0.95481100  0.99004600  1
  C  C11  1  0.90104700  0.25558200  0.00949900  1
  C  C12  1  0.02003200  0.32436000  0.01491000  1
  C  C13  1  0.17443100  0.27454700  0.99912400  1
  C  C14  1  0.21562700  0.15242200  0.98603600  1
  C  C15  1  0.29413800  0.35209700  0.99731000  1
  C  C16  1  0.25256400  0.68312700  0.99001100  1
  C  C17  1  0.69612000  0.65454000  0.99815000  1
  C  C18  1  0.73763100  0.32591000  0.00559900  1
  C  C19  1  0.48744000  0.61529500  0.29493400  1
  C  C20  1  0.51064700  0.40490800  0.28407000  1
  C  C21  1  0.50957000  0.39518100  0.38621200  1
  C  C22  1  0.49651000  0.49829800  0.44544200  1
  C  C23  1  0.48577800  0.60921000  0.39802400  1
  C  C24  1  0.50348800  0.38652900  0.60281300  1
  C  C25  1  0.49372400  0.49405700  0.54972300  1
  C  C26  1  0.48085700  0.60105200  0.60355000  1
  C  C27  1  0.47044500  0.71064500  0.55540500  1
  C  C28  1  0.47273200  0.71475300  0.45305200  1
  C  C29  1  0.50132300  0.38845200  0.70567300  1
  C  C30  1  0.47891400  0.59922600  0.70643000  1
  C  C31  1  0.66931500  0.08599200  0.16872900  1
  S  S1  1  0.63469900  0.11378000  0.03576000  1
  N  N1  1  0.49962100  0.51343500  0.23974900  1
  N  N2  1  0.48947200  0.49387000  0.75578300  1
  O  O1  1  0.34099800  0.39523300  0.08239000  1
  O  O2  1  0.34357600  0.37970800  0.91076700  1
  O  O3  1  0.30676700  0.63154900  0.90675500  1
  O  O4  1  0.31599700  0.64600900  0.07826400  1
  O  O5  1  0.64856500  0.61244100  0.91281200  1
  O  O6  1  0.64607300  0.62793000  0.08491800  1
  O  O7  1  0.68277100  0.37657500  0.08883100  1
  O  O8  1  0.67367200  0.36213000  0.91728300  1
