# generated using pymatgen
data_Zn2H20C27N2O9
_symmetry_space_group_name_H-M   'P 1'
_cell_length_a   6.59475800
_cell_length_b   12.45135700
_cell_length_c   14.17248200
_cell_angle_alpha   100.17295800
_cell_angle_beta   90.66993500
_cell_angle_gamma   99.96602300
_symmetry_Int_Tables_number   1
_chemical_formula_structural   Zn2H20C27N2O9
_chemical_formula_sum   'Zn2 H20 C27 N2 O9'
_cell_volume   1127.10268642
_cell_formula_units_Z   1
loop_
 _symmetry_equiv_pos_site_id
 _symmetry_equiv_pos_as_xyz
  1  'x, y, z'
loop_
 _atom_site_type_symbol
 _atom_site_label
 _atom_site_symmetry_multiplicity
 _atom_site_fract_x
 _atom_site_fract_y
 _atom_site_fract_z
 _atom_site_occupancy
  Zn  Zn1  1  0.50542800  0.48411000  0.89276700  1
  Zn  Zn2  1  0.49640500  0.51608400  0.10614100  1
  H  H1  1  0.47336600  0.84007100  0.96952900  1
  H  H2  1  0.35183100  0.01125200  0.96856900  1
  H  H3  1  0.74936900  0.85389900  0.02977900  1
  H  H4  1  0.65001300  0.98895100  0.03036300  1
  H  H5  1  0.52847400  0.16013100  0.02939700  1
  H  H6  1  0.25247000  0.14630000  0.96914000  1
  H  H7  1  0.76070900  0.64498200  0.44824900  1
  H  H8  1  0.17968600  0.49014800  0.57056300  1
  H  H9  1  0.33514700  0.62307600  0.62010800  1
  H  H10  1  0.39730800  0.66465100  0.47163900  1
  H  H11  1  0.19167100  0.54909000  0.42804100  1
  H  H12  1  0.61127400  0.33720600  0.52805900  1
  H  H13  1  0.33526100  0.32120300  0.54184300  1
  H  H14  1  0.54297100  0.34280600  0.37191100  1
  H  H15  1  0.83530700  0.51615500  0.58594500  1
  H  H16  1  0.82216700  0.50665000  0.42512200  1
  H  H17  1  0.27952900  0.35979600  0.39419900  1
  H  H18  1  0.88671400  0.71813000  0.61171400  1
  H  H19  1  0.71239100  0.66983100  0.69896600  1
  H  H20  1  0.66353000  0.78783100  0.56242000  1
  C  C1  1  0.31454900  0.84432600  0.98441000  1
  C  C2  1  0.24402300  0.94187600  0.98391100  1
  C  C3  1  0.04026600  0.94835700  0.00133600  1
  C  C4  1  0.91053000  0.85459200  0.01941700  1
  C  C5  1  0.98085600  0.75632200  0.01913400  1
  C  C6  1  0.18494400  0.75162900  0.00215200  1
  C  C7  1  0.75781700  0.05832400  0.01501400  1
  C  C8  1  0.68729000  0.15587400  0.01451200  1
  C  C9  1  0.81689000  0.24856700  0.99675900  1
  C  C10  1  0.02097800  0.24387400  0.97977500  1
  C  C11  1  0.09130700  0.14560500  0.97950000  1
  C  C12  1  0.96157100  0.05184100  0.99758300  1
  C  C13  1  0.73014000  0.34862300  0.99738200  1
  C  C14  1  0.17513700  0.34430000  0.98371400  1
  C  C15  1  0.27169300  0.65157200  0.00152600  1
  C  C16  1  0.82669500  0.65589600  0.01519300  1
  C  C17  1  0.70684900  0.55524500  0.56506500  1
  C  C18  1  0.32826800  0.54612400  0.56621600  1
  C  C19  1  0.34455400  0.57421000  0.46654900  1
  C  C20  1  0.50361400  0.48777900  0.58598500  1
  C  C21  1  0.71190900  0.55823400  0.45874000  1
  C  C22  1  0.49885700  0.51244200  0.41292500  1
  C  C23  1  0.44304000  0.39041300  0.41856900  1
  C  C24  1  0.47308900  0.37539200  0.52126900  1
  C  C25  1  0.49613900  0.52488200  0.31213600  1
  C  C26  1  0.50593300  0.47531500  0.68677100  1
  C  C27  1  0.73098100  0.67224000  0.62165700  1
  N  N1  1  0.49464000  0.53092300  0.23158500  1
  N  N2  1  0.50720000  0.46927000  0.76732300  1
  O  O1  1  0.66674100  0.39539900  0.07922500  1
  O  O2  1  0.68373500  0.37387900  0.91460400  1
  O  O3  1  0.25981200  0.36637600  0.90420600  1
  O  O4  1  0.24694800  0.39639300  0.06929400  1
  O  O5  1  0.33509200  0.60479500  0.91968100  1
  O  O6  1  0.31809700  0.62631600  0.08430500  1
  O  O7  1  0.74202100  0.63381900  0.09470100  1
  O  O8  1  0.75488500  0.60380100  0.92961300  1
  O  O9  1  0.58299700  0.72610200  0.58898000  1
