# generated using pymatgen
data_Zn2H29C44N2O8F
_symmetry_space_group_name_H-M   'P 1'
_cell_length_a   6.59705200
_cell_length_b   14.24181600
_cell_length_c   19.62772200
_cell_angle_alpha   96.61332500
_cell_angle_beta   89.07017700
_cell_angle_gamma   89.91727000
_symmetry_Int_Tables_number   1
_chemical_formula_structural   Zn2H29C44N2O8F
_chemical_formula_sum   'Zn2 H29 C44 N2 O8 F1'
_cell_volume   1831.58095908
_cell_formula_units_Z   1
loop_
 _symmetry_equiv_pos_site_id
 _symmetry_equiv_pos_as_xyz
  1  'x, y, z'
loop_
 _atom_site_type_symbol
 _atom_site_label
 _atom_site_symmetry_multiplicity
 _atom_site_fract_x
 _atom_site_fract_y
 _atom_site_fract_z
 _atom_site_occupancy
  Zn  Zn1  1  0.02413600  0.10206900  0.49925900  1
  Zn  Zn2  1  0.00370200  0.89219100  0.49608200  1
  H  H1  1  0.13724100  0.99308700  0.71564600  1
  H  H2  1  0.86780700  0.05573100  0.71919200  1
  H  H3  1  0.67926500  0.05383100  0.82727000  1
  H  H4  1  0.88975500  0.00125100  0.28079200  1
  H  H5  1  0.15959500  0.94252500  0.27629200  1
  H  H6  1  0.34245700  0.95003400  0.16911900  1
  H  H7  1  0.50437300  0.92809300  0.08644800  1
  H  H8  1  0.01349600  0.04199800  0.19992500  1
  H  H9  1  0.19950400  0.04988700  0.09479300  1
  H  H10  1  0.68493700  0.94277400  0.98122000  1
  H  H11  1  0.31211300  0.08815700  0.01133200  1
  H  H12  1  0.85806000  0.92132900  0.90120800  1
  H  H13  1  0.49885300  0.09657300  0.90509300  1
  H  H14  1  0.04271300  0.93351300  0.79530000  1
  H  H15  1  0.87076200  0.55262800  0.39713600  1
  H  H16  1  0.87192400  0.39516000  0.40182100  1
  H  H17  1  0.34863500  0.42497800  0.50199900  1
  H  H18  1  0.24406700  0.40941500  0.41678700  1
  H  H19  1  0.23343500  0.56716400  0.41674600  1
  H  H20  1  0.33030200  0.58427300  0.50274200  1
  H  H21  1  0.84874300  0.42916400  0.59314400  1
  H  H22  1  0.11986000  0.44220400  0.60326600  1
  H  H23  1  0.81285800  0.58497300  0.58581300  1
  H  H24  1  0.70524900  0.40923400  0.47650800  1
  H  H25  1  0.69118800  0.56576700  0.46844700  1
  H  H26  1  0.89949500  0.71577000  0.65893000  1
  H  H27  1  0.14202900  0.80039700  0.73749200  1
  H  H28  1  0.60490000  0.60440900  0.66289200  1
  H  H29  1  0.36266000  0.51919500  0.58498100  1
  C  C1  1  0.65581100  0.95630600  0.08928800  1
  C  C2  1  0.74410900  0.98391300  0.15177200  1
  C  C3  1  0.94004400  0.01831300  0.15243200  1
  C  C4  1  0.04590100  0.02433300  0.09193400  1
  C  C5  1  0.95722900  0.99717800  0.02945400  1
  C  C6  1  0.76082200  0.96337800  0.02877300  1
  C  C7  1  0.25160700  0.05258200  0.96466100  1
  C  C8  1  0.07000900  0.00398500  0.96480400  1
  C  C9  1  0.99639100  0.96157900  0.90318100  1
  C  C10  1  0.35818000  0.05780600  0.90416500  1
  C  C11  1  0.28319300  0.01599900  0.84290200  1
  C  C12  1  0.10155200  0.96823700  0.84266300  1
  C  C13  1  0.29845800  0.00565000  0.71677600  1
  C  C14  1  0.40331100  0.00948500  0.65577700  1
  C  C15  1  0.60954200  0.02610400  0.65646500  1
  C  C16  1  0.70634000  0.04327900  0.71843100  1
  C  C17  1  0.60002000  0.04202100  0.77934700  1
  C  C18  1  0.39600300  0.02128300  0.77864400  1
  C  C19  1  0.72900800  0.98947500  0.27859300  1
  C  C20  1  0.62440000  0.98477600  0.33953600  1
  C  C21  1  0.41830100  0.96869100  0.33891600  1
  C  C22  1  0.32095900  0.95456500  0.27703200  1
  C  C23  1  0.42573100  0.95871500  0.21617700  1
  C  C24  1  0.63114700  0.97734900  0.21643900  1
  C  C25  1  0.73385400  0.01569500  0.59383800  1
  C  C26  1  0.28669100  0.00406800  0.59297200  1
  C  C27  1  0.29412000  0.97865600  0.40155300  1
  C  C28  1  0.74118400  0.99013900  0.40233500  1
  C  C29  1  0.84983600  0.43236200  0.45424000  1
  C  C30  1  0.22069800  0.44346800  0.47005600  1
  C  C31  1  0.21034900  0.54969500  0.46993800  1
  C  C32  1  0.02386800  0.40886800  0.49890600  1
  C  C33  1  0.84253300  0.53799600  0.45075300  1
  C  C34  1  0.00409200  0.58538700  0.49639100  1
  C  C35  1  0.96850000  0.56226900  0.56912200  1
  C  C36  1  0.98940100  0.45677100  0.57111000  1
  C  C37  1  0.99407800  0.68782500  0.49526800  1
  C  C38  1  0.03379500  0.30643300  0.50005500  1
  C  C39  1  0.11663400  0.61325400  0.61620700  1
  C  C40  1  0.05466500  0.69144900  0.65962300  1
  C  C41  1  0.19063200  0.73891400  0.70367200  1
  C  C42  1  0.38851100  0.70789100  0.70463500  1
  C  C43  1  0.45016200  0.62918000  0.66174300  1
  C  C44  1  0.31429900  0.58175800  0.61761400  1
  N  N1  1  0.98951900  0.76895000  0.49472600  1
  N  N2  1  0.03830700  0.22531100  0.50061200  1
  O  O1  1  0.79596200  0.93021100  0.57058000  1
  O  O2  1  0.80571100  0.09227700  0.57106500  1
  O  O3  1  0.22628000  0.08396400  0.57253600  1
  O  O4  1  0.21648000  0.92135100  0.56789900  1
  O  O5  1  0.23185300  0.06407000  0.42477800  1
  O  O6  1  0.22219400  0.90199900  0.42427600  1
  O  O7  1  0.80159400  0.91027800  0.42279200  1
  O  O8  1  0.81137300  0.07287800  0.42743600  1
  F  F1  1  0.52205900  0.75441200  0.74800900  1
