# generated using pymatgen
data_ZnH20C24NO4
_symmetry_space_group_name_H-M   'P 1'
_cell_length_a   12.45608200
_cell_length_b   13.66669800
_cell_length_c   14.53717500
_cell_angle_alpha   89.98650600
_cell_angle_beta   102.96516000
_cell_angle_gamma   86.66277300
_symmetry_Int_Tables_number   1
_chemical_formula_structural   ZnH20C24NO4
_chemical_formula_sum   'Zn2 H40 C48 N2 O8'
_cell_volume   2407.31115026
_cell_formula_units_Z   2
loop_
 _symmetry_equiv_pos_site_id
 _symmetry_equiv_pos_as_xyz
  1  'x, y, z'
loop_
 _atom_site_type_symbol
 _atom_site_label
 _atom_site_symmetry_multiplicity
 _atom_site_fract_x
 _atom_site_fract_y
 _atom_site_fract_z
 _atom_site_occupancy
  Zn  Zn1  1  0.38508800  0.47601400  0.48011600  1
  Zn  Zn2  1  0.62715500  0.52240200  0.52611600  1
  H  H1  1  0.76164100  0.22702500  0.50553400  1
  H  H2  1  0.74610500  0.89491800  0.44807700  1
  H  H3  1  0.80486200  0.05461500  0.48234200  1
  H  H4  1  0.43621900  0.16593700  0.51811700  1
  H  H5  1  0.34332300  0.05953400  0.55479700  1
  H  H6  1  0.20556700  0.94863800  0.52618100  1
  H  H7  1  0.60933000  0.77832900  0.42811800  1
  H  H8  1  0.24717500  0.34971300  0.34644400  1
  H  H9  1  0.86138200  0.33452000  0.34408300  1
  H  H10  1  0.19707300  0.53624800  0.55713600  1
  H  H11  1  0.08647600  0.62894100  0.60369600  1
  H  H12  1  0.96214400  0.70449600  0.68358000  1
  H  H13  1  0.74500200  0.41132400  0.42592900  1
  H  H14  1  0.96845000  0.32351700  0.23255000  1
  H  H15  1  0.00079500  0.22611500  0.32057800  1
  H  H16  1  0.18694300  0.19995800  0.28936500  1
  H  H17  1  0.15428300  0.29803800  0.20040400  1
  H  H18  1  0.99856800  0.20726500  0.11196900  1
  H  H19  1  0.03068500  0.11011100  0.20019400  1
  H  H20  1  0.18500000  0.17936300  0.07857300  1
  H  H21  1  0.10917600  0.06948200  0.06189500  1
  H  H22  1  0.21701800  0.08201400  0.16683800  1
  H  H23  1  0.67088200  0.66901700  0.65728100  1
  H  H24  1  0.77254300  0.75541500  0.67530000  1
  H  H25  1  0.88415500  0.65657700  0.81072100  1
  H  H26  1  0.78559200  0.56293800  0.78778900  1
  H  H27  1  0.63905200  0.68404400  0.81576100  1
  H  H28  1  0.73793300  0.77786900  0.83678700  1
  H  H29  1  0.75436300  0.58541700  0.95006600  1
  H  H30  1  0.71280000  0.70552600  0.98655700  1
  H  H31  1  0.85195900  0.68062400  0.97159000  1
  H  H32  1  0.13328100  0.81270200  0.47739600  1
  H  H33  1  0.21141200  0.70141800  0.50204400  1
  H  H34  1  0.24029600  0.70200000  0.33504200  1
  H  H35  1  0.18133900  0.82596700  0.31903500  1
  H  H36  1  0.00185300  0.77228600  0.33764700  1
  H  H37  1  0.05965200  0.64788700  0.36075300  1
  H  H38  1  0.04573800  0.76726200  0.17882400  1
  H  H39  1  0.95632000  0.67203000  0.19452300  1
  H  H40  1  0.10126600  0.64190400  0.20181000  1
  C  C1  1  0.44822000  0.68859500  0.48980800  1
  C  C2  1  0.50783800  0.49872700  0.68328800  1
  C  C3  1  0.56275900  0.31113800  0.51408600  1
  C  C4  1  0.50390700  0.49920500  0.32285400  1
  C  C5  1  0.50765700  0.49837500  0.78195900  1
  C  C6  1  0.50709000  0.49825600  0.86473700  1
  C  C7  1  0.50622000  0.49834600  0.96169300  1
  C  C8  1  0.50544200  0.49853800  0.04442900  1
  C  C9  1  0.50461200  0.49882200  0.14139400  1
  C  C10  1  0.50411000  0.49904300  0.22418600  1
  C  C11  1  0.72419600  0.07750600  0.49334000  1
  C  C12  1  0.59471100  0.20596300  0.51378200  1
  C  C13  1  0.30573700  0.82877900  0.48939000  1
  C  C14  1  0.28589900  0.92340700  0.51607800  1
  C  C15  1  0.36593300  0.98921300  0.52947200  1
  C  C16  1  0.46649900  0.96572800  0.50693500  1
  C  C17  1  0.49122100  0.86841800  0.48542500  1
  C  C18  1  0.54265800  0.03763900  0.50569800  1
  C  C19  1  0.64547400  0.00984300  0.49034400  1
  C  C20  1  0.66845100  0.91514200  0.46647100  1
  C  C21  1  0.59063700  0.84682600  0.45917300  1
  C  C22  1  0.51726400  0.13761700  0.51450800  1
  C  C23  1  0.69974200  0.17511300  0.50657400  1
  C  C24  1  0.41406400  0.79625200  0.48542200  1
  C  C25  1  0.07820200  0.36018900  0.36227800  1
  C  C26  1  0.82599000  0.62126400  0.62071300  1
  C  C27  1  0.93330800  0.64678700  0.63505500  1
  C  C28  1  0.00553800  0.60137300  0.58912800  1
  C  C29  1  0.97153300  0.52682200  0.52717500  1
  C  C30  1  0.86032200  0.50517500  0.50942100  1
  C  C31  1  0.04555300  0.47576200  0.48056800  1
  C  C32  1  0.00684600  0.40773300  0.41214900  1
  C  C33  1  0.89697100  0.38763100  0.39496700  1
  C  C34  1  0.82683100  0.43391800  0.44345300  1
  C  C35  1  0.15823500  0.49060100  0.50091500  1
  C  C36  1  0.18805500  0.38269500  0.38272600  1
  C  C37  1  0.03497700  0.28656100  0.28732000  1
  C  C38  1  0.12023600  0.24044500  0.23746300  1
  C  C39  1  0.06563800  0.16839300  0.16477600  1
  C  C40  1  0.14991100  0.12186600  0.11484800  1
  C  C41  1  0.75928400  0.67619700  0.68007200  1
  C  C42  1  0.79616100  0.64259800  0.78274100  1
  C  C43  1  0.72736900  0.69817700  0.84182700  1
  C  C44  1  0.76419900  0.66514400  0.94419000  1
  C  C45  1  0.20512100  0.77035400  0.46123200  1
  C  C46  1  0.17889700  0.75481300  0.35497400  1
  C  C47  1  0.06444100  0.71714200  0.32275800  1
  C  C48  1  0.04057700  0.69840400  0.21756000  1
  N  N1  1  0.22517900  0.44635900  0.45091700  1
  N  N2  1  0.78691600  0.55250200  0.55517400  1
  O  O1  1  0.37208000  0.62448100  0.47626300  1
  O  O2  1  0.55359000  0.65963900  0.51304300  1
  O  O3  1  0.41598000  0.48200700  0.62281800  1
  O  O4  1  0.59955800  0.51611200  0.65811300  1
  O  O5  1  0.45711200  0.33842300  0.49389800  1
  O  O6  1  0.64077900  0.37378900  0.52924900  1
  O  O7  1  0.41252100  0.48043700  0.34803400  1
  O  O8  1  0.59532100  0.51788500  0.38322000  1
