# generated using pymatgen
data_Cu3H29C44(ClO4)3
_symmetry_space_group_name_H-M   'P 1'
_cell_length_a   21.85068800
_cell_length_b   21.85263800
_cell_length_c   22.13516800
_cell_angle_alpha   119.56559100
_cell_angle_beta   119.56112000
_cell_angle_gamma   90.01311100
_symmetry_Int_Tables_number   1
_chemical_formula_structural   Cu3H29C44(ClO4)3
_chemical_formula_sum   'Cu6 H58 C88 Cl6 O24'
_cell_volume   7570.47391797
_cell_formula_units_Z   2
loop_
 _symmetry_equiv_pos_site_id
 _symmetry_equiv_pos_as_xyz
  1  'x, y, z'
loop_
 _atom_site_type_symbol
 _atom_site_label
 _atom_site_symmetry_multiplicity
 _atom_site_fract_x
 _atom_site_fract_y
 _atom_site_fract_z
 _atom_site_occupancy
  Cu  Cu1  1  0.06221400  0.51044900  0.50057300  1
  Cu  Cu2  1  0.94293000  0.49820600  0.50421200  1
  Cu  Cu3  1  0.49766300  0.94126100  0.50270600  1
  Cu  Cu4  1  0.50013600  0.06245700  0.50134700  1
  Cu  Cu5  1  0.04046900  0.04717800  0.58354000  1
  Cu  Cu6  1  0.95478100  0.96229100  0.41853500  1
  H  H1  1  0.33012800  0.70272400  0.07405200  1
  H  H2  1  0.68042400  0.30674800  0.93066400  1
  H  H3  1  0.11488200  0.72343400  0.92681200  1
  H  H4  1  0.88536600  0.27072000  0.07520500  1
  H  H5  1  0.14381700  0.64806000  0.92496600  1
  H  H6  1  0.86445500  0.34877500  0.07687000  1
  H  H7  1  0.21374600  0.71592100  0.06794000  1
  H  H8  1  0.79299500  0.28007700  0.93391900  1
  H  H9  1  0.18409800  0.79338400  0.06987100  1
  H  H10  1  0.81430000  0.19979500  0.93211200  1
  H  H11  1  0.28011700  0.80557800  0.94259400  1
  H  H12  1  0.71463000  0.20837900  0.06372200  1
  H  H13  1  0.34140500  0.87515500  0.07948200  1
  H  H14  1  0.65209300  0.13653300  0.92677500  1
  H  H15  1  0.31722400  0.71196100  0.94139500  1
  H  H16  1  0.68834000  0.30526800  0.06534000  1
  H  H17  1  0.38206100  0.76913900  0.07780000  1
  H  H18  1  0.62274900  0.24702400  0.92882900  1
  H  H19  1  0.26076200  0.88825700  0.07934500  1
  H  H20  1  0.73063300  0.11497100  0.92605200  1
  H  H21  1  0.04042000  0.25697300  0.62211900  1
  H  H22  1  0.99638000  0.76214000  0.40268700  1
  H  H23  1  0.97674400  0.17703800  0.43499400  1
  H  H24  1  0.99873200  0.83107900  0.56264100  1
  H  H25  1  0.99751100  0.35596100  0.59663500  1
  H  H26  1  0.03119100  0.66643600  0.43255600  1
  H  H27  1  0.05674300  0.29299200  0.48619600  1
  H  H28  1  0.93938500  0.70943500  0.50719000  1
  H  H29  1  0.82642000  0.03488100  0.56727900  1
  H  H30  1  0.17224000  0.98597600  0.44080100  1
  H  H31  1  0.65314100  0.04510700  0.42907900  1
  H  H32  1  0.33244400  0.94146700  0.55307000  1
  H  H33  1  0.70972500  0.95855600  0.50885500  1
  H  H34  1  0.29194200  0.05034100  0.50209200  1
  H  H35  1  0.65018800  0.91652500  0.28429500  1
  H  H36  1  0.63274800  0.91579100  0.16553100  1
  H  H37  1  0.81964500  0.11224800  0.33682800  1
  H  H38  1  0.83679400  0.11394700  0.45575200  1
  H  H39  1  0.14290600  0.86750000  0.51029600  1
  H  H40  1  0.15555400  0.84172900  0.61135700  1
  H  H41  1  0.35407500  0.02690100  0.80807100  1
  H  H42  1  0.34180200  0.05316900  0.70759300  1
  H  H43  1  0.29715500  0.60241300  0.83158200  1
  H  H44  1  0.27146600  0.46842500  0.75788500  1
  H  H45  1  0.20378600  0.46576400  0.90696100  1
  H  H46  1  0.22930100  0.59915100  0.98194500  1
  H  H47  1  0.71601200  0.41846900  0.17550900  1
  H  H48  1  0.75256200  0.55301700  0.24866000  1
  H  H49  1  0.82346200  0.53799100  0.09550600  1
  H  H50  1  0.78723300  0.40386800  0.02106200  1
  H  H51  1  0.20991600  0.81573000  0.83413300  1
  H  H52  1  0.11504900  0.86130900  0.76651400  1
  H  H53  1  0.04175200  0.89466600  0.92300700  1
  H  H54  1  0.13547300  0.84965900  0.99154100  1
  H  H55  1  0.77633800  0.19513200  0.17058900  1
  H  H56  1  0.86165200  0.14286400  0.23773400  1
  H  H57  1  0.94014900  0.09401700  0.08249100  1
  H  H58  1  0.85552800  0.14517800  0.01399300  1
  C  C1  1  0.02094300  0.39205100  0.51070800  1
  C  C2  1  0.98434900  0.61679200  0.49424100  1
  C  C3  1  0.08467900  0.59043200  0.66399300  1
  C  C4  1  0.92041100  0.41796700  0.34074600  1
  C  C5  1  0.28097100  0.69450100  0.95532300  1
  C  C6  1  0.72614800  0.31724400  0.05015300  1
  C  C7  1  0.16495700  0.70726400  0.95117300  1
  C  C8  1  0.83849800  0.29094000  0.05144700  1
  C  C9  1  0.21067800  0.75298300  0.04664000  1
  C  C10  1  0.79164700  0.24454900  0.95593000  1
  C  C11  1  0.36902100  0.87541600  0.24985800  1
  C  C12  1  0.62961200  0.12846500  0.75432000  1
  C  C13  1  0.21212800  0.71796700  0.92239700  1
  C  C14  1  0.79041600  0.28809000  0.08218500  1
  C  C15  1  0.32507600  0.73851400  0.05100100  1
  C  C16  1  0.68105000  0.27232400  0.95433500  1
  C  C17  1  0.28831600  0.79412600  0.08182600  1
  C  C18  1  0.71226600  0.21071400  0.92253200  1
  C  C19  1  0.28427500  0.84568000  0.05347600  1
  C  C20  1  0.71043900  0.16122100  0.95193000  1
  C  C21  1  0.23995300  0.79997400  0.95765600  1
  C  C22  1  0.75544000  0.20792400  0.04783800  1
  C  C23  1  0.33221500  0.83830400  0.17392400  1
  C  C24  1  0.66721200  0.16589600  0.83031200  1
  C  C25  1  0.16774400  0.67351800  0.83027300  1
  C  C26  1  0.83613400  0.33329600  0.17440200  1
  C  C27  1  0.13047100  0.63614500  0.75434600  1
  C  C28  1  0.87429100  0.37143700  0.25036500  1
  C  C29  1  0.02417500  0.25148200  0.56438700  1
  C  C30  1  0.99411300  0.76372100  0.45122000  1
  C  C31  1  0.00270800  0.18461400  0.49551200  1
  C  C32  1  0.99281400  0.82567200  0.50851200  1
  C  C33  1  0.01466100  0.31582900  0.55962500  1
  C  C34  1  0.00310600  0.70029700  0.45811400  1
  C  C35  1  0.03140400  0.32804100  0.51536400  1
  C  C36  1  0.97390300  0.68069300  0.48909500  1
  C  C37  1  0.61267400  0.99524900  0.49521700  1
  C  C38  1  0.38478000  0.00818600  0.50830100  1
  C  C39  1  0.41397700  0.92070300  0.34030100  1
  C  C40  1  0.58397000  0.08304200  0.66381300  1
  C  C41  1  0.88389000  0.01512500  0.50506600  1
  C  C42  1  0.11103100  0.99327400  0.49619600  1
  C  C43  1  0.00266400  0.11880500  0.49762900  1
  C  C44  1  0.99243900  0.89076000  0.50475800  1
  C  C45  1  0.75423000  0.01510800  0.44817800  1
  C  C46  1  0.23624800  0.97768000  0.54306700  1
  C  C47  1  0.81920100  0.02125500  0.50951300  1
  C  C48  1  0.17573300  0.98613400  0.49140900  1
  C  C49  1  0.69114700  0.02025000  0.45615700  1
  C  C50  1  0.29938000  0.97377100  0.53501900  1
  C  C51  1  0.67677600  0.99045100  0.48971500  1
  C  C52  1  0.32014800  0.01245900  0.51296100  1
  C  C53  1  0.74628600  0.01357100  0.37755800  1
  C  C54  1  0.68790400  0.95931700  0.29608200  1
  C  C55  1  0.67805100  0.95885000  0.22932100  1
  C  C56  1  0.72573300  0.01340400  0.24387500  1
  C  C57  1  0.78286500  0.06883800  0.32527600  1
  C  C58  1  0.79286500  0.06926300  0.39205400  1
  C  C59  1  0.24022900  0.96367900  0.60309800  1
  C  C60  1  0.18857000  0.90359800  0.57598400  1
  C  C61  1  0.19582500  0.88876000  0.63253800  1
  C  C62  1  0.25497600  0.93333500  0.71598100  1
  C  C63  1  0.30727000  0.99239500  0.74280900  1
  C  C64  1  0.30028100  0.00710000  0.68631300  1
  C  C65  1  0.26443600  0.61152100  0.91188400  1
  C  C66  1  0.27692400  0.57341400  0.84932800  1
  C  C67  1  0.26224900  0.49755300  0.80719200  1
  C  C68  1  0.23569100  0.45879300  0.82756000  1
  C  C69  1  0.22421000  0.49606900  0.89051600  1
  C  C70  1  0.23861700  0.57192100  0.93269300  1
  C  C71  1  0.74948900  0.40035100  0.09318000  1
  C  C72  1  0.73926500  0.44366000  0.15672500  1
  C  C73  1  0.76007200  0.51985500  0.19856200  1
  C  C74  1  0.79058100  0.55382000  0.17689300  1
  C  C75  1  0.79991400  0.51142300  0.11295500  1
  C  C76  1  0.77940300  0.43518700  0.07109100  1
  C  C77  1  0.18004500  0.82837400  0.91769900  1
  C  C78  1  0.17365700  0.83314100  0.85480800  1
  C  C79  1  0.11997900  0.85867200  0.81616200  1
  C  C80  1  0.07252600  0.88066900  0.84048800  1
  C  C81  1  0.07882100  0.87714900  0.90360300  1
  C  C82  1  0.13220200  0.85133900  0.94218300  1
  C  C83  1  0.80965000  0.17531600  0.08770800  1
  C  C84  1  0.81177700  0.17299800  0.15014900  1
  C  C85  1  0.86007900  0.14367400  0.18855200  1
  C  C86  1  0.90636300  0.11553000  0.16452200  1
  C  C87  1  0.90412100  0.11650200  0.10178000  1
  C  C88  1  0.85603600  0.14595200  0.06333000  1
  Cl  Cl1  1  0.71302400  0.01300800  0.15913000  1
  Cl  Cl2  1  0.26458900  0.91411600  0.78761100  1
  Cl  Cl3  1  0.21685600  0.36239600  0.77377700  1
  Cl  Cl4  1  0.81719800  0.65065500  0.23033700  1
  Cl  Cl5  1  0.00445200  0.91317700  0.79139600  1
  Cl  Cl6  1  0.96771100  0.07833900  0.21340800  1
  O  O1  1  0.06580100  0.42211400  0.50252200  1
  O  O2  1  0.93884100  0.58607300  0.50130500  1
  O  O3  1  0.96676800  0.41593100  0.51376500  1
  O  O4  1  0.03890000  0.59326500  0.49203200  1
  O  O5  1  0.11670600  0.57230300  0.62342400  1
  O  O6  1  0.88851100  0.43565700  0.38139300  1
  O  O7  1  0.01268300  0.56724700  0.62624400  1
  O  O8  1  0.99236300  0.44200500  0.37844500  1
  O  O9  1  0.58652900  0.94669100  0.50205700  1
  O  O10  1  0.41159600  0.05740100  0.50266300  1
  O  O11  1  0.58418000  0.04758200  0.49310800  1
  O  O12  1  0.41318600  0.95574600  0.51013200  1
  O  O13  1  0.43604500  0.88791200  0.37999200  1
  O  O14  1  0.56228000  0.11578900  0.62405800  1
  O  O15  1  0.43263100  0.99303200  0.37904000  1
  O  O16  1  0.56470800  0.01070200  0.62507000  1
  O  O17  1  0.94911900  0.06385200  0.57364500  1
  O  O18  1  0.04787200  0.97749100  0.42769000  1
  O  O19  1  0.87490800  0.96024100  0.43489900  1
  O  O20  1  0.11860300  0.01730800  0.56800300  1
  O  O21  1  0.05396500  0.12525400  0.56761300  1
  O  O22  1  0.97306600  0.88168700  0.43345500  1
  O  O23  1  0.94978100  0.05595000  0.42901000  1
  O  O24  1  0.01359500  0.95605600  0.57401200  1
