# generated using pymatgen
data_CuH38C38(N2O3)2
_symmetry_space_group_name_H-M   'P 1'
_cell_length_a   15.47484700
_cell_length_b   17.07731700
_cell_length_c   23.32782400
_cell_angle_alpha   90.01966400
_cell_angle_beta   92.77204800
_cell_angle_gamma   96.30077100
_symmetry_Int_Tables_number   1
_chemical_formula_structural   CuH38C38(N2O3)2
_chemical_formula_sum   'Cu2 H76 C76 N8 O12'
_cell_volume   6120.30959365
_cell_formula_units_Z   2
loop_
 _symmetry_equiv_pos_site_id
 _symmetry_equiv_pos_as_xyz
  1  'x, y, z'
loop_
 _atom_site_type_symbol
 _atom_site_label
 _atom_site_symmetry_multiplicity
 _atom_site_fract_x
 _atom_site_fract_y
 _atom_site_fract_z
 _atom_site_occupancy
  Cu  Cu1  1  0.40875100  0.48962300  0.49403800  1
  Cu  Cu2  1  0.58297200  0.51372600  0.50157500  1
  H  H1  1  0.63343200  0.36573600  0.94405800  1
  H  H2  1  0.35185300  0.62183100  0.05146400  1
  H  H3  1  0.53379800  0.62309600  0.21400600  1
  H  H4  1  0.43238600  0.37712900  0.77705200  1
  H  H5  1  0.52927400  0.62406400  0.31933900  1
  H  H6  1  0.43440400  0.38170700  0.67300900  1
  H  H7  1  0.47337500  0.37376000  0.21268000  1
  H  H8  1  0.54548900  0.61539200  0.78812600  1
  H  H9  1  0.40002700  0.25193400  0.43618700  1
  H  H10  1  0.59590200  0.75008700  0.45048100  1
  H  H11  1  0.28106000  0.54744000  0.55880200  1
  H  H12  1  0.70938900  0.44425000  0.44254300  1
  H  H13  1  0.12856200  0.55268400  0.55900500  1
  H  H14  1  0.86268400  0.44038300  0.44269900  1
  H  H15  1  0.89528900  0.61772900  0.57414300  1
  H  H16  1  0.09680100  0.40149700  0.41217700  1
  H  H17  1  0.82625600  0.73981700  0.56922700  1
  H  H18  1  0.73835800  0.72586600  0.51520500  1
  H  H19  1  0.71959100  0.76344200  0.58527000  1
  H  H20  1  0.66072000  0.62791700  0.58396900  1
  H  H21  1  0.76006500  0.63093600  0.62605200  1
  H  H22  1  0.23256000  0.27190600  0.45678200  1
  H  H23  1  0.15155500  0.28336600  0.39983700  1
  H  H24  1  0.25488200  0.25431900  0.38317200  1
  H  H25  1  0.24817100  0.39906200  0.36175300  1
  H  H26  1  0.33209000  0.37890400  0.41291600  1
  H  H27  1  0.63279900  0.24664000  0.99454500  1
  H  H28  1  0.73785000  0.30790500  0.99398100  1
  H  H29  1  0.71664300  0.23646400  0.04918700  1
  H  H30  1  0.70851600  0.37238000  0.08234300  1
  H  H31  1  0.60980500  0.30519700  0.08926100  1
  H  H32  1  0.24068000  0.66934800  0.00072500  1
  H  H33  1  0.34014000  0.73860400  0.00304200  1
  H  H34  1  0.25679700  0.74466200  0.94742700  1
  H  H35  1  0.37524600  0.68758900  0.90921700  1
  H  H36  1  0.27986600  0.61503700  0.91047500  1
  H  H37  1  0.56447100  0.29266700  0.27533000  1
  H  H38  1  0.61530200  0.35016900  0.33574500  1
  H  H39  1  0.55312500  0.25662200  0.34778800  1
  H  H40  1  0.46623900  0.35707700  0.37191200  1
  H  H41  1  0.41906600  0.31410800  0.30602200  1
  H  H42  1  0.42266900  0.68563600  0.69291700  1
  H  H43  1  0.51111800  0.72786700  0.74109900  1
  H  H44  1  0.50326000  0.76136800  0.66819900  1
  H  H45  1  0.61694400  0.66600800  0.68856500  1
  H  H46  1  0.53858500  0.64549100  0.62924300  1
  H  H47  1  0.25605700  0.77534500  0.51109300  1
  H  H48  1  0.28358100  0.68029900  0.49004300  1
  H  H49  1  0.22166200  0.68993900  0.55288300  1
  H  H50  1  0.37751200  0.67374700  0.57937300  1
  H  H51  1  0.34478600  0.76118600  0.60480800  1
  H  H52  1  0.76761900  0.27980900  0.56964600  1
  H  H53  1  0.71104200  0.30672900  0.50392100  1
  H  H54  1  0.72356500  0.37278200  0.56532300  1
  H  H55  1  0.59187400  0.32005000  0.59147200  1
  H  H56  1  0.64018900  0.23536100  0.61054100  1
  H  H57  1  0.41748000  0.87158200  0.65468400  1
  H  H58  1  0.48520100  0.95463000  0.62708200  1
  H  H59  1  0.37739000  0.96656500  0.64915500  1
  H  H60  1  0.36944900  0.96095400  0.54547400  1
  H  H61  1  0.31432400  0.87471600  0.57202600  1
  H  H62  1  0.57266600  0.08825500  0.61444700  1
  H  H63  1  0.64782800  0.01576600  0.60313800  1
  H  H64  1  0.68763500  0.11081500  0.63344000  1
  H  H65  1  0.66886800  0.06396900  0.51362300  1
  H  H66  1  0.71419100  0.15279800  0.54393500  1
  H  H67  1  0.44172000  0.14099000  0.33509600  1
  H  H68  1  0.47729900  0.04942100  0.36088800  1
  H  H69  1  0.36979100  0.05077100  0.32702600  1
  H  H70  1  0.35857200  0.04232400  0.43274100  1
  H  H71  1  0.32758300  0.13313600  0.40512200  1
  H  H72  1  0.72999500  0.82256400  0.44140600  1
  H  H73  1  0.65645500  0.83267900  0.37870800  1
  H  H74  1  0.74644300  0.90626100  0.39530900  1
  H  H75  1  0.61575300  0.95503900  0.42032500  1
  H  H76  1  0.68312200  0.94128200  0.48412400  1
  C  C1  1  0.50382000  0.35190100  0.49835500  1
  C  C2  1  0.48812600  0.65166900  0.49931100  1
  C  C3  1  0.49921400  0.50314200  0.38786500  1
  C  C4  1  0.49258200  0.50099500  0.60774800  1
  C  C5  1  0.43731300  0.53957500  0.87678600  1
  C  C6  1  0.55411700  0.45402400  0.11841000  1
  C  C7  1  0.54067900  0.44902200  0.87965800  1
  C  C8  1  0.44547300  0.53934500  0.11562000  1
  C  C9  1  0.54226400  0.44842100  0.93887800  1
  C  C10  1  0.44406700  0.54023600  0.05637900  1
  C  C11  1  0.49154600  0.49513700  0.96788600  1
  C  C12  1  0.49552500  0.49448500  0.02736900  1
  C  C13  1  0.43805800  0.54262200  0.93707000  1
  C  C14  1  0.55000400  0.44812100  0.05821600  1
  C  C15  1  0.59480600  0.40069000  0.96862300  1
  C  C16  1  0.39070200  0.58735300  0.02671800  1
  C  C17  1  0.59841400  0.39793200  0.02811700  1
  C  C18  1  0.38794600  0.59136400  0.96727400  1
  C  C19  1  0.51920100  0.56848800  0.23676500  1
  C  C20  1  0.45837300  0.43072700  0.75665700  1
  C  C21  1  0.51748000  0.56903500  0.29581900  1
  C  C22  1  0.45891500  0.43367600  0.69778000  1
  C  C23  1  0.50072300  0.49969600  0.32537300  1
  C  C24  1  0.49084200  0.50192100  0.67051500  1
  C  C25  1  0.48701600  0.42858300  0.29563200  1
  C  C26  1  0.52004600  0.56909400  0.70299500  1
  C  C27  1  0.48624600  0.42874100  0.23632200  1
  C  C28  1  0.52110600  0.56463800  0.76212800  1
  C  C29  1  0.50217200  0.49837700  0.20670400  1
  C  C30  1  0.49006200  0.49609400  0.78898800  1
  C  C31  1  0.50779600  0.26601700  0.49626900  1
  C  C32  1  0.48701300  0.73831600  0.50136800  1
  C  C33  1  0.57128000  0.22882400  0.52692900  1
  C  C34  1  0.42871800  0.77688100  0.53251900  1
  C  C35  1  0.57643600  0.14828700  0.51821800  1
  C  C36  1  0.44004500  0.85945900  0.53602400  1
  C  C37  1  0.51441400  0.10516800  0.48109300  1
  C  C38  1  0.50791600  0.90221100  0.50877500  1
  C  C39  1  0.45105100  0.14335600  0.45230600  1
  C  C40  1  0.56467800  0.86400700  0.47699600  1
  C  C41  1  0.44818100  0.22261100  0.46010800  1
  C  C42  1  0.55299000  0.78239400  0.47391900  1
  C  C43  1  0.74983400  0.48344500  0.47188600  1
  C  C44  1  0.24127000  0.51444300  0.52644600  1
  C  C45  1  0.83865900  0.48109600  0.47220300  1
  C  C46  1  0.15284000  0.51840900  0.52571400  1
  C  C47  1  0.89201900  0.52902800  0.50990600  1
  C  C48  1  0.09990200  0.47803500  0.48382200  1
  C  C49  1  0.85448300  0.57930400  0.54469300  1
  C  C50  1  0.13765200  0.43371300  0.44503500  1
  C  C51  1  0.76547300  0.58081200  0.54311900  1
  C  C52  1  0.22642100  0.42939000  0.44783900  1
  C  C53  1  0.73150800  0.63803100  0.58205200  1
  C  C54  1  0.75560800  0.72200300  0.56166100  1
  C  C55  1  0.26167800  0.37753000  0.40574300  1
  C  C56  1  0.22224400  0.29191700  0.41196000  1
  C  C57  1  0.65161200  0.33981600  0.05887100  1
  C  C58  1  0.68653800  0.27926700  0.02102300  1
  C  C59  1  0.33307900  0.64853000  0.93679500  1
  C  C60  1  0.29030100  0.70336700  0.97511100  1
  C  C61  1  0.47628800  0.35094400  0.32574300  1
  C  C62  1  0.55756600  0.30992400  0.32053800  1
  C  C63  1  0.54750500  0.64732400  0.67638800  1
  C  C64  1  0.49239500  0.70927700  0.69630100  1
  C  C65  1  0.35802600  0.73098600  0.56464400  1
  C  C66  1  0.27467200  0.71834100  0.52723600  1
  C  C67  1  0.62712200  0.27343400  0.57349800  1
  C  C68  1  0.71295900  0.31037100  0.55142500  1
  C  C69  1  0.38026500  0.90584600  0.56855000  1
  C  C70  1  0.41782700  0.92586000  0.62865100  1
  C  C71  1  0.65427600  0.11127500  0.54254200  1
  C  C72  1  0.63936000  0.07933100  0.60235700  1
  C  C73  1  0.38366100  0.09866000  0.41293500  1
  C  C74  1  0.42081900  0.08386700  0.35540100  1
  C  C75  1  0.64030800  0.91099800  0.44982100  1
  C  C76  1  0.69621700  0.86403900  0.41423400  1
  N  N1  1  0.48892100  0.49419200  0.85005600  1
  N  N2  1  0.50074500  0.49748100  0.14540000  1
  N  N3  1  0.51110500  0.02247700  0.47211000  1
  N  N4  1  0.52009100  0.98485300  0.51725100  1
  N  N5  1  0.71315000  0.53131700  0.50753600  1
  N  N6  1  0.27848900  0.47163100  0.48799300  1
  N  N7  1  0.98338000  0.52809800  0.51380300  1
  N  N8  1  0.00856100  0.47973200  0.48017000  1
  O  O1  1  0.42701100  0.37826200  0.49591900  1
  O  O2  1  0.56468800  0.62514700  0.49921500  1
  O  O3  1  0.57633000  0.39899800  0.49892500  1
  O  O4  1  0.41531700  0.60449300  0.49725900  1
  O  O5  1  0.42347000  0.49590300  0.41114400  1
  O  O6  1  0.56794900  0.50826500  0.58416900  1
  O  O7  1  0.57362500  0.51012500  0.41776400  1
  O  O8  1  0.41859500  0.49240400  0.57758900  1
  O  O9  1  0.38433400  0.57963200  0.84358400  1
  O  O10  1  0.61323500  0.42000700  0.15095300  1
  O  O11  1  0.59187600  0.40559400  0.85097400  1
  O  O12  1  0.39094400  0.57979900  0.14402300  1
