# generated using pymatgen
data_ZnH9C18NClO4
_symmetry_space_group_name_H-M   'P 1'
_cell_length_a   14.34761900
_cell_length_b   8.53554500
_cell_length_c   10.89809300
_cell_angle_alpha   90.00000000
_cell_angle_beta   102.14986800
_cell_angle_gamma   90.00000000
_symmetry_Int_Tables_number   1
_chemical_formula_structural   ZnH9C18NClO4
_chemical_formula_sum   'Zn2 H18 C36 N2 Cl2 O8'
_cell_volume   1304.73701137
_cell_formula_units_Z   2
loop_
 _symmetry_equiv_pos_site_id
 _symmetry_equiv_pos_as_xyz
  1  'x, y, z'
loop_
 _atom_site_type_symbol
 _atom_site_label
 _atom_site_symmetry_multiplicity
 _atom_site_fract_x
 _atom_site_fract_y
 _atom_site_fract_z
 _atom_site_occupancy
  Zn  Zn1  1  0.89447000  0.49828400  0.45337800  1
  Zn  Zn2  1  0.10557400  0.49988300  0.54666200  1
  H  H1  1  0.99638800  0.61189500  0.88453100  1
  H  H2  1  0.06744200  0.36625000  0.11458900  1
  H  H3  1  0.00189900  0.61178800  0.11454400  1
  H  H4  1  0.93365200  0.36604400  0.88627400  1
  H  H5  1  0.89842700  0.71167000  0.02585000  1
  H  H6  1  0.06163500  0.35573700  0.91051000  1
  H  H7  1  0.09998400  0.71110300  0.97352700  1
  H  H8  1  0.93948100  0.35519100  0.09020900  1
  H  H9  1  0.95303200  0.99833400  0.57256100  1
  H  H10  1  0.04704600  0.99692300  0.42748200  1
  H  H11  1  0.25357000  0.48788100  0.42120600  1
  H  H12  1  0.74645000  0.51009700  0.57884700  1
  H  H13  1  0.21757700  0.52374800  0.78884200  1
  H  H14  1  0.78248600  0.47480800  0.21118400  1
  H  H15  1  0.61257000  0.45523300  0.13190200  1
  H  H16  1  0.38746300  0.54418100  0.86799500  1
  H  H17  1  0.34477700  0.45136900  0.30540800  1
  H  H18  1  0.65522600  0.54820600  0.69441800  1
  C  C1  1  0.96356700  0.99878800  0.67347700  1
  C  C2  1  0.03650900  0.99791600  0.32656900  1
  C  C3  1  0.97575400  0.85903700  0.73730300  1
  C  C4  1  0.02545200  0.13864600  0.26410100  1
  C  C5  1  0.02258900  0.85866500  0.26213400  1
  C  C6  1  0.97634500  0.13906000  0.73657800  1
  C  C7  1  0.99437400  0.86104500  0.86802500  1
  C  C8  1  0.01262200  0.14139900  0.13442100  1
  C  C9  1  0.00446400  0.86093500  0.13152900  1
  C  C10  1  0.98867500  0.14161100  0.86610900  1
  C  C11  1  0.02129200  0.71572600  0.94237800  1
  C  C12  1  0.00389200  0.29653900  0.07112300  1
  C  C13  1  0.97713200  0.71585600  0.05690600  1
  C  C14  1  0.99736300  0.29664400  0.92961300  1
  C  C15  1  0.99412600  0.00201000  0.93162300  1
  C  C16  1  0.00595100  0.00190400  0.06841700  1
  C  C17  1  0.98292300  0.71788800  0.66228300  1
  C  C18  1  0.01753700  0.28010800  0.33816500  1
  C  C19  1  0.01532800  0.71740500  0.33675000  1
  C  C20  1  0.98430400  0.28061700  0.66290100  1
  C  C21  1  0.63833000  0.47001900  0.23150100  1
  C  C22  1  0.36170600  0.52891900  0.76844900  1
  C  C23  1  0.73492200  0.48097800  0.27587500  1
  C  C24  1  0.26512800  0.51749800  0.72413800  1
  C  C25  1  0.71214800  0.50310500  0.48166100  1
  C  C26  1  0.28788500  0.49524000  0.51835900  1
  C  C27  1  0.61287500  0.49642500  0.44081500  1
  C  C28  1  0.38715500  0.50226500  0.55915600  1
  C  C29  1  0.57690700  0.47697200  0.31357200  1
  C  C30  1  0.42311700  0.52209000  0.68635900  1
  C  C31  1  0.54918400  0.50630000  0.52312700  1
  C  C32  1  0.45083600  0.49260300  0.47681600  1
  C  C33  1  0.41833600  0.46815500  0.34892700  1
  C  C34  1  0.58167500  0.53114400  0.65096400  1
  C  C35  1  0.48011000  0.46212900  0.26875000  1
  C  C36  1  0.51989000  0.53748100  0.73111700  1
  N  N1  1  0.77032200  0.49642800  0.39934500  1
  N  N2  1  0.22972200  0.50178000  0.60069400  1
  Cl  Cl1  1  0.43188600  0.43086200  0.10897200  1
  Cl  Cl2  1  0.56809900  0.56908600  0.89085900  1
  O  O1  1  0.06857000  0.66847100  0.65686300  1
  O  O2  1  0.93160500  0.32939600  0.34340900  1
  O  O3  1  0.92974900  0.66732400  0.34220500  1
  O  O4  1  0.07016300  0.33054400  0.65760200  1
  O  O5  1  0.90519400  0.66306800  0.58837000  1
  O  O6  1  0.09503600  0.33541400  0.41159600  1
  O  O7  1  0.09324000  0.66344200  0.41061200  1
  O  O8  1  0.90661400  0.33503700  0.58950200  1
