# generated using pymatgen
data_CuH12C17N3O4
_symmetry_space_group_name_H-M   'P 1'
_cell_length_a   12.58683400
_cell_length_b   14.00633500
_cell_length_c   19.20776200
_cell_angle_alpha   90.02289200
_cell_angle_beta   93.62999800
_cell_angle_gamma   98.21455700
_symmetry_Int_Tables_number   1
_chemical_formula_structural   CuH12C17N3O4
_chemical_formula_sum   'Cu2 H24 C34 N6 O8'
_cell_volume   3344.62039732
_cell_formula_units_Z   2
loop_
 _symmetry_equiv_pos_site_id
 _symmetry_equiv_pos_as_xyz
  1  'x, y, z'
loop_
 _atom_site_type_symbol
 _atom_site_label
 _atom_site_symmetry_multiplicity
 _atom_site_fract_x
 _atom_site_fract_y
 _atom_site_fract_z
 _atom_site_occupancy
  Cu  Cu1  1  0.39321900  0.49717900  0.49745400  1
  Cu  Cu2  1  0.60787200  0.51300000  0.50242600  1
  H  H1  1  0.32115200  0.50025200  0.27723300  1
  H  H2  1  0.67993600  0.50991300  0.72264800  1
  H  H3  1  0.65836800  0.53613400  0.15878100  1
  H  H4  1  0.34271900  0.47405800  0.84109800  1
  H  H5  1  0.66361500  0.53559800  0.28478200  1
  H  H6  1  0.33747400  0.47459400  0.71509700  1
  H  H7  1  0.40254200  0.98694700  0.44797800  1
  H  H8  1  0.59854900  0.02323100  0.55190100  1
  H  H9  1  0.02483000  0.60676900  0.53132600  1
  H  H10  1  0.97626100  0.40341200  0.46855700  1
  H  H11  1  0.29188500  0.52956700  0.08355800  1
  H  H12  1  0.19474900  0.39920500  0.19868900  1
  H  H13  1  0.25712700  0.35852000  0.12406800  1
  H  H14  1  0.13752600  0.41572200  0.11172100  1
  H  H15  1  0.19027900  0.57078300  0.21742800  1
  H  H16  1  0.15876400  0.60385600  0.12896100  1
  H  H17  1  0.28222100  0.65952300  0.17401000  1
  H  H18  1  0.70919600  0.48060300  0.91632500  1
  H  H19  1  0.81079800  0.43936800  0.78245500  1
  H  H20  1  0.71885100  0.35063700  0.82587600  1
  H  H21  1  0.84231100  0.40629900  0.87092300  1
  H  H22  1  0.80634400  0.61095200  0.80119100  1
  H  H23  1  0.86356500  0.59443300  0.88816000  1
  H  H24  1  0.74397100  0.65164500  0.87581200  1
  C  C1  1  0.48721200  0.32069400  0.49338800  1
  C  C2  1  0.51387800  0.68948500  0.50649200  1
  C  C3  1  0.49488400  0.51281300  0.36598300  1
  C  C4  1  0.50620600  0.49736500  0.63389700  1
  C  C5  1  0.39480900  0.50864200  0.25065100  1
  C  C6  1  0.60627800  0.50152900  0.74923000  1
  C  C7  1  0.39066100  0.51221200  0.17832700  1
  C  C8  1  0.61042500  0.49796000  0.82155400  1
  C  C9  1  0.48677800  0.51963800  0.14472300  1
  C  C10  1  0.51430700  0.49054100  0.85515700  1
  C  C11  1  0.58348200  0.53003100  0.18413800  1
  C  C12  1  0.41760500  0.48015500  0.81574100  1
  C  C13  1  0.58642900  0.52875800  0.25582400  1
  C  C14  1  0.41465900  0.48142800  0.74405500  1
  C  C15  1  0.49200200  0.51662300  0.28950600  1
  C  C16  1  0.50908700  0.49355600  0.71037400  1
  C  C17  1  0.50969300  0.49653800  0.93125100  1
  C  C18  1  0.49139300  0.51364100  0.06862900  1
  C  C19  1  0.52120500  0.79254500  0.51053800  1
  C  C20  1  0.47988500  0.21763400  0.48934200  1
  C  C21  1  0.53552600  0.98239100  0.51843800  1
  C  C22  1  0.46556400  0.02778800  0.48144100  1
  C  C23  1  0.47344700  0.13108200  0.48578900  1
  C  C24  1  0.52764300  0.87909700  0.51409100  1
  C  C25  1  0.02439400  0.46907600  0.48882100  1
  C  C26  1  0.97669700  0.54110400  0.51106200  1
  C  C27  1  0.86124500  0.53194900  0.50825000  1
  C  C28  1  0.13984600  0.47823100  0.49163200  1
  C  C29  1  0.28302000  0.51292600  0.13920600  1
  C  C30  1  0.21370500  0.41535600  0.14399100  1
  C  C31  1  0.22517700  0.59162200  0.16715800  1
  C  C32  1  0.71806400  0.49723900  0.86067600  1
  C  C33  1  0.77589900  0.41853500  0.83272600  1
  C  C34  1  0.78738700  0.59480400  0.85589000  1
  N  N1  1  0.56601800  0.57336500  0.03657600  1
  N  N2  1  0.43506700  0.43681400  0.96330400  1
  N  N3  1  0.57422000  0.56566800  0.96859100  1
  N  N4  1  0.42686600  0.44451100  0.03128900  1
  N  N5  1  0.23272800  0.48547900  0.49385700  1
  N  N6  1  0.76836300  0.52470000  0.50602400  1
  O  O1  1  0.39797800  0.35878200  0.49038800  1
  O  O2  1  0.60311300  0.65139700  0.50949300  1
  O  O3  1  0.58274900  0.37214600  0.49958400  1
  O  O4  1  0.41834200  0.63803200  0.50029700  1
  O  O5  1  0.40375000  0.50076900  0.39646100  1
  O  O6  1  0.59734100  0.50941000  0.60341900  1
  O  O7  1  0.58858300  0.52109400  0.40101000  1
  O  O8  1  0.41250700  0.48908600  0.59887000  1
