# generated using pymatgen
data_Fe2H36C53O19
_symmetry_space_group_name_H-M   'P 1'
_cell_length_a   15.75045100
_cell_length_b   16.41780200
_cell_length_c   13.21864300
_cell_angle_alpha   91.71685400
_cell_angle_beta   88.20328300
_cell_angle_gamma   112.43750800
_symmetry_Int_Tables_number   1
_chemical_formula_structural   Fe2H36C53O19
_chemical_formula_sum   'Fe2 H36 C53 O19'
_cell_volume   3157.25871929
_cell_formula_units_Z   1
loop_
 _symmetry_equiv_pos_site_id
 _symmetry_equiv_pos_as_xyz
  1  'x, y, z'
loop_
 _atom_site_type_symbol
 _atom_site_label
 _atom_site_symmetry_multiplicity
 _atom_site_fract_x
 _atom_site_fract_y
 _atom_site_fract_z
 _atom_site_occupancy
  Fe  Fe1  1  0.47544400  0.99002600  0.24906800  1
  Fe  Fe2  1  0.47445400  0.99420300  0.79988800  1
  H  H1  1  0.21968300  0.02176900  0.22356100  1
  H  H2  1  0.06134100  0.07986800  0.83632500  1
  H  H3  1  0.91557600  0.07930500  0.79500800  1
  H  H4  1  0.08139800  0.03253800  0.26767200  1
  H  H5  1  0.93786000  0.03627000  0.22639300  1
  H  H6  1  0.76081000  0.04562900  0.83180000  1
  H  H7  1  0.53439200  0.10592900  0.50898500  1
  H  H8  1  0.50941500  0.31984400  0.36085700  1
  H  H9  1  0.52954200  0.32740000  0.68331900  1
  H  H10  1  0.62965400  0.48297300  0.62138600  1
  H  H11  1  0.38858800  0.52332000  0.42578800  1
  H  H12  1  0.40065700  0.38038100  0.42578200  1
  H  H13  1  0.48095600  0.67479000  0.36317900  1
  H  H14  1  0.45395700  0.88829800  0.53517400  1
  H  H15  1  0.50422500  0.68875500  0.68581100  1
  H  H16  1  0.02389800  0.88497500  0.84721200  1
  H  H17  1  0.11936200  0.87211900  0.90728400  1
  H  H18  1  0.09982700  0.89011400  0.67949500  1
  H  H19  1  0.19716800  0.87970800  0.73861400  1
  H  H20  1  0.09600200  0.73514200  0.80740200  1
  H  H21  1  0.08931200  0.73575100  0.67116700  1
  H  H22  1  0.99764900  0.74543100  0.75015100  1
  H  H23  1  0.70430400  0.74694800  0.53395000  1
  H  H24  1  0.69695900  0.64015700  0.48670900  1
  H  H25  1  0.80778000  0.74123800  0.66928600  1
  H  H26  1  0.79978900  0.63384300  0.62266500  1
  H  H27  1  0.86618700  0.69799400  0.45664000  1
  H  H28  1  0.94186400  0.75278100  0.55887300  1
  H  H29  1  0.87344600  0.80551500  0.50246400  1
  H  H30  1  0.78091300  0.84523300  0.08977800  1
  H  H31  1  0.68114700  0.82839800  0.17091400  1
  H  H32  1  0.86900400  0.83595700  0.23788500  1
  H  H33  1  0.77015200  0.82071100  0.31982600  1
  H  H34  1  0.67978700  0.68413000  0.22353400  1
  H  H35  1  0.78259400  0.67797300  0.27367600  1
  H  H36  1  0.77850000  0.69949000  0.14095400  1
  C  C1  1  0.27298200  0.02182400  0.07403400  1
  C  C2  1  0.25581600  0.02125800  0.97128600  1
  C  C3  1  0.16974000  0.01670100  0.94172800  1
  C  C4  1  0.20645600  0.02143500  0.14380400  1
  C  C5  1  0.12522600  0.02518400  0.11462500  1
  C  C6  1  0.10593200  0.02601400  0.01361400  1
  C  C7  1  0.02248800  0.03325200  0.98907200  1
  C  C8  1  0.00780400  0.05739300  0.89348800  1
  C  C9  1  0.92498000  0.06054600  0.87024600  1
  C  C10  1  0.06406600  0.02928400  0.18878000  1
  C  C11  1  0.97976700  0.02773100  0.16438400  1
  C  C12  1  0.95480500  0.02344000  0.06409000  1
  C  C13  1  0.86638800  0.01699800  0.03750900  1
  C  C14  1  0.85381000  0.03752100  0.94009400  1
  C  C15  1  0.76949700  0.03330300  0.90988100  1
  C  C16  1  0.78919200  0.98790700  0.10349200  1
  C  C17  1  0.70629900  0.99246800  0.07616400  1
  C  C18  1  0.69517700  0.00972600  0.97578900  1
  C  C19  1  0.63528000  0.98540400  0.15607000  1
  C  C20  1  0.46172000  0.83239700  0.34635000  1
  C  C21  1  0.35796700  0.02050000  0.11449000  1
  C  C22  1  0.50644400  0.15664400  0.33341400  1
  C  C23  1  0.49329400  0.84800300  0.70863800  1
  C  C24  1  0.60568000  0.99419000  0.93206400  1
  C  C25  1  0.52180800  0.15834300  0.69727400  1
  C  C26  1  0.32421500  0.01958800  0.89263000  1
  C  C27  1  0.52592200  0.21041800  0.42602600  1
  C  C28  1  0.51835200  0.29113400  0.43024500  1
  C  C29  1  0.52380300  0.33539900  0.52210800  1
  C  C30  1  0.53148300  0.29565700  0.61094700  1
  C  C31  1  0.53290500  0.21172100  0.60682100  1
  C  C32  1  0.53423900  0.17166100  0.51378600  1
  C  C33  1  0.57602100  0.49145300  0.57915500  1
  C  C34  1  0.57162100  0.57391200  0.57625900  1
  C  C35  1  0.50309500  0.58592000  0.52220800  1
  C  C36  1  0.44294700  0.51574200  0.46754500  1
  C  C37  1  0.44955100  0.43446000  0.46800800  1
  C  C38  1  0.51560400  0.42157700  0.52444500  1
  C  C39  1  0.47790000  0.70665900  0.43517200  1
  C  C40  1  0.46378200  0.78496000  0.43817000  1
  C  C41  1  0.46084300  0.82530500  0.53051300  1
  C  C42  1  0.47702600  0.79170000  0.61830100  1
  C  C43  1  0.49235300  0.71460700  0.61577700  1
  C  C44  1  0.49115700  0.67061700  0.52436800  1
  C  C45  1  0.09899800  0.90130200  0.84232800  1
  C  C46  1  0.12198600  0.86261900  0.74465300  1
  C  C47  1  0.07293500  0.76321000  0.74343000  1
  C  C48  1  0.70610300  0.68284300  0.55540400  1
  C  C49  1  0.79811900  0.69795300  0.60103100  1
  C  C50  1  0.87483200  0.74142000  0.52462300  1
  C  C51  1  0.75730300  0.85610100  0.16702200  1
  C  C52  1  0.79287000  0.80942400  0.24225800  1
  C  C53  1  0.75592200  0.71133100  0.21837900  1
  O  O1  1  0.55481300  0.98469500  0.13210600  1
  O  O2  1  0.49467900  0.81494000  0.25969600  1
  O  O3  1  0.65626300  0.99122600  0.25204700  1
  O  O4  1  0.43967000  0.90176300  0.35743000  1
  O  O5  1  0.35220900  0.97261000  0.19431800  1
  O  O6  1  0.43835400  0.07632700  0.08265500  1
  O  O7  1  0.55253000  0.10571500  0.31406600  1
  O  O8  1  0.42678800  0.13867800  0.29181500  1
  O  O9  1  0.42606800  0.87025500  0.74393400  1
  O  O10  1  0.57840500  0.90025400  0.72634400  1
  O  O11  1  0.59986800  0.04505800  0.85999900  1
  O  O12  1  0.53615200  0.91968600  0.94906200  1
  O  O13  1  0.32541700  0.05347200  0.80370500  1
  O  O14  1  0.49092400  0.07234200  0.68348900  1
  O  O15  1  0.38458500  0.98496600  0.91146900  1
  O  O16  1  0.53545100  0.19391300  0.78857400  1
  O  O17  1  0.14567900  0.99300200  0.84320800  1
  O  O18  1  0.63587800  0.64305900  0.62658000  1
  O  O19  1  0.79047200  0.94626400  0.19144900  1
