# generated using pymatgen
data_ZnH40C38NO8
_symmetry_space_group_name_H-M   'P 1'
_cell_length_a   19.51890800
_cell_length_b   18.24787400
_cell_length_c   17.76665200
_cell_angle_alpha   90.00000000
_cell_angle_beta   90.00595500
_cell_angle_gamma   90.00000000
_symmetry_Int_Tables_number   1
_chemical_formula_structural   ZnH40C38NO8
_chemical_formula_sum   'Zn2 H80 C76 N2 O16'
_cell_volume   6328.10073641
_cell_formula_units_Z   2
loop_
 _symmetry_equiv_pos_site_id
 _symmetry_equiv_pos_as_xyz
  1  'x, y, z'
loop_
 _atom_site_type_symbol
 _atom_site_label
 _atom_site_symmetry_multiplicity
 _atom_site_fract_x
 _atom_site_fract_y
 _atom_site_fract_z
 _atom_site_occupancy
  Zn  Zn1  1  0.49949400  0.57636800  0.50034200  1
  Zn  Zn2  1  0.49935300  0.41020700  0.50058200  1
  H  H1  1  0.50958500  0.61031600  0.74008000  1
  H  H2  1  0.50973800  0.37603800  0.26060500  1
  H  H3  1  0.49154200  0.60998300  0.26091200  1
  H  H4  1  0.48596200  0.37692700  0.74023000  1
  H  H5  1  0.84377700  0.37684800  0.51203700  1
  H  H6  1  0.15444900  0.60829900  0.52048900  1
  H  H7  1  0.15435700  0.37921100  0.47574200  1
  H  H8  1  0.84356500  0.60999500  0.49014200  1
  H  H9  1  0.93831300  0.58306500  0.42186000  1
  H  H10  1  0.06349300  0.40287000  0.57449300  1
  H  H11  1  0.06233000  0.58443700  0.42342900  1
  H  H12  1  0.93956500  0.40397500  0.57803600  1
  H  H13  1  0.56211700  0.69242100  0.59647600  1
  H  H14  1  0.44312300  0.29407600  0.39982900  1
  H  H15  1  0.43729500  0.69243900  0.40377200  1
  H  H16  1  0.55516800  0.29392600  0.60180900  1
  H  H17  1  0.56213400  0.82588000  0.59915500  1
  H  H18  1  0.44233700  0.16050500  0.39781500  1
  H  H19  1  0.43746700  0.82590300  0.40098300  1
  H  H20  1  0.55613900  0.16037800  0.60353600  1
  H  H21  1  0.39465800  0.92717700  0.46568500  1
  H  H22  1  0.60414900  0.06004200  0.53558000  1
  H  H23  1  0.60467800  0.92744900  0.53472000  1
  H  H24  1  0.39472700  0.05975400  0.46536200  1
  H  H25  1  0.43636800  0.64639400  0.96120400  1
  H  H26  1  0.40796600  0.61533200  0.86981100  1
  H  H27  1  0.48295900  0.76052000  0.89871800  1
  H  H28  1  0.44505400  0.72970200  0.81128800  1
  H  H29  1  0.33033900  0.72468900  0.87678400  1
  H  H30  1  0.36712400  0.81565600  0.87403200  1
  H  H31  1  0.37037800  0.76264400  0.95996400  1
  H  H32  1  0.43190800  0.35072800  0.04114900  1
  H  H33  1  0.40804400  0.36637000  0.13818200  1
  H  H34  1  0.48355000  0.22965700  0.08121100  1
  H  H35  1  0.44867600  0.24512100  0.17428400  1
  H  H36  1  0.33138500  0.25741400  0.11551900  1
  H  H37  1  0.36979800  0.16825100  0.10130000  1
  H  H38  1  0.36878600  0.23426900  0.02540600  1
  H  H39  1  0.56636300  0.64868100  0.04133600  1
  H  H40  1  0.59388500  0.60983800  0.12979600  1
  H  H41  1  0.52561000  0.76040500  0.11103700  1
  H  H42  1  0.55913600  0.72145800  0.19719600  1
  H  H43  1  0.67543400  0.71472400  0.13699000  1
  H  H44  1  0.64270100  0.80728700  0.14281900  1
  H  H45  1  0.64063700  0.75876800  0.05407000  1
  H  H46  1  0.56144600  0.33987000  0.95953300  1
  H  H47  1  0.58830800  0.37059500  0.86747900  1
  H  H48  1  0.51310900  0.22608800  0.89958700  1
  H  H49  1  0.54701900  0.25655800  0.81007300  1
  H  H50  1  0.66462100  0.26074900  0.86824500  1
  H  H51  1  0.62714200  0.17008900  0.86913500  1
  H  H52  1  0.62873400  0.22425400  0.95437900  1
  H  H53  1  0.65874200  0.37178800  0.62126100  1
  H  H54  1  0.74940400  0.38753400  0.63049600  1
  H  H55  1  0.68578800  0.23993400  0.58629000  1
  H  H56  1  0.77448000  0.25865100  0.60865500  1
  H  H57  1  0.73927500  0.29651500  0.73835300  1
  H  H58  1  0.71480600  0.20306800  0.71744600  1
  H  H59  1  0.65114300  0.27492800  0.71529200  1
  H  H60  1  0.34630400  0.61976900  0.62187800  1
  H  H61  1  0.26221100  0.58023900  0.63273100  1
  H  H62  1  0.29225400  0.74332200  0.60509900  1
  H  H63  1  0.20921500  0.70243900  0.62231500  1
  H  H64  1  0.24978900  0.65953100  0.74788300  1
  H  H65  1  0.25685900  0.75796400  0.73855100  1
  H  H66  1  0.33244200  0.70126300  0.73030800  1
  H  H67  1  0.34382200  0.38233200  0.37252100  1
  H  H68  1  0.25350400  0.39994800  0.36163000  1
  H  H69  1  0.31452600  0.24816900  0.39363000  1
  H  H70  1  0.22691400  0.27002800  0.36922100  1
  H  H71  1  0.26733300  0.31916500  0.24548300  1
  H  H72  1  0.29032600  0.22392400  0.25834900  1
  H  H73  1  0.35435700  0.29451500  0.27027300  1
  H  H74  1  0.65333900  0.63400400  0.38894300  1
  H  H75  1  0.73478500  0.58961700  0.37446400  1
  H  H76  1  0.71511200  0.75143700  0.41738400  1
  H  H77  1  0.79530900  0.70637200  0.39560300  1
  H  H78  1  0.75125900  0.67760200  0.26691800  1
  H  H79  1  0.75194900  0.77508000  0.28542100  1
  H  H80  1  0.67219400  0.72487000  0.28916600  1
  C  C1  1  0.36484500  0.49348800  0.49880800  1
  C  C2  1  0.63407700  0.49316700  0.50207000  1
  C  C3  1  0.50070500  0.49305900  0.35306800  1
  C  C4  1  0.49803200  0.49351900  0.64785500  1
  C  C5  1  0.50398300  0.55883500  0.84709800  1
  C  C6  1  0.50434800  0.42776800  0.15367400  1
  C  C7  1  0.49607000  0.55845800  0.15389400  1
  C  C8  1  0.49252300  0.42842900  0.84718000  1
  C  C9  1  0.50414500  0.55878600  0.76944500  1
  C  C10  1  0.50528600  0.42773800  0.23134600  1
  C  C11  1  0.49574100  0.55834000  0.23152200  1
  C  C12  1  0.49162100  0.42846600  0.76953000  1
  C  C13  1  0.49781400  0.49360800  0.73031100  1
  C  C14  1  0.50064800  0.49301500  0.27061100  1
  C  C15  1  0.49860000  0.49361700  0.88591100  1
  C  C16  1  0.49992400  0.49316900  0.11500800  1
  C  C17  1  0.49922600  0.49357100  0.96659600  1
  C  C18  1  0.49965300  0.49343800  0.03431700  1
  C  C19  1  0.74678200  0.42857100  0.51226700  1
  C  C20  1  0.25251500  0.55789300  0.51247200  1
  C  C21  1  0.25244000  0.42962200  0.48321600  1
  C  C22  1  0.74653300  0.55829000  0.49209200  1
  C  C23  1  0.81741500  0.42875000  0.50840900  1
  C  C24  1  0.18183600  0.55785600  0.50993600  1
  C  C25  1  0.18178000  0.42963200  0.48633600  1
  C  C26  1  0.81723400  0.55810300  0.49394700  1
  C  C27  1  0.85339800  0.49342700  0.50065500  1
  C  C28  1  0.14627000  0.49371800  0.49838800  1
  C  C29  1  0.71004100  0.49334200  0.50234500  1
  C  C30  1  0.28898900  0.49367400  0.49803100  1
  C  C31  1  0.96475800  0.54418700  0.45729500  1
  C  C32  1  0.03602000  0.44239900  0.54070400  1
  C  C33  1  0.03537600  0.54481600  0.45760200  1
  C  C34  1  0.96542600  0.44286800  0.54211400  1
  C  C35  1  0.07129700  0.49364300  0.49887900  1
  C  C36  1  0.92898000  0.49347600  0.49998000  1
  C  C37  1  0.53455500  0.72242500  0.55365000  1
  C  C38  1  0.46778600  0.26413600  0.44472600  1
  C  C39  1  0.46490700  0.72243500  0.44656500  1
  C  C40  1  0.53058200  0.26406300  0.55682400  1
  C  C41  1  0.53509000  0.79794900  0.55453000  1
  C  C42  1  0.46699100  0.18862400  0.44398700  1
  C  C43  1  0.46449200  0.79796000  0.44561400  1
  C  C44  1  0.53145000  0.18855300  0.55742000  1
  C  C45  1  0.49978600  0.83666400  0.50008100  1
  C  C46  1  0.49928300  0.15000200  0.50063800  1
  C  C47  1  0.44142700  0.95563400  0.47990800  1
  C  C48  1  0.55760100  0.03131600  0.52097500  1
  C  C49  1  0.55781900  0.95578300  0.52058900  1
  C  C50  1  0.44138000  0.03116400  0.47984000  1
  C  C51  1  0.49942000  0.06953800  0.50049100  1
  C  C52  1  0.49968800  0.91728200  0.50016900  1
  C  C53  1  0.44643600  0.64917200  0.89985100  1
  C  C54  1  0.44088900  0.72787100  0.87351100  1
  C  C55  1  0.37265700  0.75972700  0.89766600  1
  C  C56  1  0.44521300  0.33865500  0.10052900  1
  C  C57  1  0.44198800  0.25671500  0.11345100  1
  C  C58  1  0.37343500  0.22732000  0.08720900  1
  C  C59  1  0.55658800  0.64740300  0.10280300  1
  C  C60  1  0.56516100  0.72364400  0.13517300  1
  C  C61  1  0.63565100  0.75295300  0.11595900  1
  C  C62  1  0.55007400  0.33725600  0.89844500  1
  C  C63  1  0.55408500  0.25848900  0.87197700  1
  C  C64  1  0.62323400  0.22636500  0.89228900  1
  C  C65  1  0.70999100  0.35413400  0.60151700  1
  C  C66  1  0.72066700  0.27410800  0.62084000  1
  C  C67  1  0.70548000  0.26143700  0.70343600  1
  C  C68  1  0.29157000  0.62537700  0.60618700  1
  C  C69  1  0.26483800  0.69831500  0.63429400  1
  C  C70  1  0.27677800  0.70458000  0.71829700  1
  C  C71  1  0.29182600  0.36356800  0.38853000  1
  C  C72  1  0.28126300  0.28583500  0.36103700  1
  C  C73  1  0.29952100  0.28064400  0.27834100  1
  C  C74  1  0.70821800  0.63429500  0.40507900  1
  C  C75  1  0.73953500  0.70736900  0.38380100  1
  C  C76  1  0.72794500  0.72209400  0.30084900  1
  N  N1  1  0.49966600  0.68595600  0.50015400  1
  N  N2  1  0.49923800  0.30060800  0.50076300  1
  O  O1  1  0.39744100  0.55635900  0.49871100  1
  O  O2  1  0.60143300  0.43027700  0.50131100  1
  O  O3  1  0.60148400  0.55601500  0.50200000  1
  O  O4  1  0.39732200  0.43050400  0.49979200  1
  O  O5  1  0.50085000  0.55615600  0.38824900  1
  O  O6  1  0.49860000  0.43042100  0.61268600  1
  O  O7  1  0.49807000  0.55652900  0.61250900  1
  O  O8  1  0.50009800  0.43005300  0.38840600  1
  O  O9  1  0.51248400  0.62322300  0.88543900  1
  O  O10  1  0.51166300  0.36329000  0.11516900  1
  O  O11  1  0.48969900  0.62315800  0.11560600  1
  O  O12  1  0.48407100  0.36410600  0.88565600  1
  O  O13  1  0.71429600  0.36298200  0.52342300  1
  O  O14  1  0.28529000  0.62252600  0.52782700  1
  O  O15  1  0.28514000  0.36517800  0.46691500  1
  O  O16  1  0.71383100  0.62407500  0.48286700  1
