# generated using pymatgen
data_ZnH14C20NO4
_symmetry_space_group_name_H-M   'P 1'
_cell_length_a   9.31915700
_cell_length_b   8.55490800
_cell_length_c   19.34670800
_cell_angle_alpha   90.00000000
_cell_angle_beta   91.07293900
_cell_angle_gamma   90.00000000
_symmetry_Int_Tables_number   1
_chemical_formula_structural   ZnH14C20NO4
_chemical_formula_sum   'Zn2 H28 C40 N2 O8'
_cell_volume   1542.13678338
_cell_formula_units_Z   2
loop_
 _symmetry_equiv_pos_site_id
 _symmetry_equiv_pos_as_xyz
  1  'x, y, z'
loop_
 _atom_site_type_symbol
 _atom_site_label
 _atom_site_symmetry_multiplicity
 _atom_site_fract_x
 _atom_site_fract_y
 _atom_site_fract_z
 _atom_site_occupancy
  Zn  Zn1  1  0.84094500  0.53254200  0.39484400  1
  Zn  Zn2  1  0.16215200  0.53167700  0.39523900  1
  H  H1  1  0.03857300  0.03539900  0.44295900  1
  H  H2  1  0.97667500  0.28102900  0.63021000  1
  H  H3  1  0.99181500  0.78082400  0.62879300  1
  H  H4  1  0.11671100  0.80166500  0.94276400  1
  H  H5  1  0.95358800  0.26983500  0.94392500  1
  H  H6  1  0.13973200  0.80775400  0.06593500  1
  H  H7  1  0.95210000  0.26533000  0.06702000  1
  H  H8  1  0.05823800  0.28300300  0.16699200  1
  H  H9  1  0.03713300  0.78057900  0.16339300  1
  H  H10  1  0.93805000  0.02956400  0.34401200  1
  H  H11  1  0.84294900  0.19534200  0.85043100  1
  H  H12  1  0.19159800  0.86866500  0.84187900  1
  H  H13  1  0.82977300  0.19862400  0.72533700  1
  H  H14  1  0.16483200  0.86098000  0.71749300  1
  H  H15  1  0.64452900  0.52977900  0.50002000  1
  H  H16  1  0.75441500  0.53133800  0.26209000  1
  H  H17  1  0.62398200  0.53430700  0.15891400  1
  H  H18  1  0.36240800  0.53367900  0.15901000  1
  H  H19  1  0.23973500  0.52958200  0.25927600  1
  H  H20  1  0.26102100  0.53643300  0.53026200  1
  H  H21  1  0.42998800  0.60391400  0.55874100  1
  H  H22  1  0.52640300  0.33428500  0.55839000  1
  H  H23  1  0.35862700  0.26243000  0.52319300  1
  H  H24  1  0.23326100  0.36101200  0.62736600  1
  H  H25  1  0.40225800  0.43327400  0.66198000  1
  H  H26  1  0.33218000  0.09120500  0.62607800  1
  H  H27  1  0.34072600  0.17546800  0.71178500  1
  H  H28  1  0.50127100  0.16362900  0.66097000  1
  C  C1  1  0.00259900  0.17287500  0.53173600  1
  C  C2  1  0.00589200  0.89350400  0.53076600  1
  C  C3  1  0.98491100  0.17191700  0.60242400  1
  C  C4  1  0.99522100  0.89118300  0.60166800  1
  C  C5  1  0.98919400  0.03082100  0.63777000  1
  C  C6  1  0.01912400  0.03399200  0.49736100  1
  C  C7  1  0.08571500  0.90725500  0.96900900  1
  C  C8  1  0.99080900  0.16528200  0.96971800  1
  C  C9  1  0.09496400  0.90894000  0.04029700  1
  C  C10  1  0.99523300  0.16487600  0.04093800  1
  C  C11  1  0.04700000  0.03660800  0.07727000  1
  C  C12  1  0.03271000  0.03515500  0.93284300  1
  C  C13  1  0.03540300  0.17193900  0.19081600  1
  C  C14  1  0.02925900  0.89193500  0.18906300  1
  C  C15  1  0.99885200  0.17000900  0.25950000  1
  C  C16  1  0.99891300  0.89224800  0.25857100  1
  C  C17  1  0.97133800  0.03060000  0.29125600  1
  C  C18  1  0.03947200  0.03302000  0.15352400  1
  C  C19  1  0.91806700  0.12464700  0.82245400  1
  C  C20  1  0.10757300  0.93767000  0.81791900  1
  C  C21  1  0.90852100  0.12531700  0.75118500  1
  C  C22  1  0.09348900  0.93381500  0.74690300  1
  C  C23  1  0.99530600  0.02882100  0.71327900  1
  C  C24  1  0.01935900  0.03251700  0.85664300  1
  C  C25  1  0.00370500  0.75139300  0.48886300  1
  C  C26  1  0.00206700  0.31610000  0.49045300  1
  C  C27  1  0.00022700  0.75030900  0.30050500  1
  C  C28  1  0.99957900  0.31096200  0.30196800  1
  C  C29  1  0.64199400  0.53309400  0.26857400  1
  C  C30  1  0.56754400  0.53422400  0.20722400  1
  C  C31  1  0.42238900  0.53393900  0.20738000  1
  C  C32  1  0.35133600  0.53235100  0.26863300  1
  C  C33  1  0.42329300  0.53274900  0.33328600  1
  C  C34  1  0.57361700  0.53316200  0.33233700  1
  C  C35  1  0.58259300  0.52992700  0.45226700  1
  C  C36  1  0.43417100  0.52586700  0.45455200  1
  C  C37  1  0.37570100  0.51431000  0.52610800  1
  C  C38  1  0.40891300  0.35387500  0.55620100  1
  C  C39  1  0.35099600  0.34266300  0.62879200  1
  C  C40  1  0.38355500  0.18262200  0.65878300  1
  N  N1  1  0.65180700  0.53305700  0.39231100  1
  N  N2  1  0.35195600  0.53087900  0.39509800  1
  O  O1  1  0.12705900  0.70200900  0.46491900  1
  O  O2  1  0.12582000  0.36426900  0.46618400  1
  O  O3  1  0.87756000  0.69659900  0.46799900  1
  O  O4  1  0.87652500  0.37081600  0.46907700  1
  O  O5  1  0.87869800  0.70137800  0.32485600  1
  O  O6  1  0.87791200  0.36126300  0.32586400  1
  O  O7  1  0.12411700  0.69532900  0.32219700  1
  O  O8  1  0.12334100  0.36618800  0.32319100  1
