# generated using pymatgen
data_ZnH19C39N(OF)4
_symmetry_space_group_name_H-M   'P 1'
_cell_length_a   16.16542500
_cell_length_b   15.02311300
_cell_length_c   10.78005400
_cell_angle_alpha   90.00000000
_cell_angle_beta   90.00010500
_cell_angle_gamma   90.00000000
_symmetry_Int_Tables_number   1
_chemical_formula_structural   ZnH19C39N(OF)4
_chemical_formula_sum   'Zn2 H38 C78 N2 O8 F8'
_cell_volume   2617.99008389
_cell_formula_units_Z   2
loop_
 _symmetry_equiv_pos_site_id
 _symmetry_equiv_pos_as_xyz
  1  'x, y, z'
loop_
 _atom_site_type_symbol
 _atom_site_label
 _atom_site_symmetry_multiplicity
 _atom_site_fract_x
 _atom_site_fract_y
 _atom_site_fract_z
 _atom_site_occupancy
  Zn  Zn1  1  0.50100700  0.60174300  0.49626200  1
  Zn  Zn2  1  0.50101800  0.39880100  0.49521100  1
  H  H1  1  0.38576900  0.41415100  0.91754800  1
  H  H2  1  0.61705300  0.58731400  0.07446400  1
  H  H3  1  0.37319600  0.56693700  0.06898100  1
  H  H4  1  0.62962000  0.43461900  0.92284500  1
  H  H5  1  0.49131400  0.65198700  0.91761000  1
  H  H6  1  0.51273200  0.35071400  0.07648600  1
  H  H7  1  0.29340300  0.04371300  0.37067700  1
  H  H8  1  0.21568000  0.11207300  0.19968300  1
  H  H9  1  0.43863200  0.21702900  0.05181500  1
  H  H10  1  0.51763700  0.14844000  0.22145000  1
  H  H11  1  0.50943200  0.95873100  0.83367600  1
  H  H12  1  0.58201900  0.87816700  0.99928100  1
  H  H13  1  0.73806500  0.75556700  0.73207900  1
  H  H14  1  0.66909600  0.83916900  0.56614700  1
  H  H15  1  0.47944900  0.16054700  0.75636400  1
  H  H16  1  0.55565000  0.24330800  0.91530300  1
  H  H17  1  0.78018200  0.12259100  0.79840500  1
  H  H18  1  0.70576200  0.04366100  0.63322700  1
  H  H19  1  0.33120300  0.83869500  0.43080400  1
  H  H20  1  0.26261500  0.75261300  0.26683100  1
  H  H21  1  0.42108600  0.86928600  0.99753100  1
  H  H22  1  0.49279300  0.95264700  0.16140300  1
  H  H23  1  0.12651600  0.64043000  0.70155500  1
  H  H24  1  0.19503200  0.78505900  0.72612400  1
  H  H25  1  0.12765800  0.85476300  0.35677300  1
  H  H26  1  0.06096200  0.70923700  0.33020200  1
  H  H27  1  0.94032300  0.28924200  0.65672100  1
  H  H28  1  0.86993200  0.14653300  0.62406900  1
  H  H29  1  0.80054500  0.22761200  0.26033900  1
  H  H30  1  0.87462900  0.36845900  0.28936900  1
  H  H31  1  0.87547600  0.64287100  0.29455100  1
  H  H32  1  0.80709700  0.78787800  0.27341500  1
  H  H33  1  0.87451400  0.85297000  0.64438200  1
  H  H34  1  0.94100800  0.70704900  0.66751100  1
  H  H35  1  0.06098400  0.28753100  0.33943700  1
  H  H36  1  0.13019600  0.14453700  0.37504500  1
  H  H37  1  0.20044500  0.22884100  0.73694300  1
  H  H38  1  0.12745700  0.37000200  0.70509600  1
  C  C1  1  0.33920100  0.50061200  0.50020200  1
  C  C2  1  0.66281700  0.50011000  0.49141500  1
  C  C3  1  0.49886200  0.50142000  0.25322400  1
  C  C4  1  0.50338500  0.49934300  0.73830900  1
  C  C5  1  0.25018000  0.50088400  0.50479000  1
  C  C6  1  0.75184500  0.50061800  0.48757300  1
  C  C7  1  0.45832300  0.95272500  0.40529900  1
  C  C8  1  0.54209100  0.04690100  0.58798100  1
  C  C9  1  0.54253600  0.95425900  0.58908100  1
  C  C10  1  0.45773900  0.04520400  0.40413100  1
  C  C11  1  0.50076200  0.90776200  0.49748100  1
  C  C12  1  0.49995700  0.09218800  0.49511200  1
  C  C13  1  0.43141600  0.53688300  0.03425300  1
  C  C14  1  0.57141600  0.46477600  0.95747200  1
  C  C15  1  0.49589100  0.58316000  0.95417700  1
  C  C16  1  0.50699300  0.41856800  0.03756800  1
  C  C17  1  0.43822500  0.45361400  0.95458100  1
  C  C18  1  0.56457800  0.54796300  0.03726300  1
  C  C19  1  0.50266700  0.49985200  0.87660600  1
  C  C20  1  0.50009700  0.50166000  0.11504000  1
  C  C21  1  0.50112200  0.81194300  0.49781600  1
  C  C22  1  0.50019900  0.18835400  0.49363000  1
  C  C23  1  0.82655700  0.50133500  0.48499300  1
  C  C24  1  0.17547600  0.50138100  0.50809500  1
  C  C25  1  0.95825000  0.58136900  0.49108800  1
  C  C26  1  0.04371900  0.42172200  0.50458400  1
  C  C27  1  0.04376000  0.58133900  0.50367800  1
  C  C28  1  0.95827200  0.42175000  0.48928600  1
  C  C29  1  0.91578400  0.50160000  0.48432300  1
  C  C30  1  0.08624400  0.50155500  0.50947000  1
  C  C31  1  0.41052600  0.09288000  0.30867000  1
  C  C32  1  0.32561100  0.08299900  0.30200500  1
  C  C33  1  0.28177800  0.12139200  0.20621100  1
  C  C34  1  0.32240900  0.17022700  0.11705400  1
  C  C35  1  0.40693200  0.18037000  0.12340500  1
  C  C36  1  0.45104100  0.14207500  0.21904100  1
  C  C37  1  0.58461200  0.90471200  0.68857000  1
  C  C38  1  0.56026500  0.91501500  0.81067000  1
  C  C39  1  0.60054800  0.86938300  0.90386900  1
  C  C40  1  0.66431700  0.81211500  0.87565900  1
  C  C41  1  0.68836100  0.80092900  0.75417600  1
  C  C42  1  0.64920600  0.84764300  0.66103500  1
  C  C43  1  0.58761200  0.09735000  0.68284100  1
  C  C44  1  0.54581500  0.15317600  0.76326600  1
  C  C45  1  0.58839300  0.19920500  0.85355300  1
  C  C46  1  0.67254000  0.18835800  0.86603900  1
  C  C47  1  0.71434400  0.13190500  0.78739500  1
  C  C48  1  0.67224700  0.08720700  0.69518100  1
  C  C49  1  0.41648800  0.90167200  0.30713900  1
  C  C50  1  0.35152300  0.84543400  0.33585700  1
  C  C51  1  0.31267500  0.79728700  0.24383100  1
  C  C52  1  0.33753700  0.80609300  0.12231000  1
  C  C53  1  0.40180500  0.86242500  0.09295600  1
  C  C54  1  0.44163400  0.90959400  0.18509400  1
  C  C55  1  0.08944400  0.66529100  0.51420000  1
  C  C56  1  0.12785100  0.68669900  0.62476900  1
  C  C57  1  0.16579600  0.76818200  0.63905800  1
  C  C58  1  0.16519200  0.82873900  0.54312800  1
  C  C59  1  0.12785400  0.80729300  0.43213200  1
  C  C60  1  0.09043100  0.72550700  0.41730900  1
  C  C61  1  0.91202000  0.33836700  0.47516000  1
  C  C62  1  0.90988700  0.27604600  0.56935700  1
  C  C63  1  0.86976100  0.19606600  0.55153100  1
  C  C64  1  0.83013300  0.17886000  0.44087500  1
  C  C65  1  0.83121200  0.24127600  0.34739300  1
  C  C66  1  0.87244200  0.32059700  0.36419300  1
  C  C67  1  0.91253900  0.66541000  0.48247100  1
  C  C68  1  0.87416100  0.68819600  0.37242300  1
  C  C69  1  0.83629300  0.76989200  0.36007900  1
  C  C70  1  0.83695800  0.82927300  0.45743900  1
  C  C71  1  0.87424500  0.80642000  0.56791700  1
  C  C72  1  0.91155700  0.72441500  0.58080000  1
  C  C73  1  0.08977500  0.33833200  0.51993700  1
  C  C74  1  0.09141300  0.27502500  0.42700500  1
  C  C75  1  0.13087900  0.19486500  0.44648200  1
  C  C76  1  0.17036200  0.17844500  0.55748600  1
  C  C77  1  0.16990200  0.24188600  0.64960900  1
  C  C78  1  0.12931400  0.32139600  0.63119100  1
  N  N1  1  0.50066500  0.26556800  0.49370600  1
  N  N2  1  0.50125300  0.73488300  0.49760000  1
  O  O1  1  0.37771300  0.57751500  0.49904600  1
  O  O2  1  0.62436100  0.42302700  0.49247800  1
  O  O3  1  0.62420700  0.57698000  0.49297800  1
  O  O4  1  0.37779000  0.42364900  0.49855100  1
  O  O5  1  0.49893500  0.57822000  0.31120300  1
  O  O6  1  0.50315400  0.42235100  0.68034800  1
  O  O7  1  0.50277100  0.57630700  0.68079600  1
  O  O8  1  0.49932000  0.42433800  0.31065200  1
  F  F1  1  0.27945100  0.20717300  0.02219300  1
  F  F2  1  0.70326400  0.76677600  0.96728700  1
  F  F3  1  0.71405000  0.23275600  0.95601800  1
  F  F4  1  0.29893000  0.75929800  0.03178600  1
  F  F5  1  0.20132000  0.90935600  0.55799400  1
  F  F6  1  0.79051200  0.10043400  0.42358100  1
  F  F7  1  0.80099000  0.91014100  0.44447100  1
  F  F8  1  0.20914300  0.09974800  0.57653500  1
