# generated using pymatgen
data_ZnH15C26NO6
_symmetry_space_group_name_H-M   'P 1'
_cell_length_a   9.88153400
_cell_length_b   11.03820700
_cell_length_c   15.98733700
_cell_angle_alpha   89.99609600
_cell_angle_beta   72.17240000
_cell_angle_gamma   89.99890100
_symmetry_Int_Tables_number   1
_chemical_formula_structural   ZnH15C26NO6
_chemical_formula_sum   'Zn2 H30 C52 N2 O12'
_cell_volume   1660.07527225
_cell_formula_units_Z   2
loop_
 _symmetry_equiv_pos_site_id
 _symmetry_equiv_pos_as_xyz
  1  'x, y, z'
loop_
 _atom_site_type_symbol
 _atom_site_label
 _atom_site_symmetry_multiplicity
 _atom_site_fract_x
 _atom_site_fract_y
 _atom_site_fract_z
 _atom_site_occupancy
  Zn  Zn1  1  0.34609800  0.50487900  0.50021600  1
  Zn  Zn2  1  0.65431100  0.49619800  0.49897600  1
  H  H1  1  0.13177400  0.56992500  0.07212500  1
  H  H2  1  0.86863400  0.43114700  0.92706700  1
  H  H3  1  0.42619900  0.51752300  0.22524500  1
  H  H4  1  0.57421000  0.48355200  0.77394700  1
  H  H5  1  0.85051100  0.44878500  0.21856000  1
  H  H6  1  0.14989900  0.55229300  0.78063200  1
  H  H7  1  0.07929700  0.57129600  0.93907700  1
  H  H8  1  0.92111300  0.42978000  0.06011500  1
  H  H9  1  0.28791800  0.54744600  0.15551300  1
  H  H10  1  0.71249000  0.45362500  0.84367900  1
  H  H11  1  0.92849600  0.91828600  0.55835800  1
  H  H12  1  0.07191200  0.08279100  0.44083600  1
  H  H13  1  0.37265700  0.80082600  0.37522200  1
  H  H14  1  0.62775200  0.20025200  0.62397000  1
  H  H15  1  0.15824500  0.89295800  0.36324000  1
  H  H16  1  0.84216400  0.10811900  0.63595300  1
  H  H17  1  0.20788200  0.18573400  0.51914700  1
  H  H18  1  0.79252600  0.81534200  0.48004600  1
  H  H19  1  0.69733900  0.65763200  0.61384000  1
  H  H20  1  0.30307000  0.34344400  0.38535100  1
  H  H21  1  0.76089200  0.77612700  0.71639500  1
  H  H22  1  0.23951600  0.22494800  0.28279800  1
  H  H23  1  0.18558700  0.66961000  0.60868600  1
  H  H24  1  0.81482200  0.33146600  0.39050600  1
  H  H25  1  0.68317000  0.11797100  0.22765900  1
  H  H26  1  0.82598500  0.01510000  0.22629400  1
  H  H27  1  0.85442100  0.13607900  0.14571100  1
  H  H28  1  0.31723700  0.88309900  0.77153900  1
  H  H29  1  0.14598500  0.86498700  0.85348600  1
  H  H30  1  0.17442100  0.98597000  0.77290500  1
  C  C1  1  0.51085000  0.73933100  0.48890000  1
  C  C2  1  0.48955900  0.26174600  0.51029200  1
  C  C3  1  0.41332800  0.50925400  0.67177100  1
  C  C4  1  0.58708200  0.49182300  0.32742100  1
  C  C5  1  0.36857100  0.51637600  0.76819600  1
  C  C6  1  0.63183800  0.48470100  0.23099500  1
  C  C7  1  0.18881300  0.55063700  0.90381000  1
  C  C8  1  0.81159600  0.45043800  0.09538200  1
  C  C9  1  0.22879700  0.53995700  0.81406400  1
  C  C10  1  0.77161200  0.46111900  0.18512800  1
  C  C11  1  0.46714500  0.50153600  0.81320200  1
  C  C12  1  0.53326400  0.49953800  0.18598900  1
  C  C13  1  0.42759600  0.51007000  0.90485500  1
  C  C14  1  0.57281300  0.49100400  0.09433700  1
  C  C15  1  0.28677500  0.53602000  0.94871100  1
  C  C16  1  0.71363400  0.46505400  0.05048100  1
  C  C17  1  0.52380600  0.49445000  0.95372000  1
  C  C18  1  0.47660300  0.50662300  0.04547200  1
  C  C19  1  0.33413100  0.53464700  0.08608400  1
  C  C20  1  0.66627800  0.46642500  0.91310800  1
  C  C21  1  0.24161500  0.54843100  0.03820900  1
  C  C22  1  0.75879400  0.45264100  0.96098300  1
  C  C23  1  0.33800000  0.88450500  0.41011900  1
  C  C24  1  0.66241000  0.11657200  0.58907400  1
  C  C25  1  0.21858900  0.93791600  0.40027200  1
  C  C26  1  0.78182000  0.06316100  0.59892100  1
  C  C27  1  0.17219900  0.04515000  0.44186700  1
  C  C28  1  0.82820900  0.95592600  0.55732700  1
  C  C29  1  0.25463000  0.10608200  0.48341000  1
  C  C30  1  0.74577800  0.89499400  0.51578400  1
  C  C31  1  0.38399300  0.05888200  0.48615500  1
  C  C32  1  0.61641600  0.94219500  0.51303800  1
  C  C33  1  0.41334100  0.93873400  0.46075700  1
  C  C34  1  0.58706900  0.06234300  0.53843600  1
  C  C35  1  0.48006500  0.12572100  0.51706000  1
  C  C36  1  0.52034400  0.87535500  0.48213300  1
  C  C37  1  0.80408600  0.64813400  0.61297100  1
  C  C38  1  0.19632300  0.35294200  0.38622100  1
  C  C39  1  0.84129000  0.72035700  0.67204400  1
  C  C40  1  0.15911900  0.28071800  0.32714900  1
  C  C41  1  0.97975300  0.72596000  0.67079600  1
  C  C42  1  0.02065600  0.27511500  0.32839700  1
  C  C43  1  0.07884500  0.65710500  0.61048900  1
  C  C44  1  0.92156400  0.34397100  0.38870300  1
  C  C45  1  0.04227400  0.57659900  0.55396600  1
  C  C46  1  0.95813500  0.42447800  0.44522600  1
  C  C47  1  0.90027200  0.57157000  0.55510600  1
  C  C48  1  0.10013700  0.42950700  0.44408600  1
  C  C49  1  0.97813700  0.19330700  0.26825300  1
  C  C50  1  0.79964500  0.11014100  0.21486500  1
  C  C51  1  0.02227100  0.80776500  0.73094100  1
  C  C52  1  0.20076100  0.89092800  0.78433300  1
  N  N1  1  0.14319900  0.50573900  0.49839600  1
  N  N2  1  0.85721000  0.49533800  0.50079500  1
  O  O1  1  0.38911200  0.68502300  0.49479300  1
  O  O2  1  0.61129700  0.31605400  0.50439900  1
  O  O3  1  0.62169000  0.67667800  0.49210600  1
  O  O4  1  0.37872000  0.32439900  0.50708600  1
  O  O5  1  0.31631200  0.51220000  0.63135400  1
  O  O6  1  0.68409800  0.48887700  0.36783700  1
  O  O7  1  0.54931200  0.50242100  0.62945500  1
  O  O8  1  0.45109700  0.49865600  0.36973600  1
  O  O9  1  0.06740400  0.13187700  0.21585300  1
  O  O10  1  0.84080000  0.18593900  0.27059500  1
  O  O11  1  0.93300400  0.86919400  0.78334300  1
  O  O12  1  0.15960700  0.81513200  0.72860100  1
