# generated using pymatgen
data_FeH14C21N3O8
_symmetry_space_group_name_H-M   'P 1'
_cell_length_a   15.07606800
_cell_length_b   16.95228000
_cell_length_c   11.76171900
_cell_angle_alpha   71.81456300
_cell_angle_beta   101.00767900
_cell_angle_gamma   108.96115300
_symmetry_Int_Tables_number   1
_chemical_formula_structural   FeH14C21N3O8
_chemical_formula_sum   'Fe2 H28 C42 N6 O16'
_cell_volume   2687.43831549
_cell_formula_units_Z   2
loop_
 _symmetry_equiv_pos_site_id
 _symmetry_equiv_pos_as_xyz
  1  'x, y, z'
loop_
 _atom_site_type_symbol
 _atom_site_label
 _atom_site_symmetry_multiplicity
 _atom_site_fract_x
 _atom_site_fract_y
 _atom_site_fract_z
 _atom_site_occupancy
  Fe  Fe1  1  0.49318400  0.98261100  0.76894300  1
  Fe  Fe2  1  0.49135900  0.98364900  0.26689500  1
  H  H1  1  0.95389700  0.01671300  0.24855700  1
  H  H2  1  0.83666700  0.99320100  0.89902800  1
  H  H3  1  0.03911700  0.95317700  0.77908500  1
  H  H4  1  0.19435000  0.95490300  0.74449200  1
  H  H5  1  0.15325900  0.00207300  0.12033100  1
  H  H6  1  0.50638700  0.71830200  0.42672100  1
  H  H7  1  0.52540600  0.55904600  0.78740600  1
  H  H8  1  0.52530300  0.67520700  0.86238800  1
  H  H9  1  0.54369300  0.42522100  0.27051600  1
  H  H10  1  0.54141900  0.30805200  0.19591100  1
  H  H11  1  0.83748500  0.96055000  0.39750800  1
  H  H12  1  0.73127000  0.98985500  0.36069200  1
  H  H13  1  0.92864100  0.11955800  0.32794100  1
  H  H14  1  0.73478200  0.14630400  0.31734100  1
  H  H15  1  0.79896900  0.17153800  0.18885900  1
  H  H16  1  0.84656700  0.22860300  0.30261700  1
  H  H17  1  0.79440300  0.06828100  0.52146900  1
  H  H18  1  0.90305900  0.15539000  0.50521400  1
  H  H19  1  0.90601700  0.04477000  0.54095400  1
  H  H20  1  0.47225200  0.27073300  0.69369700  1
  H  H21  1  0.40742100  0.16928000  0.67548300  1
  H  H22  1  0.33897300  0.32886600  0.54849100  1
  H  H23  1  0.25062500  0.13373500  0.57699400  1
  H  H24  1  0.28218300  0.21639000  0.43852300  1
  H  H25  1  0.19024400  0.21633700  0.51581900  1
  H  H26  1  0.28084600  0.17845200  0.77103200  1
  H  H27  1  0.22539000  0.26391400  0.69868500  1
  H  H28  1  0.34411900  0.28940700  0.77027900  1
  C  C1  1  0.80750100  0.00772000  0.20925500  1
  C  C2  1  0.89372400  0.01154200  0.18168900  1
  C  C3  1  0.90449400  0.00372600  0.07316000  1
  C  C4  1  0.82821200  0.99629300  0.98644600  1
  C  C5  1  0.73993100  0.99261500  0.01057500  1
  C  C6  1  0.72856000  0.99520600  0.12498000  1
  C  C7  1  0.09792700  0.96399700  0.84671300  1
  C  C8  1  0.18524000  0.96403100  0.82802400  1
  C  C9  1  0.26183200  0.98056700  0.91144700  1
  C  C10  1  0.24961000  0.99235800  0.01889100  1
  C  C11  1  0.16145600  0.99297600  0.03650600  1
  C  C12  1  0.08564700  0.98033700  0.94924400  1
  C  C13  1  0.47199100  0.10728300  0.56129500  1
  C  C14  1  0.35476200  0.99228100  0.87774900  1
  C  C15  1  0.66276300  0.98833600  0.91095600  1
  C  C16  1  0.51282600  0.83282700  0.74070700  1
  C  C17  1  0.50692200  0.14024300  0.30756300  1
  C  C18  1  0.32602100  0.99884000  0.11799100  1
  C  C19  1  0.63445200  0.97776700  0.16091800  1
  C  C20  1  0.51864700  0.86120300  0.47659300  1
  C  C21  1  0.51317300  0.77716600  0.56498300  1
  C  C22  1  0.50915100  0.70842600  0.52248800  1
  C  C23  1  0.51465100  0.62988800  0.60121500  1
  C  C24  1  0.52181800  0.61977900  0.72334700  1
  C  C25  1  0.52196100  0.68654300  0.76626900  1
  C  C26  1  0.51741700  0.76575000  0.68854400  1
  C  C27  1  0.50614000  0.42119400  0.48248000  1
  C  C28  1  0.51409600  0.55758800  0.55723700  1
  C  C29  1  0.52341300  0.35998900  0.32820200  1
  C  C30  1  0.52307000  0.29276600  0.28624100  1
  C  C31  1  0.50368300  0.20871600  0.35905100  1
  C  C32  1  0.48127400  0.19281200  0.47566500  1
  C  C33  1  0.47183400  0.25987700  0.51410100  1
  C  C34  1  0.49960200  0.34516400  0.44200100  1
  C  C35  1  0.80339600  0.00904200  0.33540700  1
  C  C36  1  0.85664800  0.09769900  0.35636700  1
  C  C37  1  0.80565400  0.16494900  0.28664600  1
  C  C38  1  0.86539600  0.09101900  0.48956600  1
  C  C39  1  0.42461500  0.23850400  0.62739500  1
  C  C40  1  0.33073500  0.26060400  0.60021300  1
  C  C41  1  0.25925400  0.20292400  0.52847500  1
  C  C42  1  0.29288200  0.24701900  0.71769100  1
  N  N1  1  0.99430300  0.00256800  0.05569700  1
  N  N2  1  0.99518500  0.98243600  0.96302900  1
  N  N3  1  0.53844600  0.48899700  0.63465900  1
  N  N4  1  0.53515900  0.42212100  0.59754900  1
  N  N5  1  0.48468100  0.49112200  0.40384300  1
  N  N6  1  0.48846100  0.55847900  0.44079900  1
  O  O1  1  0.53498300  0.09821500  0.65508300  1
  O  O2  1  0.42326100  0.06258900  0.88479000  1
  O  O3  1  0.39361200  0.04466400  0.55624500  1
  O  O4  1  0.36678800  0.93796500  0.82747900  1
  O  O5  1  0.57678400  0.98530600  0.92339000  1
  O  O6  1  0.68133700  0.99089200  0.80510600  1
  O  O7  1  0.49775200  0.90568600  0.67206000  1
  O  O8  1  0.51871600  0.81770300  0.85790500  1
  O  O9  1  0.48643200  0.05797500  0.36790000  1
  O  O10  1  0.52623400  0.16163100  0.19589600  1
  O  O11  1  0.40259400  0.97822200  0.11699200  1
  O  O12  1  0.31403500  0.01752000  0.21312800  1
  O  O13  1  0.59042500  0.92858800  0.48648500  1
  O  O14  1  0.61451600  0.03441300  0.19930600  1
  O  O15  1  0.45750000  0.86695400  0.38078300  1
  O  O16  1  0.57387400  0.90096700  0.16842600  1
