# generated using pymatgen
data_Cu6H36C76O27
_symmetry_space_group_name_H-M   'P 1'
_cell_length_a   21.64720400
_cell_length_b   21.65758700
_cell_length_c   22.04255900
_cell_angle_alpha   60.60553400
_cell_angle_beta   119.38780200
_cell_angle_gamma   89.95920800
_symmetry_Int_Tables_number   1
_chemical_formula_structural   Cu6H36C76O27
_chemical_formula_sum   'Cu6 H36 C76 O27'
_cell_volume   7437.33031083
_cell_formula_units_Z   1
loop_
 _symmetry_equiv_pos_site_id
 _symmetry_equiv_pos_as_xyz
  1  'x, y, z'
loop_
 _atom_site_type_symbol
 _atom_site_label
 _atom_site_symmetry_multiplicity
 _atom_site_fract_x
 _atom_site_fract_y
 _atom_site_fract_z
 _atom_site_occupancy
  Cu  Cu1  1  0.50355700  0.43562400  0.50379700  1
  Cu  Cu2  1  0.49757800  0.56349900  0.49366100  1
  Cu  Cu3  1  0.05881100  0.00100000  0.49333800  1
  Cu  Cu4  1  0.94239300  0.99687000  0.50595700  1
  Cu  Cu5  1  0.95434200  0.53272200  0.41776400  1
  Cu  Cu6  1  0.04918300  0.46389800  0.58352700  1
  H  H1  1  0.38085200  0.76669300  0.05056700  1
  H  H2  1  0.33535400  0.71289800  0.94645900  1
  H  H3  1  0.23338900  0.86527300  0.94533400  1
  H  H4  1  0.19926300  0.75441000  0.05164500  1
  H  H5  1  0.15378600  0.70058600  0.94772200  1
  H  H6  1  0.30124600  0.60188400  0.05300700  1
  H  H7  1  0.65162200  0.59961100  0.41073000  1
  H  H8  1  0.71299500  0.36859800  0.65702000  1
  H  H9  1  0.82052700  0.25792700  0.76572900  1
  H  H10  1  0.93170000  0.24933600  0.76257100  1
  H  H11  1  0.93576600  0.35137700  0.65262600  1
  H  H12  1  0.76442100  0.59675900  0.41225900  1
  H  H13  1  0.62593600  0.36084200  0.94551900  1
  H  H14  1  0.65941700  0.20583200  0.05315000  1
  H  H15  1  0.77882700  0.34566600  0.04820700  1
  H  H16  1  0.68760200  0.18448600  0.95045300  1
  H  H17  1  0.34496900  0.39405500  0.57536100  1
  H  H18  1  0.28869400  0.63904700  0.34766500  1
  H  H19  1  0.18737000  0.75399000  0.25556300  1
  H  H20  1  0.08170600  0.75955600  0.26847500  1
  H  H21  1  0.07601100  0.64987300  0.37107400  1
  H  H22  1  0.23321400  0.39533100  0.57643200  1
  H  H23  1  0.00503600  0.75456600  0.59802000  1
  H  H24  1  0.94676800  0.95090400  0.33184100  1
  H  H25  1  0.92512900  0.96052400  0.20929300  1
  H  H26  1  0.96787100  0.72870300  0.32726000  1
  H  H27  1  0.00612900  0.64433800  0.59587500  1
  H  H28  1  0.01487700  0.23772300  0.41252300  1
  H  H29  1  0.03717100  0.05039900  0.66272000  1
  H  H30  1  0.03699100  0.04801100  0.77278100  1
  H  H31  1  0.02415000  0.16209200  0.76974700  1
  H  H32  1  0.01368900  0.27681200  0.65895600  1
  H  H33  1  0.01431400  0.34824300  0.41481700  1
  H  H34  1  0.86305100  0.31590100  0.99098800  1
  H  H35  1  0.84224000  0.16533800  0.00753600  1
  H  H36  1  0.97437500  0.86645900  0.18899500  1
  C  C1  1  0.62637600  0.49299700  0.51415600  1
  C  C2  1  0.43036800  0.57247400  0.33790900  1
  C  C3  1  0.37441600  0.50644800  0.48264500  1
  C  C4  1  0.57078000  0.42663100  0.65958400  1
  C  C5  1  0.30516100  0.72166300  0.97161400  1
  C  C6  1  0.32872900  0.75233500  0.02594500  1
  C  C7  1  0.38896300  0.61376500  0.24777800  1
  C  C8  1  0.13867300  0.85963300  0.75046600  1
  C  C9  1  0.28521700  0.66224400  0.02728800  1
  C  C10  1  0.30790600  0.69380900  0.07982900  1
  C  C11  1  0.20592600  0.71491700  0.97234300  1
  C  C12  1  0.22670700  0.77345700  0.91842000  1
  C  C13  1  0.22945100  0.74563700  0.02648900  1
  C  C14  1  0.24946000  0.80491100  0.97106800  1
  C  C15  1  0.35301100  0.64937900  0.17195800  1
  C  C16  1  0.17909800  0.82008800  0.82628400  1
  C  C17  1  0.76030000  0.36733000  0.65246700  1
  C  C18  1  0.82161200  0.30413700  0.71540900  1
  C  C19  1  0.88385800  0.29950600  0.71381700  1
  C  C20  1  0.88586200  0.35881500  0.65075100  1
  C  C21  1  0.82543100  0.42428500  0.58781300  1
  C  C22  1  0.76080500  0.42706700  0.58717200  1
  C  C23  1  0.69773700  0.48992500  0.52220900  1
  C  C24  1  0.70055300  0.55062000  0.46114300  1
  C  C25  1  0.76418900  0.54840600  0.46163700  1
  C  C26  1  0.82703800  0.48597100  0.52404300  1
  C  C27  1  0.69219300  0.23291300  0.02773200  1
  C  C28  1  0.67500700  0.31725900  0.97089000  1
  C  C29  1  0.61181400  0.38523400  0.74971900  1
  C  C30  1  0.86248200  0.13857500  0.24883600  1
  C  C31  1  0.70764200  0.22091500  0.97293200  1
  C  C32  1  0.69130200  0.30464600  0.91766700  1
  C  C33  1  0.78821500  0.21461100  0.02673700  1
  C  C34  1  0.77354400  0.22581100  0.08092300  1
  C  C35  1  0.77172200  0.29670400  0.97174600  1
  C  C36  1  0.75724600  0.30954700  0.02572900  1
  C  C37  1  0.64720700  0.34940400  0.82553500  1
  C  C38  1  0.82178700  0.17851600  0.17304100  1
  C  C39  1  0.24378100  0.63881000  0.35631000  1
  C  C40  1  0.18575800  0.70449800  0.30253800  1
  C  C41  1  0.12638100  0.70749700  0.30937600  1
  C  C42  1  0.12320200  0.64414400  0.36749900  1
  C  C43  1  0.17980400  0.57650000  0.42003600  1
  C  C44  1  0.24272400  0.57492200  0.41748800  1
  C  C45  1  0.30313500  0.50927900  0.47504100  1
  C  C46  1  0.29824700  0.44516300  0.53046200  1
  C  C47  1  0.23550000  0.44621900  0.53181100  1
  C  C48  1  0.17597900  0.51115600  0.47720400  1
  C  C49  1  0.98934200  0.88871800  0.48418200  1
  C  C50  1  0.08916900  0.90804700  0.66037700  1
  C  C51  1  0.01239200  0.10866000  0.51609600  1
  C  C52  1  0.91204200  0.08986600  0.33891900  1
  C  C53  1  0.99191300  0.62629800  0.48129100  1
  C  C54  1  0.89162000  0.48868900  0.51720900  1
  C  C55  1  0.01153700  0.37054200  0.51980500  1
  C  C56  1  0.11180800  0.50770800  0.48428800  1
  C  C57  1  0.95257900  0.89997600  0.33456900  1
  C  C58  1  0.93950100  0.90633600  0.26392500  1
  C  C59  1  0.94544800  0.84381700  0.26316600  1
  C  C60  1  0.96269600  0.77492800  0.33221500  1
  C  C61  1  0.97261300  0.76734200  0.40328300  1
  C  C62  1  0.97019500  0.83086900  0.40495900  1
  C  C63  1  0.98380100  0.82548800  0.47614500  1
  C  C64  1  0.99511400  0.75858000  0.54293400  1
  C  C65  1  0.99675300  0.69592100  0.54173000  1
  C  C66  1  0.98648300  0.69840600  0.47335900  1
  C  C67  1  0.03030700  0.10230700  0.65782000  1
  C  C68  1  0.03129600  0.09993000  0.72169000  1
  C  C69  1  0.02448000  0.16361800  0.72016200  1
  C  C70  1  0.01914500  0.22925800  0.65635400  1
  C  C71  1  0.02029000  0.23267200  0.59224900  1
  C  C72  1  0.02259600  0.16877200  0.59140800  1
  C  C73  1  0.01867300  0.17138300  0.52522400  1
  C  C74  1  0.01749400  0.23559500  0.46378900  1
  C  C75  1  0.01611600  0.29846200  0.46472300  1
  C  C76  1  0.01684900  0.29861400  0.52767700  1
  O  O1  1  0.59661300  0.44107900  0.51067400  1
  O  O2  1  0.59412200  0.54886400  0.50814600  1
  O  O3  1  0.45296800  0.49924000  0.38157000  1
  O  O4  1  0.44204100  0.61007300  0.37227700  1
  O  O5  1  0.40673400  0.45058500  0.48865700  1
  O  O6  1  0.40477400  0.55772100  0.48730700  1
  O  O7  1  0.55866700  0.38906300  0.62514700  1
  O  O8  1  0.54860500  0.49987000  0.61595900  1
  O  O9  1  0.04068400  0.91901400  0.47952200  1
  O  O10  1  0.94417300  0.91104300  0.49799400  1
  O  O11  1  0.11816400  0.93394400  0.61620200  1
  O  O12  1  0.01704300  0.92593800  0.62661200  1
  O  O13  1  0.05737100  0.08645500  0.50198500  1
  O  O14  1  0.96022500  0.07914100  0.51928500  1
  O  O15  1  0.98418200  0.07231100  0.37274900  1
  O  O16  1  0.88306200  0.06353800  0.38306200  1
  O  O17  1  0.95407800  0.62462500  0.41423500  1
  O  O18  1  0.03248000  0.56488500  0.55777000  1
  O  O19  1  0.87758800  0.52381800  0.44129400  1
  O  O20  1  0.95979600  0.46028000  0.58513000  1
  O  O21  1  0.97212000  0.43188100  0.44329300  1
  O  O22  1  0.04831700  0.37192400  0.58723100  1
  O  O23  1  0.04358300  0.53769300  0.41594900  1
  O  O24  1  0.12603800  0.47147700  0.56025800  1
  O  O25  1  0.81355900  0.32984500  0.94035000  1
  O  O26  1  0.85015600  0.16047300  0.05809800  1
  O  O27  1  0.93310700  0.85011300  0.19306400  1
