# generated using pymatgen
data_ZnH10C17INO4
_symmetry_space_group_name_H-M   'P 1'
_cell_length_a   13.42672600
_cell_length_b   8.59445200
_cell_length_c   10.73983300
_cell_angle_alpha   90.00000000
_cell_angle_beta   97.87696900
_cell_angle_gamma   90.00000000
_symmetry_Int_Tables_number   1
_chemical_formula_structural   ZnH10C17INO4
_chemical_formula_sum   'Zn2 H20 C34 I2 N2 O8'
_cell_volume   1227.63330546
_cell_formula_units_Z   2
loop_
 _symmetry_equiv_pos_site_id
 _symmetry_equiv_pos_as_xyz
  1  'x, y, z'
loop_
 _atom_site_type_symbol
 _atom_site_label
 _atom_site_symmetry_multiplicity
 _atom_site_fract_x
 _atom_site_fract_y
 _atom_site_fract_z
 _atom_site_occupancy
  Zn  Zn1  1  0.11075700  0.48316400  0.49587500  1
  Zn  Zn2  1  0.88923200  0.48316300  0.50414400  1
  H  H1  1  0.99403400  0.36376800  0.88357100  1
  H  H2  1  0.88536900  0.70154800  0.99309300  1
  H  H3  1  0.00596900  0.36376500  0.11647000  1
  H  H4  1  0.11466200  0.70165200  0.00692700  1
  H  H5  1  0.10851800  0.25621600  0.06585100  1
  H  H6  1  0.02868900  0.59873300  0.89326200  1
  H  H7  1  0.89145400  0.25626300  0.93414200  1
  H  H8  1  0.97136900  0.59872300  0.10674200  1
  H  H9  1  0.05467400  0.98366700  0.59099900  1
  H  H10  1  0.94529800  0.98361600  0.40901000  1
  H  H11  1  0.54911600  0.65356900  0.73568500  1
  H  H12  1  0.38183400  0.49453600  0.18334600  1
  H  H13  1  0.45079700  0.65355300  0.26428400  1
  H  H14  1  0.61816700  0.49463300  0.81662300  1
  H  H15  1  0.43266700  0.46525600  0.80761400  1
  H  H16  1  0.50946600  0.30898800  0.26930900  1
  H  H17  1  0.56731600  0.46537000  0.19237100  1
  H  H18  1  0.49059300  0.30898700  0.73061700  1
  H  H19  1  0.73152800  0.45652100  0.31189400  1
  H  H20  1  0.26847500  0.45650000  0.68812400  1
  C  C1  1  0.04394000  0.98324900  0.68867200  1
  C  C2  1  0.95604600  0.98321100  0.31133400  1
  C  C3  1  0.03007700  0.12258000  0.74778800  1
  C  C4  1  0.96574500  0.84308000  0.25132100  1
  C  C5  1  0.96990500  0.12255700  0.25223400  1
  C  C6  1  0.03424400  0.84310800  0.74867300  1
  C  C7  1  0.00523000  0.11932700  0.86900300  1
  C  C8  1  0.97548000  0.84357100  0.12446700  1
  C  C9  1  0.99475400  0.11932000  0.13101900  1
  C  C10  1  0.02451400  0.84358800  0.87552700  1
  C  C11  1  0.97386800  0.25989400  0.93304300  1
  C  C12  1  0.96219900  0.70130100  0.04615700  1
  C  C13  1  0.02611100  0.25989000  0.06698100  1
  C  C14  1  0.03783600  0.70132600  0.95383700  1
  C  C15  1  0.00855200  0.98148800  0.93425900  1
  C  C16  1  0.99143200  0.98148500  0.06575200  1
  C  C17  1  0.02215100  0.26422700  0.67052800  1
  C  C18  1  0.97654500  0.70143700  0.32880300  1
  C  C19  1  0.97784300  0.26419400  0.32951500  1
  C  C20  1  0.02344200  0.70145600  0.67120000  1
  C  C21  1  0.69884100  0.46885800  0.39783900  1
  C  C22  1  0.30115300  0.46884400  0.60217000  1
  C  C23  1  0.71896000  0.49663500  0.61723200  1
  C  C24  1  0.28102200  0.49658600  0.38277600  1
  C  C25  1  0.61531500  0.49928100  0.61506300  1
  C  C26  1  0.38466700  0.49923400  0.38493200  1
  C  C27  1  0.55425800  0.48309500  0.50223700  1
  C  C28  1  0.44572800  0.48307600  0.49775300  1
  C  C29  1  0.59571400  0.46594400  0.39347800  1
  C  C30  1  0.40427800  0.46592000  0.60651200  1
  C  C31  1  0.56754900  0.52813100  0.73082000  1
  C  C32  1  0.43242600  0.52808700  0.26916400  1
  C  C33  1  0.47129500  0.43451700  0.72610800  1
  C  C34  1  0.52870900  0.43453900  0.27387100  1
  I  I1  1  0.81429600  0.51119000  0.78997000  1
  I  I2  1  0.18568600  0.51110400  0.21004400  1
  N  N1  1  0.75902100  0.48319600  0.50870900  1
  N  N2  1  0.24096800  0.48319700  0.49130600  1
  O  O1  1  0.93145800  0.31632700  0.63211900  1
  O  O2  1  0.06810500  0.65206600  0.36948100  1
  O  O3  1  0.06853600  0.31630000  0.36792200  1
  O  O4  1  0.93188000  0.65209400  0.63051100  1
  O  O5  1  0.10300800  0.31878000  0.62839200  1
  O  O6  1  0.89636200  0.64514400  0.36993100  1
  O  O7  1  0.89698300  0.31877200  0.37162900  1
  O  O8  1  0.10362800  0.64515200  0.63008300  1
