# generated using pymatgen
data_ZnH21C24NO4
_symmetry_space_group_name_H-M   'P 1'
_cell_length_a   14.01796900
_cell_length_b   15.23076200
_cell_length_c   17.48821600
_cell_angle_alpha   90.00303900
_cell_angle_beta   86.27160500
_cell_angle_gamma   90.00484700
_symmetry_Int_Tables_number   1
_chemical_formula_structural   ZnH21C24NO4
_chemical_formula_sum   'Zn2 H42 C48 N2 O8'
_cell_volume   3725.90760905
_cell_formula_units_Z   2
loop_
 _symmetry_equiv_pos_site_id
 _symmetry_equiv_pos_as_xyz
  1  'x, y, z'
loop_
 _atom_site_type_symbol
 _atom_site_label
 _atom_site_symmetry_multiplicity
 _atom_site_fract_x
 _atom_site_fract_y
 _atom_site_fract_z
 _atom_site_occupancy
  Zn  Zn1  1  0.38955900  0.50374100  0.53409200  1
  Zn  Zn2  1  0.60612200  0.49697100  0.53290200  1
  H  H1  1  0.63262400  0.48861800  0.77563400  1
  H  H2  1  0.36290800  0.51083000  0.29147700  1
  H  H3  1  0.66819200  0.49777200  0.28666500  1
  H  H4  1  0.32749400  0.50409200  0.78020700  1
  H  H5  1  0.60231100  0.52994200  0.02999400  1
  H  H6  1  0.39295100  0.47073500  0.03693300  1
  H  H7  1  0.32001200  0.50007300  0.91933700  1
  H  H8  1  0.67546200  0.50170400  0.14754900  1
  H  H9  1  0.37021000  0.51684000  0.15423500  1
  H  H10  1  0.62508400  0.48259400  0.91292300  1
  H  H11  1  0.35798000  0.93649800  0.58711800  1
  H  H12  1  0.63244700  0.06437100  0.58040400  1
  H  H13  1  0.36354500  0.77791600  0.58584800  1
  H  H14  1  0.62757200  0.22275100  0.57815700  1
  H  H15  1  0.63819000  0.94997400  0.48273500  1
  H  H16  1  0.36117900  0.05044200  0.48871800  1
  H  H17  1  0.92277300  0.61932000  0.59556900  1
  H  H18  1  0.07545300  0.44335100  0.42241700  1
  H  H19  1  0.74995300  0.61239100  0.59601300  1
  H  H20  1  0.24820600  0.44583400  0.42554600  1
  H  H21  1  0.76511200  0.37652300  0.47111500  1
  H  H22  1  0.22764900  0.56401300  0.64326100  1
  H  H23  1  0.93868600  0.37590700  0.47284100  1
  H  H24  1  0.05421400  0.55853400  0.64624200  1
  H  H25  1  0.64428900  0.72313100  0.42249800  1
  H  H26  1  0.70979200  0.73842800  0.50757300  1
  H  H27  1  0.77626000  0.87553000  0.45744000  1
  H  H28  1  0.70228500  0.86990900  0.37539600  1
  H  H29  1  0.78218600  0.73251600  0.33366700  1
  H  H30  1  0.85267500  0.73436500  0.41676500  1
  H  H31  1  0.85284500  0.87568500  0.29119500  1
  H  H32  1  0.94333600  0.79260700  0.30116500  1
  H  H33  1  0.92443600  0.87637600  0.37380800  1
  H  H34  1  0.36064400  0.27649000  0.42696900  1
  H  H35  1  0.28770600  0.26274600  0.51569400  1
  H  H36  1  0.22506300  0.12481500  0.47005500  1
  H  H37  1  0.30580400  0.12977500  0.38390700  1
  H  H38  1  0.22913700  0.26794300  0.34639200  1
  H  H39  1  0.15084700  0.26468700  0.43279400  1
  H  H40  1  0.16366400  0.12483400  0.30575800  1
  H  H41  1  0.07102400  0.20676200  0.32096300  1
  H  H42  1  0.08469800  0.12221600  0.39197200  1
  C  C1  1  0.50251000  0.67269200  0.53347200  1
  C  C2  1  0.49319200  0.32801000  0.53183700  1
  C  C3  1  0.48604500  0.49915500  0.68361100  1
  C  C4  1  0.50968600  0.50151800  0.38339200  1
  C  C5  1  0.48070400  0.49759100  0.76765300  1
  C  C6  1  0.51493800  0.50306100  0.29934900  1
  C  C7  1  0.56334900  0.49207500  0.80639400  1
  C  C8  1  0.43219000  0.50791600  0.26067500  1
  C  C9  1  0.55892600  0.48977500  0.88535100  1
  C  C10  1  0.43648900  0.51021100  0.18172000  1
  C  C11  1  0.47141400  0.49365400  0.92688000  1
  C  C12  1  0.52398600  0.50698000  0.14011300  1
  C  C13  1  0.38895800  0.49790700  0.88789900  1
  C  C14  1  0.60652900  0.50336400  0.17903300  1
  C  C15  1  0.39333000  0.50028900  0.80892300  1
  C  C16  1  0.60228100  0.50101300  0.25800800  1
  C  C17  1  0.46194700  0.49018700  0.01133100  1
  C  C18  1  0.53336100  0.51042400  0.05565100  1
  C  C19  1  0.42150800  0.90400600  0.56290600  1
  C  C20  1  0.57110600  0.09675000  0.55876300  1
  C  C21  1  0.42498800  0.81380300  0.56203300  1
  C  C22  1  0.56801300  0.18691900  0.55731800  1
  C  C23  1  0.50556100  0.76971800  0.53261600  1
  C  C24  1  0.49011000  0.23095100  0.53118200  1
  C  C25  1  0.58417300  0.81814100  0.50192400  1
  C  C26  1  0.41386400  0.18239900  0.50449700  1
  C  C27  1  0.58003000  0.90945600  0.50521900  1
  C  C28  1  0.41750700  0.09108100  0.50826200  1
  C  C29  1  0.49926600  0.95217500  0.53514700  1
  C  C30  1  0.49559600  0.04848600  0.53489200  1
  C  C31  1  0.89027300  0.56377000  0.56902300  1
  C  C32  1  0.10675000  0.46918900  0.47256600  1
  C  C33  1  0.79215900  0.56069300  0.56837400  1
  C  C34  1  0.20491500  0.47189300  0.47364200  1
  C  C35  1  0.80060900  0.42956700  0.49891000  1
  C  C36  1  0.19348000  0.53760000  0.59463500  1
  C  C37  1  0.89907400  0.43001500  0.49920000  1
  C  C38  1  0.09502400  0.53515300  0.59580700  1
  C  C39  1  0.94522300  0.49795600  0.53423300  1
  C  C40  1  0.05033300  0.50068400  0.53425700  1
  C  C41  1  0.66995800  0.77206200  0.46339200  1
  C  C42  1  0.74020200  0.83140000  0.41791600  1
  C  C43  1  0.81598300  0.77551800  0.37536300  1
  C  C44  1  0.88885100  0.83404000  0.33262900  1
  C  C45  1  0.33124300  0.22826200  0.46977700  1
  C  C46  1  0.26441100  0.16862600  0.42830000  1
  C  C47  1  0.19188300  0.22424600  0.38938600  1
  C  C48  1  0.12340400  0.16550500  0.34944300  1
  N  N1  1  0.74878300  0.49458800  0.53317000  1
  N  N2  1  0.24686900  0.50605700  0.53403400  1
  O  O1  1  0.41854300  0.63410000  0.53482000  1
  O  O2  1  0.57705400  0.36661900  0.53212800  1
  O  O3  1  0.58254000  0.62817700  0.53372300  1
  O  O4  1  0.41308600  0.37255700  0.53365700  1
  O  O5  1  0.40643600  0.50252800  0.64828400  1
  O  O6  1  0.58942700  0.49827700  0.41868000  1
  O  O7  1  0.57056300  0.49643400  0.64702700  1
  O  O8  1  0.42506800  0.50400300  0.41995200  1
