# generated using pymatgen
data_ZnH12C19NO5
_symmetry_space_group_name_H-M   'P 1'
_cell_length_a   8.49913800
_cell_length_b   13.10067400
_cell_length_c   13.38773000
_cell_angle_alpha   90.94483500
_cell_angle_beta   90.07248600
_cell_angle_gamma   95.26991200
_symmetry_Int_Tables_number   1
_chemical_formula_structural   ZnH12C19NO5
_chemical_formula_sum   'Zn2 H24 C38 N2 O10'
_cell_volume   1484.14077261
_cell_formula_units_Z   2
loop_
 _symmetry_equiv_pos_site_id
 _symmetry_equiv_pos_as_xyz
  1  'x, y, z'
loop_
 _atom_site_type_symbol
 _atom_site_label
 _atom_site_symmetry_multiplicity
 _atom_site_fract_x
 _atom_site_fract_y
 _atom_site_fract_z
 _atom_site_occupancy
  Zn  Zn1  1  0.50166400  0.50457100  0.88726700  1
  Zn  Zn2  1  0.49912500  0.49616100  0.10969900  1
  H  H1  1  0.99947300  0.42803400  0.97390600  1
  H  H2  1  0.00295200  0.57639300  0.04133700  1
  H  H3  1  0.69721500  0.15977900  0.99927000  1
  H  H4  1  0.30007500  0.83751700  0.96977200  1
  H  H5  1  0.67686300  0.00618700  0.97478300  1
  H  H6  1  0.32177900  0.99118300  0.99671200  1
  H  H7  1  0.55897900  0.65338600  0.24899700  1
  H  H8  1  0.50683600  0.34667200  0.74840500  1
  H  H9  1  0.56218200  0.75178300  0.40270100  1
  H  H10  1  0.64082100  0.30812900  0.52737400  1
  H  H11  1  0.36164300  0.69511700  0.52586900  1
  H  H12  1  0.43612300  0.24445000  0.40713100  1
  H  H13  1  0.47267700  0.24888500  0.59437300  1
  H  H14  1  0.70943500  0.68731600  0.46845500  1
  H  H15  1  0.53228100  0.75749900  0.59035600  1
  H  H16  1  0.29115000  0.31273700  0.47290700  1
  H  H17  1  0.43351400  0.33506700  0.25128000  1
  H  H18  1  0.49821100  0.66733600  0.74704500  1
  H  H19  1  0.55627400  0.91127400  0.11399700  1
  H  H20  1  0.68282600  0.81234500  0.14569000  1
  H  H21  1  0.47681500  0.77918800  0.11675300  1
  H  H22  1  0.44635400  0.09049700  0.12114000  1
  H  H23  1  0.30942400  0.18419800  0.15302000  1
  H  H24  1  0.51518000  0.22357500  0.12874000  1
  C  C1  1  0.11532700  0.29363400  0.98807200  1
  C  C2  1  0.88556400  0.70711900  0.00922000  1
  C  C3  1  0.98460500  0.34642200  0.98147000  1
  C  C4  1  0.01696800  0.65629400  0.02387300  1
  C  C5  1  0.83651300  0.29811900  0.98960100  1
  C  C6  1  0.16423800  0.70280000  0.00618100  1
  C  C7  1  0.81698800  0.19257700  0.99299300  1
  C  C8  1  0.18201800  0.80618800  0.98636500  1
  C  C9  1  0.94826800  0.13475900  0.98851500  1
  C  C10  1  0.05112200  0.86427800  0.98909600  1
  C  C11  1  0.09882100  0.18697800  0.99079100  1
  C  C12  1  0.90112200  0.81245700  0.99511700  1
  C  C13  1  0.93276600  0.02660700  0.98562800  1
  C  C14  1  0.06652100  0.97220400  0.98688000  1
  C  C15  1  0.21373800  0.02697500  0.99175400  1
  C  C16  1  0.78556000  0.97138900  0.98169100  1
  C  C17  1  0.22998000  0.13202700  0.99503200  1
  C  C18  1  0.76951000  0.86679100  0.98975500  1
  C  C19  1  0.73587400  0.64299300  0.00514900  1
  C  C20  1  0.26559600  0.35717100  0.99187300  1
  C  C21  1  0.70392000  0.36224400  0.99357300  1
  C  C22  1  0.29648900  0.63826600  0.00312400  1
  C  C23  1  0.46375300  0.40623000  0.29128500  1
  C  C24  1  0.50121500  0.59563600  0.70628500  1
  C  C25  1  0.53232700  0.58374800  0.29009000  1
  C  C26  1  0.50469200  0.41665300  0.70702300  1
  C  C27  1  0.53456400  0.58762900  0.39306500  1
  C  C28  1  0.50461000  0.41294700  0.60408400  1
  C  C29  1  0.50017000  0.49916600  0.44473200  1
  C  C30  1  0.50171200  0.50219700  0.55264100  1
  C  C31  1  0.46408400  0.40793900  0.39448700  1
  C  C32  1  0.49997800  0.59413700  0.60305000  1
  C  C33  1  0.58218000  0.68488800  0.44920800  1
  C  C34  1  0.51566400  0.31476400  0.54767500  1
  C  C35  1  0.48740500  0.68927700  0.54513800  1
  C  C36  1  0.41774400  0.31386500  0.45257900  1
  C  C37  1  0.58247800  0.83120900  0.09852800  1
  C  C38  1  0.41360600  0.16895100  0.10722600  1
  N  N1  1  0.49768300  0.49372200  0.24069100  1
  N  N2  1  0.50297200  0.50721900  0.75636300  1
  O  O1  1  0.68136400  0.60315700  0.08869300  1
  O  O2  1  0.31937100  0.39756500  0.90822500  1
  O  O3  1  0.67830300  0.61434400  0.91692500  1
  O  O4  1  0.32291800  0.38610000  0.08006100  1
  O  O5  1  0.65958900  0.40145000  0.90966900  1
  O  O6  1  0.34078300  0.59902900  0.08713600  1
  O  O7  1  0.65196400  0.39032800  0.08147200  1
  O  O8  1  0.34943300  0.61073800  0.91549300  1
  O  O9  1  0.62040400  0.81908900  0.99787000  1
  O  O10  1  0.37862000  0.18007200  0.00627600  1
