# generated using pymatgen
data_ZnH6C12NO5
_symmetry_space_group_name_H-M   'P 1'
_cell_length_a   12.48028000
_cell_length_b   8.54580500
_cell_length_c   13.44944100
_cell_angle_alpha   90.00000000
_cell_angle_beta   94.73419500
_cell_angle_gamma   90.00000000
_symmetry_Int_Tables_number   1
_chemical_formula_structural   ZnH6C12NO5
_chemical_formula_sum   'Zn2 H12 C24 N2 O10'
_cell_volume   1429.54334883
_cell_formula_units_Z   2
loop_
 _symmetry_equiv_pos_site_id
 _symmetry_equiv_pos_as_xyz
  1  'x, y, z'
loop_
 _atom_site_type_symbol
 _atom_site_label
 _atom_site_symmetry_multiplicity
 _atom_site_fract_x
 _atom_site_fract_y
 _atom_site_fract_z
 _atom_site_occupancy
  Zn  Zn1  1  0.88079700  0.50789300  0.50119700  1
  Zn  Zn2  1  0.11944500  0.50790700  0.49875200  1
  H  H1  1  0.99760900  0.75790600  0.83676900  1
  H  H2  1  0.00254600  0.25784400  0.16315500  1
  H  H3  1  0.00249800  0.75789800  0.16315100  1
  H  H4  1  0.99765100  0.25784800  0.83676800  1
  H  H5  1  0.04530000  0.00786200  0.57142500  1
  H  H6  1  0.95500200  0.00788100  0.42852900  1
  H  H7  1  0.45635700  0.27858900  0.39374200  1
  H  H8  1  0.57492900  0.31560000  0.32774800  1
  H  H9  1  0.44216900  0.33879700  0.26457800  1
  H  H10  1  0.49680200  0.27570500  0.59777200  1
  H  H11  1  0.43415600  0.33685800  0.70814800  1
  H  H12  1  0.57933400  0.32192900  0.71066300  1
  C  C1  1  0.01801900  0.86814100  0.69690400  1
  C  C2  1  0.98221800  0.14762000  0.30304100  1
  C  C3  1  0.98219400  0.86814400  0.30303600  1
  C  C4  1  0.01803700  0.14761300  0.69689800  1
  C  C5  1  0.00470600  0.86743800  0.79764800  1
  C  C6  1  0.99546900  0.14831400  0.20228300  1
  C  C7  1  0.99544000  0.86743300  0.20227900  1
  C  C8  1  0.00473200  0.14831500  0.79764500  1
  C  C9  1  0.00326800  0.00787600  0.84877700  1
  C  C10  1  0.99688100  0.00787200  0.15114800  1
  C  C11  1  0.64731100  0.50806100  0.48528500  1
  C  C12  1  0.35292800  0.50807900  0.51472100  1
  C  C13  1  0.03112700  0.00787200  0.64908300  1
  C  C14  1  0.96913600  0.00788300  0.35086400  1
  C  C15  1  0.00053600  0.00787200  0.95520800  1
  C  C16  1  0.99958900  0.00787000  0.04471400  1
  C  C17  1  0.46774400  0.50810800  0.53675300  1
  C  C18  1  0.53248800  0.50809600  0.46326200  1
  C  C19  1  0.01198600  0.72598900  0.63646800  1
  C  C20  1  0.98825600  0.28978500  0.36348500  1
  C  C21  1  0.98823900  0.72599300  0.36347900  1
  C  C22  1  0.01200100  0.28977400  0.63645400  1
  C  C23  1  0.49107700  0.35248900  0.33671500  1
  C  C24  1  0.50476800  0.35289400  0.66424900  1
  N  N1  1  0.26025000  0.50794500  0.49990200  1
  N  N2  1  0.73999300  0.50791000  0.50005700  1
  O  O1  1  0.10038500  0.67693400  0.60024700  1
  O  O2  1  0.89984300  0.33885500  0.39969800  1
  O  O3  1  0.89984200  0.67692800  0.39970200  1
  O  O4  1  0.10040900  0.33885900  0.60024400  1
  O  O5  1  0.91628000  0.67106200  0.60703800  1
  O  O6  1  0.08397500  0.34472100  0.39291100  1
  O  O7  1  0.08395200  0.67107900  0.39291200  1
  O  O8  1  0.91628300  0.34470400  0.60703100  1
  O  O9  1  0.48990900  0.50892100  0.36611000  1
  O  O10  1  0.51028900  0.50849400  0.63390400  1
