# generated using pymatgen
data_CuH15C25NO4
_symmetry_space_group_name_H-M   'P 1'
_cell_length_a   9.54821900
_cell_length_b   10.93988400
_cell_length_c   15.79500100
_cell_angle_alpha   90.00380700
_cell_angle_beta   72.88283400
_cell_angle_gamma   89.99978900
_symmetry_Int_Tables_number   1
_chemical_formula_structural   CuH15C25NO4
_chemical_formula_sum   'Cu2 H30 C50 N2 O8'
_cell_volume   1576.80702879
_cell_formula_units_Z   2
loop_
 _symmetry_equiv_pos_site_id
 _symmetry_equiv_pos_as_xyz
  1  'x, y, z'
loop_
 _atom_site_type_symbol
 _atom_site_label
 _atom_site_symmetry_multiplicity
 _atom_site_fract_x
 _atom_site_fract_y
 _atom_site_fract_z
 _atom_site_occupancy
  Cu  Cu1  1  0.14076400  0.49730500  0.49895600  1
  Cu  Cu2  1  0.85923900  0.50266200  0.50105100  1
  H  H1  1  0.80489000  0.41769600  0.07316100  1
  H  H2  1  0.19510500  0.58227400  0.92684200  1
  H  H3  1  0.34852800  0.47973300  0.22659200  1
  H  H4  1  0.65146700  0.52020600  0.77341600  1
  H  H5  1  0.91566100  0.54541500  0.21952300  1
  H  H6  1  0.08434600  0.45456100  0.78049000  1
  H  H7  1  0.99589900  0.42606800  0.93990200  1
  H  H8  1  0.00410800  0.57390100  0.06009800  1
  H  H9  1  0.55821400  0.43685700  0.15609900  1
  H  H10  1  0.44178200  0.56312500  0.84390600  1
  H  H11  1  0.49724000  0.08206600  0.56331900  1
  H  H12  1  0.50275400  0.91791700  0.43670500  1
  H  H13  1  0.25431400  0.20159400  0.37254400  1
  H  H14  1  0.74569200  0.79836500  0.62745900  1
  H  H15  1  0.48901100  0.10863800  0.35817300  1
  H  H16  1  0.51097300  0.89133400  0.64183500  1
  H  H17  1  0.28421000  0.81484600  0.51880100  1
  H  H18  1  0.71579800  0.18512600  0.48120700  1
  H  H19  1  0.51817200  0.21874800  0.72081600  1
  H  H20  1  0.48181100  0.78124500  0.27920800  1
  H  H21  1  0.80553200  0.67342600  0.38898300  1
  H  H22  1  0.19446300  0.32653700  0.61102100  1
  H  H23  1  0.31146900  0.66518100  0.37797900  1
  H  H24  1  0.68853700  0.33477300  0.62201600  1
  H  H25  1  0.71327800  0.86635700  0.22719000  1
  H  H26  1  0.80175100  0.88087500  0.31316400  1
  H  H27  1  0.86036400  0.76409000  0.22923000  1
  H  H28  1  0.28671800  0.13358900  0.77281200  1
  H  H29  1  0.13962800  0.23585900  0.77078600  1
  H  H30  1  0.19824400  0.11910000  0.68683200  1
  C  C1  1  0.99801700  0.26352500  0.48917300  1
  C  C2  1  0.00198700  0.73644300  0.51083100  1
  C  C3  1  0.91997300  0.49444800  0.67051800  1
  C  C4  1  0.08003200  0.50552300  0.32948800  1
  C  C5  1  0.87064300  0.48872800  0.76778700  1
  C  C6  1  0.12936400  0.51123900  0.23221800  1
  C  C7  1  0.91881300  0.44977600  0.90439600  1
  C  C8  1  0.08118900  0.55018800  0.09560700  1
  C  C9  1  0.96889500  0.46516300  0.81420200  1
  C  C10  1  0.03110900  0.53480300  0.18580300  1
  C  C11  1  0.72312200  0.50275400  0.81294800  1
  C  C12  1  0.27688000  0.49720000  0.18705500  1
  C  C13  1  0.67124500  0.49255300  0.90514000  1
  C  C14  1  0.32875300  0.50741400  0.09486200  1
  C  C15  1  0.77183200  0.46281100  0.94934600  1
  C  C16  1  0.22816800  0.53716200  0.05065600  1
  C  C17  1  0.52253100  0.50876200  0.95400300  1
  C  C18  1  0.47746400  0.49121100  0.04599900  1
  C  C19  1  0.58231200  0.45658600  0.08675900  1
  C  C20  1  0.41768200  0.54338400  0.91324300  1
  C  C21  1  0.72670800  0.44410700  0.03905800  1
  C  C22  1  0.27328800  0.55586200  0.96094400  1
  C  C23  1  0.25619200  0.11746600  0.40784200  1
  C  C24  1  0.74380300  0.88249500  0.59216400  1
  C  C25  1  0.38997000  0.06342100  0.39650000  1
  C  C26  1  0.61002200  0.93654300  0.60350900  1
  C  C27  1  0.39747000  0.95546200  0.43847200  1
  C  C28  1  0.60252600  0.04450700  0.56153800  1
  C  C29  1  0.27106100  0.89432900  0.48198200  1
  C  C30  1  0.72893700  0.10563400  0.51802100  1
  C  C31  1  0.13400100  0.94151200  0.48544100  1
  C  C32  1  0.86599600  0.05845300  0.51456500  1
  C  C33  1  0.12828800  0.06263300  0.45984500  1
  C  C34  1  0.87170800  0.93733200  0.54016300  1
  C  C35  1  0.00403400  0.87372800  0.51750600  1
  C  C36  1  0.99596400  0.12623700  0.48249900  1
  C  C37  1  0.69652200  0.65807700  0.38888900  1
  C  C38  1  0.30347000  0.34189200  0.61111700  1
  C  C39  1  0.65722700  0.72840200  0.32811000  1
  C  C40  1  0.34275800  0.27157600  0.67190600  1
  C  C41  1  0.51753100  0.72341000  0.32435800  1
  C  C42  1  0.48245500  0.27657300  0.67565800  1
  C  C43  1  0.41786400  0.65097500  0.38263900  1
  C  C44  1  0.58213700  0.34897900  0.61735800  1
  C  C45  1  0.45463600  0.57211900  0.44278100  1
  C  C46  1  0.54536500  0.42784300  0.55721900  1
  C  C47  1  0.60061000  0.57617100  0.44556300  1
  C  C48  1  0.39938800  0.42379800  0.55444100  1
  C  C49  1  0.76453500  0.81508800  0.27086700  1
  C  C50  1  0.23545800  0.18487300  0.72914000  1
  N  N1  1  0.35291600  0.49470800  0.49665200  1
  N  N2  1  0.64708600  0.50526100  0.50335400  1
  O  O1  1  0.11889500  0.32016300  0.49136200  1
  O  O2  1  0.88110800  0.67980400  0.50864500  1
  O  O3  1  0.87716000  0.32483700  0.49853200  1
  O  O4  1  0.12284300  0.67513000  0.50147400  1
  O  O5  1  0.06026300  0.49682100  0.62803100  1
  O  O6  1  0.93974100  0.50314900  0.37197600  1
  O  O7  1  0.82021100  0.49405400  0.62932600  1
  O  O8  1  0.17979200  0.50591200  0.37068100  1
