# generated using pymatgen
data_ZnH15C25NO5
_symmetry_space_group_name_H-M   'P 1'
_cell_length_a   14.41521800
_cell_length_b   8.54512300
_cell_length_c   19.37678300
_cell_angle_alpha   90.00000000
_cell_angle_beta   91.01863000
_cell_angle_gamma   90.00000000
_symmetry_Int_Tables_number   1
_chemical_formula_structural   ZnH15C25NO5
_chemical_formula_sum   'Zn2 H30 C50 N2 O10'
_cell_volume   2386.45126913
_cell_formula_units_Z   2
loop_
 _symmetry_equiv_pos_site_id
 _symmetry_equiv_pos_as_xyz
  1  'x, y, z'
loop_
 _atom_site_type_symbol
 _atom_site_label
 _atom_site_symmetry_multiplicity
 _atom_site_fract_x
 _atom_site_fract_y
 _atom_site_fract_z
 _atom_site_occupancy
  Zn  Zn1  1  0.89660900  0.50218700  0.49434800  1
  Zn  Zn2  1  0.10339100  0.50218700  0.50565100  1
  H  H1  1  0.96294600  0.00214300  0.54743100  1
  H  H2  1  0.03705300  0.00214300  0.45256900  1
  H  H3  1  0.01821000  0.25314800  0.73137000  1
  H  H4  1  0.99534700  0.75006200  0.26762300  1
  H  H5  1  0.98178900  0.25314800  0.26862900  1
  H  H6  1  0.00465300  0.75006200  0.73237700  1
  H  H7  1  0.93962700  0.77455100  0.04358000  1
  H  H8  1  0.94515500  0.23326200  0.95214100  1
  H  H9  1  0.06037300  0.77455100  0.95642000  1
  H  H10  1  0.05484500  0.23326200  0.04785800  1
  H  H11  1  0.92888600  0.77640800  0.16813900  1
  H  H12  1  0.94493900  0.23140600  0.82759800  1
  H  H13  1  0.07111300  0.77640800  0.83186100  1
  H  H14  1  0.05506100  0.23140600  0.17240200  1
  H  H15  1  0.57541900  0.50951900  0.38726300  1
  H  H16  1  0.42458000  0.50952000  0.61273700  1
  H  H17  1  0.47497200  0.33210800  0.32953100  1
  H  H18  1  0.38467600  0.32679000  0.22155800  1
  H  H19  1  0.13604900  0.55540700  0.12712800  1
  H  H20  1  0.18153900  0.70914600  0.18179700  1
  H  H21  1  0.10881500  0.55599000  0.21762800  1
  H  H22  1  0.20557000  0.68058800  0.30088000  1
  H  H23  1  0.29716400  0.68962600  0.40602900  1
  H  H24  1  0.52502800  0.33210900  0.67046900  1
  H  H25  1  0.61532400  0.32679000  0.77844200  1
  H  H26  1  0.86395100  0.55540700  0.87287200  1
  H  H27  1  0.81846100  0.70914600  0.81820300  1
  H  H28  1  0.89118500  0.55599100  0.78237200  1
  H  H29  1  0.79443000  0.68058800  0.69911900  1
  H  H30  1  0.70283600  0.68962600  0.59397100  1
  C  C1  1  0.99018700  0.14145500  0.63575100  1
  C  C2  1  0.01045400  0.86287400  0.36411300  1
  C  C3  1  0.00981300  0.14145500  0.36424900  1
  C  C4  1  0.98954500  0.86287400  0.63588700  1
  C  C5  1  0.00618400  0.14230100  0.70609200  1
  C  C6  1  0.99794100  0.86173800  0.29338100  1
  C  C7  1  0.99381600  0.14230100  0.29390700  1
  C  C8  1  0.00205900  0.86173800  0.70661800  1
  C  C9  1  0.00648900  0.00238700  0.74284900  1
  C  C10  1  0.99351100  0.00238700  0.25715100  1
  C  C11  1  0.97737300  0.00217800  0.60197200  1
  C  C12  1  0.02262600  0.00217800  0.39802800  1
  C  C13  1  0.96443000  0.87523000  0.07218900  1
  C  C14  1  0.97317000  0.13311300  0.92555900  1
  C  C15  1  0.03557000  0.87523000  0.92781100  1
  C  C16  1  0.02683000  0.13311300  0.07444000  1
  C  C17  1  0.95926400  0.87641600  0.14325100  1
  C  C18  1  0.97449500  0.13224500  0.85447900  1
  C  C19  1  0.04073600  0.87641600  0.85674900  1
  C  C20  1  0.02550500  0.13224500  0.14552100  1
  C  C21  1  0.99109300  0.00427200  0.18087500  1
  C  C22  1  0.00890700  0.00427200  0.81912500  1
  C  C23  1  0.99776800  0.00382500  0.03762900  1
  C  C24  1  0.00223200  0.00382500  0.96237100  1
  C  C25  1  0.99330900  0.72058000  0.59423400  1
  C  C26  1  0.00645800  0.28362000  0.40590700  1
  C  C27  1  0.00669000  0.72058000  0.40576500  1
  C  C28  1  0.99354200  0.28362000  0.59409300  1
  C  C29  1  0.44631400  0.51127200  0.44002000  1
  C  C30  1  0.55368600  0.51127200  0.55998000  1
  C  C31  1  0.40441900  0.51103700  0.50373000  1
  C  C32  1  0.59558100  0.51103700  0.49626900  1
  C  C33  1  0.45809800  0.50960700  0.56329000  1
  C  C34  1  0.54190200  0.50960700  0.43670900  1
  C  C35  1  0.30521200  0.50549600  0.50863500  1
  C  C36  1  0.69478800  0.50549600  0.49136400  1
  C  C37  1  0.39089500  0.50808800  0.37593600  1
  C  C38  1  0.41610300  0.40939200  0.32312200  1
  C  C39  1  0.36494700  0.40556800  0.26240900  1
  C  C40  1  0.28865200  0.50115300  0.25343000  1
  C  C41  1  0.16312900  0.58319500  0.17963800  1
  C  C42  1  0.26393300  0.60202900  0.30601900  1
  C  C43  1  0.31512500  0.60546100  0.36688200  1
  C  C44  1  0.60910500  0.50808800  0.62406400  1
  C  C45  1  0.58389700  0.40939200  0.67687800  1
  C  C46  1  0.63505200  0.40556800  0.73759100  1
  C  C47  1  0.71134800  0.50115300  0.74657000  1
  C  C48  1  0.83687100  0.58319600  0.82036200  1
  C  C49  1  0.73606700  0.60203000  0.69398100  1
  C  C50  1  0.68487500  0.60546100  0.63311800  1
  N  N1  1  0.77489400  0.50229000  0.48868400  1
  N  N2  1  0.22510600  0.50229000  0.51131600  1
  O  O1  1  0.07513800  0.67127100  0.57478600  1
  O  O2  1  0.92472900  0.33321100  0.42518200  1
  O  O3  1  0.92486200  0.67127200  0.42521300  1
  O  O4  1  0.07527100  0.33321100  0.57481800  1
  O  O5  1  0.91521600  0.66595800  0.56827200  1
  O  O6  1  0.08474000  0.33813800  0.43182600  1
  O  O7  1  0.08478400  0.66595800  0.43172800  1
  O  O8  1  0.91525900  0.33813800  0.56817400  1
  O  O9  1  0.24040200  0.49398900  0.19323400  1
  O  O10  1  0.75959700  0.49399000  0.80676500  1
