# generated using pymatgen
data_Zn2H32C58N4O13
_symmetry_space_group_name_H-M   'P 1'
_cell_length_a   12.55347200
_cell_length_b   13.69241200
_cell_length_c   23.42728800
_cell_angle_alpha   90.00707500
_cell_angle_beta   102.19733100
_cell_angle_gamma   86.64297400
_symmetry_Int_Tables_number   1
_chemical_formula_structural   Zn2H32C58N4O13
_chemical_formula_sum   'Zn2 H32 C58 N4 O13'
_cell_volume   3928.88671767
_cell_formula_units_Z   1
loop_
 _symmetry_equiv_pos_site_id
 _symmetry_equiv_pos_as_xyz
  1  'x, y, z'
loop_
 _atom_site_type_symbol
 _atom_site_label
 _atom_site_symmetry_multiplicity
 _atom_site_fract_x
 _atom_site_fract_y
 _atom_site_fract_z
 _atom_site_occupancy
  Zn  Zn1  1  0.38331200  0.47899300  0.48787900  1
  Zn  Zn2  1  0.62458400  0.51920900  0.51433300  1
  H  H1  1  0.60550900  0.72755400  0.06001400  1
  H  H2  1  0.60884800  0.72043900  0.95741300  1
  H  H3  1  0.40317000  0.28104900  0.94260700  1
  H  H4  1  0.39836500  0.28877000  0.04499100  1
  H  H5  1  0.68262000  0.50256500  0.80684700  1
  H  H6  1  0.68319800  0.50121200  0.70309300  1
  H  H7  1  0.33722700  0.47411800  0.66431700  1
  H  H8  1  0.33767400  0.47767300  0.76801700  1
  H  H9  1  0.32388400  0.52136300  0.19480200  1
  H  H10  1  0.32292300  0.52145200  0.29864800  1
  H  H11  1  0.67211600  0.51408900  0.33842200  1
  H  H12  1  0.67163900  0.51584500  0.23456200  1
  H  H13  1  0.74047300  0.22789400  0.47768500  1
  H  H14  1  0.72207000  0.89614600  0.44620300  1
  H  H15  1  0.77811200  0.05637300  0.45944600  1
  H  H16  1  0.43449000  0.16631900  0.51304100  1
  H  H17  1  0.27337500  0.76383500  0.52910400  1
  H  H18  1  0.33678700  0.05993700  0.53079300  1
  H  H19  1  0.22241200  0.93379100  0.54317900  1
  H  H20  1  0.59759800  0.77445800  0.45190300  1
  H  H21  1  0.87802200  0.32559800  0.40664400  1
  H  H22  1  0.05729600  0.28947200  0.39979400  1
  H  H23  1  0.18705000  0.56013200  0.52593500  1
  H  H24  1  0.75092100  0.64984300  0.59226600  1
  H  H25  1  0.07685700  0.62357700  0.57271500  1
  H  H26  1  0.93912300  0.69792400  0.61806300  1
  H  H27  1  0.74602700  0.41316600  0.44881600  1
  H  H28  1  0.22792500  0.40960300  0.34324300  1
  H  H29  1  0.16573200  0.29310700  0.33324900  1
  H  H30  1  0.33894500  0.20538500  0.33505500  1
  H  H31  1  0.31775000  0.30282400  0.28094700  1
  H  H32  1  0.41114400  0.31571400  0.35060600  1
  C  C1  1  0.45194300  0.68758900  0.50086300  1
  C  C2  1  0.50943700  0.48948300  0.61333200  1
  C  C3  1  0.55585300  0.31100600  0.50087500  1
  C  C4  1  0.49808600  0.51044900  0.38882600  1
  C  C5  1  0.46253900  0.43588100  0.11600800  1
  C  C6  1  0.53634300  0.58987000  0.12146600  1
  C  C7  1  0.53878900  0.58690700  0.06270800  1
  C  C8  1  0.50272300  0.50662200  0.03053500  1
  C  C9  1  0.46433900  0.43057800  0.05725200  1
  C  C10  1  0.57684300  0.66358300  0.03587100  1
  C  C11  1  0.57874400  0.65950500  0.97729900  1
  C  C12  1  0.54303000  0.57854100  0.94515100  1
  C  C13  1  0.50514200  0.50233500  0.97195000  1
  C  C14  1  0.46962900  0.42183800  0.93986600  1
  C  C15  1  0.43152400  0.34516500  0.96669100  1
  C  C16  1  0.42872900  0.34958800  0.02513200  1
  C  C17  1  0.54418400  0.57350700  0.88629100  1
  C  C18  1  0.47278300  0.41849600  0.88121500  1
  C  C19  1  0.60656900  0.49669800  0.77554500  1
  C  C20  1  0.60670200  0.49552300  0.71668300  1
  C  C21  1  0.51024600  0.48743800  0.67604600  1
  C  C22  1  0.41391700  0.47989000  0.69504800  1
  C  C23  1  0.41393000  0.48160200  0.75388600  1
  C  C24  1  0.51011600  0.49034000  0.79442800  1
  C  C25  1  0.40042200  0.51972200  0.22640900  1
  C  C26  1  0.40012600  0.51928500  0.28524600  1
  C  C27  1  0.49741100  0.51601600  0.32616300  1
  C  C28  1  0.59481800  0.51657600  0.30747100  1
  C  C29  1  0.59489500  0.51766100  0.24863100  1
  C  C30  1  0.49782500  0.51810100  0.20789000  1
  C  C31  1  0.70274800  0.07892100  0.47235200  1
  C  C32  1  0.58356200  0.20615600  0.49632300  1
  C  C33  1  0.32585300  0.81903800  0.52007000  1
  C  C34  1  0.29716300  0.91502500  0.52867500  1
  C  C35  1  0.36430800  0.98733000  0.52109800  1
  C  C36  1  0.46105200  0.96533500  0.50228000  1
  C  C37  1  0.48829900  0.86741300  0.49161000  1
  C  C38  1  0.53161900  0.03832600  0.49426200  1
  C  C39  1  0.62804600  0.01107400  0.47713600  1
  C  C40  1  0.64977200  0.91604800  0.46276800  1
  C  C41  1  0.57927900  0.84568100  0.46799800  1
  C  C42  1  0.50922400  0.13804500  0.50230100  1
  C  C43  1  0.68172300  0.17587400  0.48293500  1
  C  C44  1  0.42220600  0.79343200  0.50296200  1
  C  C45  1  0.08411000  0.35163500  0.42625700  1
  C  C46  1  0.81142500  0.61533100  0.57096100  1
  C  C47  1  0.91720400  0.64262300  0.58544200  1
  C  C48  1  0.99542300  0.59975200  0.55883200  1
  C  C49  1  0.96746300  0.52834900  0.51708200  1
  C  C50  1  0.85870900  0.50303900  0.50358200  1
  C  C51  1  0.04445000  0.48025300  0.48897900  1
  C  C52  1  0.01083000  0.40551500  0.45103500  1
  C  C53  1  0.90392900  0.38266200  0.43748000  1
  C  C54  1  0.82850000  0.43252900  0.46226500  1
  C  C55  1  0.15435200  0.50226900  0.49776800  1
  C  C56  1  0.19108800  0.37503900  0.43596600  1
  C  C57  1  0.24013800  0.33034000  0.35361700  1
  C  C58  1  0.33323700  0.28586000  0.32837500  1
  N  N1  1  0.49840100  0.51486000  0.14708300  1
  N  N2  1  0.50947100  0.49399100  0.85530700  1
  N  N3  1  0.22458900  0.45060500  0.47098400  1
  N  N4  1  0.78277600  0.54649600  0.53057700  1
  O  O1  1  0.37241600  0.62710600  0.49102200  1
  O  O2  1  0.55560400  0.65699200  0.51247900  1
  O  O3  1  0.41679800  0.47732500  0.57636900  1
  O  O4  1  0.60039100  0.50652400  0.59676300  1
  O  O5  1  0.45264800  0.34118800  0.49099600  1
  O  O6  1  0.63498900  0.37107500  0.51142000  1
  O  O7  1  0.40771800  0.49223800  0.40549900  1
  O  O8  1  0.58999800  0.52292000  0.42585900  1
  O  O9  1  0.42734100  0.36108700  0.14273300  1
  O  O10  1  0.57012200  0.66842600  0.15308500  1
  O  O11  1  0.57747100  0.64920100  0.85944600  1
  O  O12  1  0.44116200  0.33887700  0.85007800  1
  O  O13  1  0.26465800  0.31587100  0.41419900  1
