# generated using pymatgen
data_Zn2H26C35N2O9
_symmetry_space_group_name_H-M   'P 1'
_cell_length_a   8.53393800
_cell_length_b   12.94253700
_cell_length_c   14.19294400
_cell_angle_alpha   90.94842800
_cell_angle_beta   90.08104500
_cell_angle_gamma   95.35509800
_symmetry_Int_Tables_number   1
_chemical_formula_structural   Zn2H26C35N2O9
_chemical_formula_sum   'Zn2 H26 C35 N2 O9'
_cell_volume   1560.55938636
_cell_formula_units_Z   1
loop_
 _symmetry_equiv_pos_site_id
 _symmetry_equiv_pos_as_xyz
  1  'x, y, z'
loop_
 _atom_site_type_symbol
 _atom_site_label
 _atom_site_symmetry_multiplicity
 _atom_site_fract_x
 _atom_site_fract_y
 _atom_site_fract_z
 _atom_site_occupancy
  Zn  Zn1  1  0.56369200  0.50323700  0.88546700  1
  Zn  Zn2  1  0.55513400  0.47631900  0.09368000  1
  H  H1  1  0.62892100  0.16664900  0.00479200  1
  H  H2  1  0.06758300  0.55994200  0.03399700  1
  H  H3  1  0.35565900  0.83574600  0.97592300  1
  H  H4  1  0.24343000  0.99230500  0.96858200  1
  H  H5  1  0.71698300  0.81779800  0.02092500  1
  H  H6  1  0.26899500  0.14936800  0.99289500  1
  H  H7  1  0.04636600  0.41834400  0.94015900  1
  H  H8  1  0.38638400  0.59395300  0.39530500  1
  H  H9  1  0.35151100  0.57376500  0.55330600  1
  H  H10  1  0.54973900  0.33274200  0.56921600  1
  H  H11  1  0.36248200  0.38506400  0.58690900  1
  H  H12  1  0.32495700  0.40525700  0.42952900  1
  H  H13  1  0.47629900  0.31719500  0.41486400  1
  H  H14  1  0.78550000  0.58572400  0.54831900  1
  H  H15  1  0.79915200  0.45159600  0.57876800  1
  H  H16  1  0.80514200  0.52852100  0.39643400  1
  H  H17  1  0.52798400  0.66220300  0.56515400  1
  H  H18  1  0.58901800  0.64680100  0.40965200  1
  H  H19  1  0.75589900  0.39434300  0.42741100  1
  H  H20  1  0.49112100  0.06298400  0.13980100  1
  H  H21  1  0.67743600  0.01213000  0.16378800  1
  H  H22  1  0.35267700  0.88855000  0.15198500  1
  H  H23  1  0.53758200  0.83250000  0.16705600  1
  H  H24  1  0.58828500  0.93579900  0.31448100  1
  H  H25  1  0.40243900  0.85669000  0.31996300  1
  H  H26  1  0.40544700  0.99426300  0.29862600  1
  C  C1  1  0.01325600  0.12512100  0.98446800  1
  C  C2  1  0.87906100  0.17866400  0.98481600  1
  C  C3  1  0.73378200  0.12607400  0.00095900  1
  C  C4  1  0.72002800  0.02049100  0.01335600  1
  C  C5  1  0.85031700  0.96501000  0.00501400  1
  C  C6  1  0.99808000  0.01677400  0.99152900  1
  C  C7  1  0.83237300  0.85768700  0.01071100  1
  C  C8  1  0.96193300  0.80134600  0.00658500  1
  C  C9  1  0.10938600  0.85235000  0.99407700  1
  C  C10  1  0.12674000  0.95846800  0.98373200  1
  C  C11  1  0.94702400  0.69454300  0.01620700  1
  C  C12  1  0.07959100  0.64255700  0.02352700  1
  C  C13  1  0.22608400  0.69259800  0.00859000  1
  C  C14  1  0.24069100  0.79708700  0.99010400  1
  C  C15  1  0.15980000  0.18210700  0.98058800  1
  C  C16  1  0.17043000  0.28668300  0.96385700  1
  C  C17  1  0.03670300  0.33609700  0.95256200  1
  C  C18  1  0.89162700  0.28482100  0.96921600  1
  C  C19  1  0.79676700  0.63127400  0.00798000  1
  C  C20  1  0.75855400  0.34849400  0.97598300  1
  C  C21  1  0.32067100  0.34963300  0.97151800  1
  C  C22  1  0.35967200  0.63019500  0.00282400  1
  C  C23  1  0.47857600  0.58591400  0.53619000  1
  C  C24  1  0.47712100  0.39596300  0.54996900  1
  C  C25  1  0.44952600  0.39338600  0.44449700  1
  C  C26  1  0.56316900  0.49973400  0.57817000  1
  C  C27  1  0.49993300  0.58337900  0.43030000  1
  C  C28  1  0.55583400  0.47979600  0.40097300  1
  C  C29  1  0.72242300  0.47465500  0.43649600  1
  C  C30  1  0.72935100  0.50529900  0.53997600  1
  C  C31  1  0.55216500  0.46961200  0.29814700  1
  C  C32  1  0.56692600  0.50990500  0.68099800  1
  C  C33  1  0.55935200  0.99457400  0.13148900  1
  C  C34  1  0.47415800  0.90230600  0.18009000  1
  C  C35  1  0.46727300  0.92383400  0.28520700  1
  N  N1  1  0.55042200  0.46461900  0.21667500  1
  N  N2  1  0.56867500  0.51489400  0.76247000  1
  O  O1  1  0.73980500  0.58445300  0.08336100  1
  O  O2  1  0.74114500  0.60983400  0.92283800  1
  O  O3  1  0.71724500  0.39525600  0.89978200  1
  O  O4  1  0.70464700  0.36975600  0.06009700  1
  O  O5  1  0.37840000  0.39555500  0.89577800  1
  O  O6  1  0.37766400  0.36978200  0.05643400  1
  O  O7  1  0.40106200  0.58397600  0.07941000  1
  O  O8  1  0.41439500  0.60984100  0.91887100  1
  O  O9  1  0.57646600  0.97162400  0.03584200  1
