# generated using pymatgen
data_CuH13C24N(O2F3)2
_symmetry_space_group_name_H-M   'P 1'
_cell_length_a   24.81788500
_cell_length_b   24.43855900
_cell_length_c   15.89995300
_cell_angle_alpha   90.00000000
_cell_angle_beta   99.74694900
_cell_angle_gamma   90.00000000
_symmetry_Int_Tables_number   1
_chemical_formula_structural   CuH13C24N(O2F3)2
_chemical_formula_sum   'Cu4 H52 C96 N4 O16 F24'
_cell_volume   9504.33002764
_cell_formula_units_Z   4
loop_
 _symmetry_equiv_pos_site_id
 _symmetry_equiv_pos_as_xyz
  1  'x, y, z'
loop_
 _atom_site_type_symbol
 _atom_site_label
 _atom_site_symmetry_multiplicity
 _atom_site_fract_x
 _atom_site_fract_y
 _atom_site_fract_z
 _atom_site_occupancy
  Cu  Cu1  1  0.49185100  0.99119300  0.41451300  1
  Cu  Cu2  1  0.50814900  0.99119300  0.58548700  1
  Cu  Cu3  1  0.99185100  0.49119300  0.41451300  1
  Cu  Cu4  1  0.00814900  0.49119300  0.58548700  1
  H  H1  1  0.38949400  0.86563100  0.62916300  1
  H  H2  1  0.64414900  0.08304700  0.39356900  1
  H  H3  1  0.61050600  0.86563100  0.37083700  1
  H  H4  1  0.35585000  0.08304700  0.60643100  1
  H  H5  1  0.88949300  0.36563100  0.62916300  1
  H  H6  1  0.14414900  0.58304700  0.39357000  1
  H  H7  1  0.11050600  0.36563100  0.37083700  1
  H  H8  1  0.85585000  0.58304700  0.60643100  1
  H  H9  1  0.59046700  0.14762200  0.61451400  1
  H  H10  1  0.37134200  0.86975800  0.35669000  1
  H  H11  1  0.40953300  0.14762200  0.38548600  1
  H  H12  1  0.62865700  0.86975800  0.64331000  1
  H  H13  1  0.09046700  0.64762200  0.61451400  1
  H  H14  1  0.87134200  0.36975800  0.35669000  1
  H  H15  1  0.90953300  0.64762200  0.38548600  1
  H  H16  1  0.12865700  0.36975800  0.64331000  1
  H  H17  1  0.24143700  0.75473800  0.58996700  1
  H  H18  1  0.75546400  0.23022000  0.40656000  1
  H  H19  1  0.75856200  0.75473800  0.41003300  1
  H  H20  1  0.24453500  0.23021900  0.59344000  1
  H  H21  1  0.74143700  0.25473800  0.58996700  1
  H  H22  1  0.25546500  0.73022000  0.40656000  1
  H  H23  1  0.25856200  0.25473800  0.41003300  1
  H  H24  1  0.74453500  0.73022000  0.59344000  1
  H  H25  1  0.30301600  0.79893900  0.34675400  1
  H  H26  1  0.66098800  0.21740300  0.62657700  1
  H  H27  1  0.69698400  0.79893900  0.65324600  1
  H  H28  1  0.33901200  0.21740300  0.37342300  1
  H  H29  1  0.80301600  0.29894000  0.34675400  1
  H  H30  1  0.16098800  0.71740300  0.62657700  1
  H  H31  1  0.19698300  0.29893900  0.65324600  1
  H  H32  1  0.83901200  0.71740300  0.37342300  1
  H  H33  1  0.71486200  0.15178800  0.40516400  1
  H  H34  1  0.32195100  0.79365200  0.61915000  1
  H  H35  1  0.28513800  0.15178800  0.59483600  1
  H  H36  1  0.67804900  0.79365200  0.38085000  1
  H  H37  1  0.21486200  0.65178800  0.40516400  1
  H  H38  1  0.82195000  0.29365300  0.61915000  1
  H  H39  1  0.78513800  0.65178900  0.59483600  1
  H  H40  1  0.17804900  0.29365200  0.38085000  1
  H  H41  1  0.43979600  0.96307600  0.70685900  1
  H  H42  1  0.56020400  0.96307600  0.29314100  1
  H  H43  1  0.93979600  0.46307600  0.70685900  1
  H  H44  1  0.06020400  0.46307500  0.29314100  1
  H  H45  1  0.43803700  0.99474400  0.97708600  1
  H  H46  1  0.56196200  0.99474500  0.02291400  1
  H  H47  1  0.93803700  0.49474500  0.97708600  1
  H  H48  1  0.06196200  0.49474400  0.02291400  1
  H  H49  1  0.55646300  0.95479000  0.14433500  1
  H  H50  1  0.44353600  0.95479000  0.85566500  1
  H  H51  1  0.05646300  0.45479000  0.14433500  1
  H  H52  1  0.94353600  0.45479000  0.85566500  1
  C  C1  1  0.42724200  0.06606100  0.49869200  1
  C  C2  1  0.57314800  0.91641200  0.50187400  1
  C  C3  1  0.57275700  0.06606100  0.50130800  1
  C  C4  1  0.42685100  0.91641200  0.49812600  1
  C  C5  1  0.92724200  0.56606100  0.49869200  1
  C  C6  1  0.07314800  0.41641200  0.50187400  1
  C  C7  1  0.07275800  0.56606100  0.50130800  1
  C  C8  1  0.92685100  0.41641200  0.49812600  1
  C  C9  1  0.38515300  0.87345500  0.49388800  1
  C  C10  1  0.61302400  0.11005900  0.50395300  1
  C  C11  1  0.61484600  0.87345600  0.50611200  1
  C  C12  1  0.38697600  0.11005900  0.49604700  1
  C  C13  1  0.88515300  0.37345600  0.49388800  1
  C  C14  1  0.11302400  0.61005900  0.50395300  1
  C  C15  1  0.11484600  0.37345500  0.50611200  1
  C  C16  1  0.88697600  0.61005900  0.49604700  1
  C  C17  1  0.37037700  0.85153900  0.56679200  1
  C  C18  1  0.64719600  0.11301600  0.44415000  1
  C  C19  1  0.62962300  0.85154000  0.43320900  1
  C  C20  1  0.35280300  0.11301600  0.55585000  1
  C  C21  1  0.87037700  0.35154000  0.56679200  1
  C  C22  1  0.14719600  0.61301600  0.44415000  1
  C  C23  1  0.12962300  0.35153900  0.43320900  1
  C  C24  1  0.85280400  0.61301600  0.55585000  1
  C  C25  1  0.33125600  0.81075200  0.56073500  1
  C  C26  1  0.68739400  0.15266800  0.45090400  1
  C  C27  1  0.66874300  0.81075200  0.43926500  1
  C  C28  1  0.31260600  0.15266800  0.54909600  1
  C  C29  1  0.83125600  0.31075200  0.56073500  1
  C  C30  1  0.18739400  0.65266800  0.45090400  1
  C  C31  1  0.16874300  0.31075200  0.43926500  1
  C  C32  1  0.81260600  0.65266800  0.54909600  1
  C  C33  1  0.30616900  0.79178500  0.48136700  1
  C  C34  1  0.69289800  0.19069800  0.51678600  1
  C  C35  1  0.69383000  0.79178500  0.51863400  1
  C  C36  1  0.30710100  0.19069800  0.48321500  1
  C  C37  1  0.80616900  0.29178500  0.48136700  1
  C  C38  1  0.19289800  0.69069800  0.51678600  1
  C  C39  1  0.19383000  0.29178500  0.51863300  1
  C  C40  1  0.80710200  0.69069800  0.48321500  1
  C  C41  1  0.32167300  0.81345700  0.40912000  1
  C  C42  1  0.65763300  0.18809200  0.57505000  1
  C  C43  1  0.67832600  0.81345700  0.59088000  1
  C  C44  1  0.34236600  0.18809200  0.42495000  1
  C  C45  1  0.82167300  0.31345700  0.40912000  1
  C  C46  1  0.15763300  0.68809200  0.57505000  1
  C  C47  1  0.17832600  0.31345700  0.59088000  1
  C  C48  1  0.84236700  0.68809200  0.42495000  1
  C  C49  1  0.36059400  0.85392700  0.41507500  1
  C  C50  1  0.61796200  0.14826000  0.56861900  1
  C  C51  1  0.63940600  0.85392700  0.58492500  1
  C  C52  1  0.38203700  0.14826000  0.43138100  1
  C  C53  1  0.86059400  0.35392700  0.41507500  1
  C  C54  1  0.11796200  0.64826000  0.56861900  1
  C  C55  1  0.13940500  0.35392700  0.58492500  1
  C  C56  1  0.88203700  0.64826000  0.43138100  1
  C  C57  1  0.26453900  0.74811100  0.46947300  1
  C  C58  1  0.73575700  0.23325100  0.52970900  1
  C  C59  1  0.73546100  0.74811100  0.53052700  1
  C  C60  1  0.26424200  0.23325100  0.47029200  1
  C  C61  1  0.76453900  0.24811200  0.46947300  1
  C  C62  1  0.23575700  0.73325100  0.52970900  1
  C  C63  1  0.23546100  0.24811100  0.53052700  1
  C  C64  1  0.76424300  0.73325100  0.47029200  1
  C  C65  1  0.47683000  0.97612400  0.74691700  1
  C  C66  1  0.52317000  0.97612400  0.25308300  1
  C  C67  1  0.97683000  0.47612400  0.74691700  1
  C  C68  1  0.02317000  0.47612400  0.25308300  1
  C  C69  1  0.47780200  0.97361500  0.83330000  1
  C  C70  1  0.52219700  0.97361500  0.16670000  1
  C  C71  1  0.97780200  0.47361500  0.83330000  1
  C  C72  1  0.02219700  0.47361500  0.16670000  1
  C  C73  1  0.52060000  0.99607300  0.88864500  1
  C  C74  1  0.47940000  0.99607300  0.11135500  1
  C  C75  1  0.02060000  0.49607300  0.88864500  1
  C  C76  1  0.97940000  0.49607300  0.11135500  1
  C  C77  1  0.56258200  0.02052200  0.85458200  1
  C  C78  1  0.43741700  0.02052200  0.14541800  1
  C  C79  1  0.06258200  0.52052200  0.85458200  1
  C  C80  1  0.93741700  0.52052200  0.14541800  1
  C  C81  1  0.56574300  0.01165800  0.76790400  1
  C  C82  1  0.43425600  0.01165800  0.23209700  1
  C  C83  1  0.06574300  0.51165800  0.76790400  1
  C  C84  1  0.93425600  0.51165800  0.23209700  1
  C  C85  1  0.52253300  0.99301500  0.98217300  1
  C  C86  1  0.47746600  0.99301500  0.01782700  1
  C  C87  1  0.02253300  0.49301500  0.98217300  1
  C  C88  1  0.97746700  0.49301500  0.01782700  1
  C  C89  1  0.37900900  0.01795700  0.25931600  1
  C  C90  1  0.62099100  0.01795700  0.74068500  1
  C  C91  1  0.87900900  0.51795700  0.25931600  1
  C  C92  1  0.12099100  0.51795700  0.74068500  1
  C  C93  1  0.60125700  0.05844200  0.91167200  1
  C  C94  1  0.39874200  0.05844100  0.08832800  1
  C  C95  1  0.10125700  0.55844100  0.91167200  1
  C  C96  1  0.89874200  0.55844200  0.08832800  1
  N  N1  1  0.52119200  0.99130100  0.71366000  1
  N  N2  1  0.47880800  0.99130100  0.28634100  1
  N  N3  1  0.02119200  0.49130100  0.71366000  1
  N  N4  1  0.97880800  0.49130200  0.28634100  1
  O  O1  1  0.43969600  0.04934900  0.42615000  1
  O  O2  1  0.56114100  0.93387700  0.57399800  1
  O  O3  1  0.56030300  0.04934900  0.57385000  1
  O  O4  1  0.43885900  0.93387700  0.42600300  1
  O  O5  1  0.93969700  0.54934900  0.42615000  1
  O  O6  1  0.06114100  0.43387700  0.57399800  1
  O  O7  1  0.06030300  0.54934900  0.57385000  1
  O  O8  1  0.93885800  0.43387700  0.42600300  1
  O  O9  1  0.44972400  0.04569000  0.57262000  1
  O  O10  1  0.54942400  0.93570400  0.42782300  1
  O  O11  1  0.55027600  0.04569000  0.42738100  1
  O  O12  1  0.45057600  0.93570400  0.57217800  1
  O  O13  1  0.94972400  0.54569000  0.57262000  1
  O  O14  1  0.04942400  0.43570400  0.42782300  1
  O  O15  1  0.05027600  0.54569000  0.42738100  1
  O  O16  1  0.95057500  0.43570400  0.57217800  1
  F  F1  1  0.37317400  0.98342500  0.32491400  1
  F  F2  1  0.33792200  0.00408100  0.19275900  1
  F  F3  1  0.37115200  0.07102800  0.28418000  1
  F  F4  1  0.62682500  0.98342600  0.67508600  1
  F  F5  1  0.66207700  0.00408100  0.80724200  1
  F  F6  1  0.62884800  0.07102800  0.71582000  1
  F  F7  1  0.87317400  0.48342600  0.32491400  1
  F  F8  1  0.83792300  0.50408200  0.19275900  1
  F  F9  1  0.87115200  0.57102800  0.28418000  1
  F  F10  1  0.12682500  0.48342500  0.67508600  1
  F  F11  1  0.16207700  0.50408100  0.80724200  1
  F  F12  1  0.12884800  0.57102700  0.71582000  1
  F  F13  1  0.57249200  0.08883400  0.96264400  1
  F  F14  1  0.62593200  0.09598200  0.86576400  1
  F  F15  1  0.64119900  0.02833800  0.96289900  1
  F  F16  1  0.42750800  0.08883400  0.03735600  1
  F  F17  1  0.37406700  0.09598200  0.13423600  1
  F  F18  1  0.35880100  0.02833700  0.03710100  1
  F  F19  1  0.07249200  0.58883400  0.96264400  1
  F  F20  1  0.12593200  0.59598200  0.86576400  1
  F  F21  1  0.14119900  0.52833700  0.96289900  1
  F  F22  1  0.92750800  0.58883400  0.03735600  1
  F  F23  1  0.87406700  0.59598200  0.13423600  1
  F  F24  1  0.85880100  0.52833800  0.03710100  1
