# generated using pymatgen
data_Cu3H20C34(NO3)4
_symmetry_space_group_name_H-M   'P 1'
_cell_length_a   30.01386500
_cell_length_b   30.01386500
_cell_length_c   23.50674700
_cell_angle_alpha   90.00000000
_cell_angle_beta   90.00000000
_cell_angle_gamma   90.00000000
_symmetry_Int_Tables_number   1
_chemical_formula_structural   Cu3H20C34(NO3)4
_chemical_formula_sum   'Cu12 H80 C136 N16 O48'
_cell_volume   21175.63208172
_cell_formula_units_Z   4
loop_
 _symmetry_equiv_pos_site_id
 _symmetry_equiv_pos_as_xyz
  1  'x, y, z'
loop_
 _atom_site_type_symbol
 _atom_site_label
 _atom_site_symmetry_multiplicity
 _atom_site_fract_x
 _atom_site_fract_y
 _atom_site_fract_z
 _atom_site_occupancy
  Cu  Cu1  1  0.50000000  0.04355500  0.50000000  1
  Cu  Cu2  1  0.95644500  0.50000000  0.50000000  1
  Cu  Cu3  1  0.50000000  0.95644500  0.50000000  1
  Cu  Cu4  1  0.04355500  0.50000000  0.50000000  1
  Cu  Cu5  1  0.00000000  0.54355500  0.00000000  1
  Cu  Cu6  1  0.45644500  0.00000000  0.00000000  1
  Cu  Cu7  1  0.00000000  0.45644500  0.00000000  1
  Cu  Cu8  1  0.54355500  0.00000000  0.00000000  1
  Cu  Cu9  1  0.00000000  0.00000000  0.55561400  1
  Cu  Cu10  1  0.00000000  0.00000000  0.44438600  1
  Cu  Cu11  1  0.50000000  0.50000000  0.05561400  1
  Cu  Cu12  1  0.50000000  0.50000000  0.94438600  1
  H  H1  1  0.72041900  0.92966200  0.48835900  1
  H  H2  1  0.07033800  0.72041900  0.48835900  1
  H  H3  1  0.27958100  0.07033800  0.48835900  1
  H  H4  1  0.92966200  0.27958100  0.48835900  1
  H  H5  1  0.27958100  0.92966200  0.51164100  1
  H  H6  1  0.92966200  0.72041900  0.51164100  1
  H  H7  1  0.72041900  0.07033800  0.51164100  1
  H  H8  1  0.07033800  0.27958100  0.51164100  1
  H  H9  1  0.22041900  0.42966200  0.98835900  1
  H  H10  1  0.57033800  0.22041900  0.98835900  1
  H  H11  1  0.77958100  0.57033800  0.98835900  1
  H  H12  1  0.42966200  0.77958100  0.98835900  1
  H  H13  1  0.77958100  0.42966200  0.01164100  1
  H  H14  1  0.42966200  0.22041900  0.01164100  1
  H  H15  1  0.22041900  0.57033800  0.01164100  1
  H  H16  1  0.57033800  0.77958100  0.01164100  1
  H  H17  1  0.63920700  0.92932100  0.48759500  1
  H  H18  1  0.07067900  0.63920600  0.48759400  1
  H  H19  1  0.36079400  0.07067900  0.48759500  1
  H  H20  1  0.92932100  0.36079300  0.48759500  1
  H  H21  1  0.36079300  0.92932100  0.51240500  1
  H  H22  1  0.92932100  0.63920600  0.51240500  1
  H  H23  1  0.63920700  0.07067900  0.51240600  1
  H  H24  1  0.07067900  0.36079300  0.51240500  1
  H  H25  1  0.13920700  0.42932100  0.98759500  1
  H  H26  1  0.57067900  0.13920700  0.98759400  1
  H  H27  1  0.86079400  0.57067800  0.98759500  1
  H  H28  1  0.42932100  0.86079400  0.98759400  1
  H  H29  1  0.86079400  0.42932100  0.01240500  1
  H  H30  1  0.42932100  0.13920700  0.01240500  1
  H  H31  1  0.13920700  0.57067900  0.01240500  1
  H  H32  1  0.57067900  0.86079400  0.01240500  1
  H  H33  1  0.86087800  0.00903100  0.59021500  1
  H  H34  1  0.99096900  0.86087800  0.59021600  1
  H  H35  1  0.13912200  0.99096900  0.59021500  1
  H  H36  1  0.00903100  0.13912200  0.59021500  1
  H  H37  1  0.13912200  0.00903100  0.40978400  1
  H  H38  1  0.00903100  0.86087800  0.40978400  1
  H  H39  1  0.86087800  0.99096900  0.40978400  1
  H  H40  1  0.99096900  0.13912200  0.40978400  1
  H  H41  1  0.36087800  0.50903100  0.09021600  1
  H  H42  1  0.49096900  0.36087800  0.09021600  1
  H  H43  1  0.63912200  0.49096900  0.09021500  1
  H  H44  1  0.50903100  0.63912200  0.09021500  1
  H  H45  1  0.63912200  0.50903100  0.90978400  1
  H  H46  1  0.50903100  0.36087800  0.90978400  1
  H  H47  1  0.36087800  0.49096900  0.90978400  1
  H  H48  1  0.49096900  0.63912200  0.90978400  1
  H  H49  1  0.75575000  0.03820500  0.60304300  1
  H  H50  1  0.75400300  0.98158500  0.60860100  1
  H  H51  1  0.96179500  0.75574900  0.60304300  1
  H  H52  1  0.01841500  0.75400300  0.60860100  1
  H  H53  1  0.24425100  0.96179500  0.60304300  1
  H  H54  1  0.24599700  0.01841500  0.60860100  1
  H  H55  1  0.03820500  0.24425000  0.60304300  1
  H  H56  1  0.98158500  0.24599700  0.60860100  1
  H  H57  1  0.24425000  0.03820500  0.39695700  1
  H  H58  1  0.24599700  0.98158500  0.39139900  1
  H  H59  1  0.03820500  0.75574900  0.39695700  1
  H  H60  1  0.98158500  0.75400300  0.39139900  1
  H  H61  1  0.75575000  0.96179500  0.39695700  1
  H  H62  1  0.75400300  0.01841500  0.39139900  1
  H  H63  1  0.96179500  0.24425000  0.39695700  1
  H  H64  1  0.01841500  0.24599700  0.39139900  1
  H  H65  1  0.25575000  0.53820500  0.10304300  1
  H  H66  1  0.25400300  0.48158500  0.10860000  1
  H  H67  1  0.46179500  0.25574900  0.10304300  1
  H  H68  1  0.51841500  0.25400300  0.10860100  1
  H  H69  1  0.74425100  0.46179500  0.10304300  1
  H  H70  1  0.74599700  0.51841500  0.10860100  1
  H  H71  1  0.53820500  0.74425000  0.10304300  1
  H  H72  1  0.48158500  0.74599700  0.10860100  1
  H  H73  1  0.74425100  0.53820500  0.89695700  1
  H  H74  1  0.74599700  0.48158500  0.89139900  1
  H  H75  1  0.53820500  0.25574900  0.89695700  1
  H  H76  1  0.48158500  0.25400300  0.89139900  1
  H  H77  1  0.25575000  0.46179500  0.89695700  1
  H  H78  1  0.25400300  0.51841500  0.89139900  1
  H  H79  1  0.46179500  0.74425000  0.89695700  1
  H  H80  1  0.51841500  0.74599700  0.89139900  1
  C  C1  1  0.58450200  0.00000000  0.50000000  1
  C  C2  1  0.00000000  0.58450200  0.50000000  1
  C  C3  1  0.41549800  0.00000000  0.50000000  1
  C  C4  1  0.00000000  0.41549800  0.50000000  1
  C  C5  1  0.08450200  0.50000000  0.00000000  1
  C  C6  1  0.50000000  0.08450200  0.00000000  1
  C  C7  1  0.91549800  0.50000000  0.00000000  1
  C  C8  1  0.50000000  0.91549800  0.00000000  1
  C  C9  1  0.50000000  0.00000000  0.60770600  1
  C  C10  1  0.00000000  0.50000000  0.60770600  1
  C  C11  1  0.50000000  0.00000000  0.39229400  1
  C  C12  1  0.00000000  0.50000000  0.39229400  1
  C  C13  1  0.00000000  0.50000000  0.10770600  1
  C  C14  1  0.50000000  0.00000000  0.10770600  1
  C  C15  1  0.00000000  0.50000000  0.89229400  1
  C  C16  1  0.50000000  0.00000000  0.89229400  1
  C  C17  1  0.50000000  0.00000000  0.66872100  1
  C  C18  1  0.00000000  0.50000000  0.66872100  1
  C  C19  1  0.50000000  0.00000000  0.33127900  1
  C  C20  1  0.00000000  0.50000000  0.33127900  1
  C  C21  1  0.00000000  0.50000000  0.16872100  1
  C  C22  1  0.50000000  0.00000000  0.16872100  1
  C  C23  1  0.00000000  0.50000000  0.83127900  1
  C  C24  1  0.50000000  0.00000000  0.83127900  1
  C  C25  1  0.50000000  0.00000000  0.71997300  1
  C  C26  1  0.00000000  0.50000000  0.71997300  1
  C  C27  1  0.50000000  0.00000000  0.28002700  1
  C  C28  1  0.00000000  0.50000000  0.28002700  1
  C  C29  1  0.00000000  0.50000000  0.21997300  1
  C  C30  1  0.50000000  0.00000000  0.21997300  1
  C  C31  1  0.00000000  0.50000000  0.78002700  1
  C  C32  1  0.50000000  0.00000000  0.78002700  1
  C  C33  1  0.70244800  0.96062700  0.49331000  1
  C  C34  1  0.03937300  0.70244800  0.49331000  1
  C  C35  1  0.29755200  0.03937300  0.49331000  1
  C  C36  1  0.96062700  0.29755200  0.49331000  1
  C  C37  1  0.29755200  0.96062700  0.50669000  1
  C  C38  1  0.96062700  0.70244800  0.50669000  1
  C  C39  1  0.70244800  0.03937300  0.50669000  1
  C  C40  1  0.03937300  0.29755200  0.50669000  1
  C  C41  1  0.20244800  0.46062700  0.99331000  1
  C  C42  1  0.53937300  0.20244800  0.99331000  1
  C  C43  1  0.79755200  0.53937300  0.99331000  1
  C  C44  1  0.46062700  0.79755200  0.99331000  1
  C  C45  1  0.79755200  0.46062700  0.00669000  1
  C  C46  1  0.46062700  0.20244800  0.00669000  1
  C  C47  1  0.20244800  0.53937300  0.00669000  1
  C  C48  1  0.53937300  0.79755200  0.00669000  1
  C  C49  1  0.65653700  0.96059600  0.49288800  1
  C  C50  1  0.03940400  0.65653700  0.49288800  1
  C  C51  1  0.34346300  0.03940400  0.49288800  1
  C  C52  1  0.96059600  0.34346300  0.49288800  1
  C  C53  1  0.34346300  0.96059600  0.50711200  1
  C  C54  1  0.96059600  0.65653700  0.50711200  1
  C  C55  1  0.65653700  0.03940400  0.50711200  1
  C  C56  1  0.03940400  0.34346300  0.50711200  1
  C  C57  1  0.15653700  0.46059600  0.99288800  1
  C  C58  1  0.53940400  0.15653700  0.99288800  1
  C  C59  1  0.84346300  0.53940400  0.99288800  1
  C  C60  1  0.46059600  0.84346300  0.99288800  1
  C  C61  1  0.84346300  0.46059600  0.00711200  1
  C  C62  1  0.46059600  0.15653700  0.00711200  1
  C  C63  1  0.15653700  0.53940400  0.00711200  1
  C  C64  1  0.53940400  0.84346300  0.00711200  1
  C  C65  1  0.63332000  0.00000000  0.50000000  1
  C  C66  1  0.00000000  0.63332000  0.50000000  1
  C  C67  1  0.36668000  0.00000000  0.50000000  1
  C  C68  1  0.00000000  0.36668000  0.50000000  1
  C  C69  1  0.13332000  0.50000000  0.00000000  1
  C  C70  1  0.50000000  0.13332000  0.00000000  1
  C  C71  1  0.86668000  0.50000000  0.00000000  1
  C  C72  1  0.50000000  0.86668000  0.00000000  1
  C  C73  1  0.72549600  0.00000000  0.50000000  1
  C  C74  1  0.00000000  0.72549500  0.50000000  1
  C  C75  1  0.27450500  0.00000000  0.50000000  1
  C  C76  1  0.00000000  0.27450400  0.50000000  1
  C  C77  1  0.22549600  0.50000000  0.00000000  1
  C  C78  1  0.50000000  0.22549500  0.00000000  1
  C  C79  1  0.77450500  0.50000000  0.00000000  1
  C  C80  1  0.50000000  0.77450400  0.00000000  1
  C  C81  1  0.79757000  0.00512100  0.55051000  1
  C  C82  1  0.99487900  0.79757000  0.55051000  1
  C  C83  1  0.20243000  0.99487900  0.55051000  1
  C  C84  1  0.00512100  0.20243000  0.55051000  1
  C  C85  1  0.20243000  0.00512100  0.44949000  1
  C  C86  1  0.00512100  0.79757000  0.44949000  1
  C  C87  1  0.79757000  0.99487900  0.44949000  1
  C  C88  1  0.99487900  0.20243000  0.44949000  1
  C  C89  1  0.29757000  0.50512100  0.05051000  1
  C  C90  1  0.49487900  0.29757000  0.05051000  1
  C  C91  1  0.70243000  0.49487900  0.05051000  1
  C  C92  1  0.50512100  0.70243000  0.05051000  1
  C  C93  1  0.70243000  0.50512100  0.94949000  1
  C  C94  1  0.50512100  0.29757000  0.94949000  1
  C  C95  1  0.29757000  0.49487900  0.94949000  1
  C  C96  1  0.49487900  0.70243000  0.94949000  1
  C  C97  1  0.84348300  0.00528200  0.55026700  1
  C  C98  1  0.99471800  0.84348300  0.55026700  1
  C  C99  1  0.15651700  0.99471800  0.55026700  1
  C  C100  1  0.00528200  0.15651700  0.55026700  1
  C  C101  1  0.15651700  0.00528200  0.44973300  1
  C  C102  1  0.00528200  0.84348300  0.44973300  1
  C  C103  1  0.84348300  0.99471800  0.44973300  1
  C  C104  1  0.99471800  0.15651700  0.44973300  1
  C  C105  1  0.34348300  0.50528200  0.05026700  1
  C  C106  1  0.49471800  0.34348300  0.05026700  1
  C  C107  1  0.65651700  0.49471800  0.05026700  1
  C  C108  1  0.50528200  0.65651700  0.05026700  1
  C  C109  1  0.65651700  0.50528200  0.94973300  1
  C  C110  1  0.50528200  0.34348300  0.94973300  1
  C  C111  1  0.34348300  0.49471800  0.94973300  1
  C  C112  1  0.49471800  0.65651700  0.94973300  1
  C  C113  1  0.86667600  0.00000000  0.50000000  1
  C  C114  1  0.00000000  0.86667600  0.50000000  1
  C  C115  1  0.13332400  0.00000000  0.50000000  1
  C  C116  1  0.00000000  0.13332400  0.50000000  1
  C  C117  1  0.36667600  0.50000000  0.00000000  1
  C  C118  1  0.50000000  0.36667600  0.00000000  1
  C  C119  1  0.63332400  0.50000000  0.00000000  1
  C  C120  1  0.50000000  0.63332400  0.00000000  1
  C  C121  1  0.77427400  0.00000000  0.50000000  1
  C  C122  1  0.00000000  0.77427400  0.50000000  1
  C  C123  1  0.22572600  0.00000000  0.50000000  1
  C  C124  1  0.00000000  0.22572600  0.50000000  1
  C  C125  1  0.27427400  0.50000000  0.00000000  1
  C  C126  1  0.50000000  0.27427400  0.00000000  1
  C  C127  1  0.72572600  0.50000000  0.00000000  1
  C  C128  1  0.50000000  0.72572600  0.00000000  1
  C  C129  1  0.00000000  0.91549200  0.50000000  1
  C  C130  1  0.08450800  0.00000000  0.50000000  1
  C  C131  1  0.00000000  0.08450700  0.50000000  1
  C  C132  1  0.91549200  0.00000000  0.50000000  1
  C  C133  1  0.50000000  0.41549200  0.00000000  1
  C  C134  1  0.58450800  0.50000000  0.00000000  1
  C  C135  1  0.50000000  0.58450700  0.00000000  1
  C  C136  1  0.41549200  0.50000000  0.00000000  1
  N  N1  1  0.77484100  0.00915800  0.60353000  1
  N  N2  1  0.99084200  0.77484000  0.60353000  1
  N  N3  1  0.22516000  0.99084200  0.60353000  1
  N  N4  1  0.00915800  0.22515900  0.60353000  1
  N  N5  1  0.22516000  0.00915800  0.39647000  1
  N  N6  1  0.00915800  0.77484000  0.39647000  1
  N  N7  1  0.77484100  0.99084200  0.39647000  1
  N  N8  1  0.99084200  0.22515900  0.39647000  1
  N  N9  1  0.27484100  0.50915800  0.10353000  1
  N  N10  1  0.49084200  0.27484000  0.10353000  1
  N  N11  1  0.72516000  0.49084200  0.10353000  1
  N  N12  1  0.50915800  0.72515900  0.10353000  1
  N  N13  1  0.72516000  0.50915800  0.89647000  1
  N  N14  1  0.50915800  0.27484000  0.89647000  1
  N  N15  1  0.27484100  0.49084200  0.89647000  1
  N  N16  1  0.49084200  0.72515900  0.89647000  1
  O  O1  1  0.56357600  0.03677500  0.51552300  1
  O  O2  1  0.96322500  0.56357600  0.51552300  1
  O  O3  1  0.43642400  0.96322500  0.51552300  1
  O  O4  1  0.03677500  0.43642400  0.51552300  1
  O  O5  1  0.43642400  0.03677500  0.48447700  1
  O  O6  1  0.03677500  0.56357600  0.48447700  1
  O  O7  1  0.56357600  0.96322500  0.48447700  1
  O  O8  1  0.96322500  0.43642400  0.48447700  1
  O  O9  1  0.06357600  0.53677500  0.01552300  1
  O  O10  1  0.46322500  0.06357600  0.01552300  1
  O  O11  1  0.93642400  0.46322500  0.01552300  1
  O  O12  1  0.53677500  0.93642400  0.01552300  1
  O  O13  1  0.93642400  0.53677500  0.98447700  1
  O  O14  1  0.53677500  0.06357600  0.98447700  1
  O  O15  1  0.06357600  0.46322500  0.98447700  1
  O  O16  1  0.46322500  0.93642400  0.98447700  1
  O  O17  1  0.48782300  0.03680900  0.58117700  1
  O  O18  1  0.96319100  0.48782300  0.58117700  1
  O  O19  1  0.51217700  0.96319100  0.58117700  1
  O  O20  1  0.03680900  0.51217700  0.58117700  1
  O  O21  1  0.51217700  0.03680900  0.41882300  1
  O  O22  1  0.03680900  0.48782300  0.41882300  1
  O  O23  1  0.48782300  0.96319100  0.41882300  1
  O  O24  1  0.96319100  0.51217700  0.41882300  1
  O  O25  1  0.98782300  0.53680900  0.08117700  1
  O  O26  1  0.46319100  0.98782300  0.08117700  1
  O  O27  1  0.01217700  0.46319100  0.08117700  1
  O  O28  1  0.53680900  0.01217700  0.08117700  1
  O  O29  1  0.01217700  0.53680900  0.91882300  1
  O  O30  1  0.53680900  0.98782300  0.91882300  1
  O  O31  1  0.98782300  0.46319100  0.91882300  1
  O  O32  1  0.46319100  0.01217700  0.91882300  1
  O  O33  1  0.98801700  0.93642400  0.54699200  1
  O  O34  1  0.06357600  0.98801700  0.54699200  1
  O  O35  1  0.01198300  0.06357600  0.54699200  1
  O  O36  1  0.93642400  0.01198300  0.54699200  1
  O  O37  1  0.01198300  0.93642400  0.45300800  1
  O  O38  1  0.93642400  0.98801700  0.45300800  1
  O  O39  1  0.98801700  0.06357600  0.45300800  1
  O  O40  1  0.06357600  0.01198300  0.45300800  1
  O  O41  1  0.48801700  0.43642400  0.04699200  1
  O  O42  1  0.56357600  0.48801700  0.04699200  1
  O  O43  1  0.51198300  0.56357600  0.04699200  1
  O  O44  1  0.43642400  0.51198300  0.04699200  1
  O  O45  1  0.51198300  0.43642400  0.95300800  1
  O  O46  1  0.43642400  0.48801700  0.95300800  1
  O  O47  1  0.48801700  0.56357600  0.95300800  1
  O  O48  1  0.56357600  0.51198300  0.95300800  1
