# generated using pymatgen
data_ZnH10C26NO5
_symmetry_space_group_name_H-M   'P 1'
_cell_length_a   8.52042400
_cell_length_b   13.01245100
_cell_length_c   17.47634700
_cell_angle_alpha   90.95699500
_cell_angle_beta   90.08709600
_cell_angle_gamma   95.31907000
_symmetry_Int_Tables_number   1
_chemical_formula_structural   ZnH10C26NO5
_chemical_formula_sum   'Zn2 H20 C52 N2 O10'
_cell_volume   1929.00864466
_cell_formula_units_Z   2
loop_
 _symmetry_equiv_pos_site_id
 _symmetry_equiv_pos_as_xyz
  1  'x, y, z'
loop_
 _atom_site_type_symbol
 _atom_site_label
 _atom_site_symmetry_multiplicity
 _atom_site_fract_x
 _atom_site_fract_y
 _atom_site_fract_z
 _atom_site_occupancy
  Zn  Zn1  1  0.50166400  0.50787400  0.91502000  1
  Zn  Zn2  1  0.49833600  0.49212500  0.08497900  1
  H  H1  1  0.99373200  0.42781300  0.96852800  1
  H  H2  1  0.00626800  0.57218700  0.03147200  1
  H  H3  1  0.69714200  0.15900100  0.00931500  1
  H  H4  1  0.30285800  0.84099900  0.99068500  1
  H  H5  1  0.67754500  0.00404400  0.98590600  1
  H  H6  1  0.32245500  0.99595600  0.01409400  1
  H  H7  1  0.65611200  0.82380600  0.99618400  1
  H  H8  1  0.34388800  0.17619300  0.00381500  1
  H  H9  1  0.48476900  0.35175900  0.80875700  1
  H  H10  1  0.51523100  0.64824000  0.19124300  1
  H  H11  1  0.46956200  0.25429400  0.69290800  1
  H  H12  1  0.53043800  0.74570600  0.30709200  1
  H  H13  1  0.44924900  0.15584400  0.57690200  1
  H  H14  1  0.55075100  0.84415500  0.42309800  1
  H  H15  1  0.44023400  0.14518000  0.43976500  1
  H  H16  1  0.55976600  0.85481900  0.56023500  1
  H  H17  1  0.51745900  0.67385200  0.80991500  1
  H  H18  1  0.48254100  0.32614800  0.19008500  1
  H  H19  1  0.48159500  0.85538400  0.68069400  1
  H  H20  1  0.51840500  0.14461600  0.31930600  1
  C  C1  1  0.11174700  0.29464000  0.98769100  1
  C  C2  1  0.88825200  0.70536000  0.01230900  1
  C  C3  1  0.98056500  0.34624400  0.97846500  1
  C  C4  1  0.01943500  0.65375600  0.02153500  1
  C  C5  1  0.83367100  0.29724000  0.98929700  1
  C  C6  1  0.16632800  0.70276000  0.01070300  1
  C  C7  1  0.81538400  0.19213200  0.99939800  1
  C  C8  1  0.18461500  0.80786700  0.00060200  1
  C  C9  1  0.94649100  0.13495000  0.99723800  1
  C  C10  1  0.05350900  0.86505000  0.00276100  1
  C  C11  1  0.09548800  0.18843900  0.99596700  1
  C  C12  1  0.90451200  0.81156100  0.00403300  1
  C  C13  1  0.93253100  0.02650300  0.99825200  1
  C  C14  1  0.06746900  0.97349700  0.00174800  1
  C  C15  1  0.21381600  0.03020800  0.00642700  1
  C  C16  1  0.78618400  0.96979200  0.99357300  1
  C  C17  1  0.22730400  0.13578700  0.00226400  1
  C  C18  1  0.77269500  0.86421300  0.99773600  1
  C  C19  1  0.73705100  0.64232300  0.00804000  1
  C  C20  1  0.26294900  0.35767600  0.99195900  1
  C  C21  1  0.70111500  0.36050000  0.99352900  1
  C  C22  1  0.29888500  0.63949900  0.00647100  1
  C  C23  1  0.49423100  0.42265400  0.77707300  1
  C  C24  1  0.50576900  0.57734600  0.22292700  1
  C  C25  1  0.51530200  0.60323300  0.77673600  1
  C  C26  1  0.48469800  0.39676700  0.22326400  1
  C  C27  1  0.47964700  0.32483100  0.66074500  1
  C  C28  1  0.52035300  0.67516800  0.33925500  1
  C  C29  1  0.49368100  0.41892000  0.69849500  1
  C  C30  1  0.50631900  0.58107900  0.30150500  1
  C  C31  1  0.50607800  0.50900200  0.65799000  1
  C  C32  1  0.49392200  0.49099800  0.34201000  1
  C  C33  1  0.51976100  0.60266100  0.69703400  1
  C  C34  1  0.48023900  0.39733800  0.30296600  1
  C  C35  1  0.53279600  0.69372500  0.65601000  1
  C  C36  1  0.46720400  0.30627400  0.34399000  1
  C  C37  1  0.46054600  0.22631400  0.54466600  1
  C  C38  1  0.53945400  0.77368500  0.45533400  1
  C  C39  1  0.47709100  0.32055000  0.58204400  1
  C  C40  1  0.52290900  0.67944900  0.41795600  1
  C  C41  1  0.48915000  0.41025400  0.54087600  1
  C  C42  1  0.51085000  0.58974600  0.45912400  1
  C  C43  1  0.45667200  0.22095200  0.46602700  1
  C  C44  1  0.54332800  0.77904700  0.53397300  1
  C  C45  1  0.47150100  0.31055500  0.42365600  1
  C  C46  1  0.52849900  0.68944400  0.57634400  1
  C  C47  1  0.50329300  0.50477200  0.57901100  1
  C  C48  1  0.49670700  0.49522800  0.42098900  1
  C  C49  1  0.51372200  0.59474900  0.53822500  1
  C  C50  1  0.48627700  0.40525100  0.46177500  1
  C  C51  1  0.55301300  0.79419900  0.69621900  1
  C  C52  1  0.44698700  0.20580000  0.30378100  1
  N  N1  1  0.50396800  0.51380600  0.81486700  1
  N  N2  1  0.49603200  0.48619300  0.18513300  1
  O  O1  1  0.68187300  0.59941900  0.07108600  1
  O  O2  1  0.31812700  0.40058000  0.92891400  1
  O  O3  1  0.67909300  0.61678700  0.93991200  1
  O  O4  1  0.32090700  0.38321300  0.06008800  1
  O  O5  1  0.65759000  0.40265400  0.93027200  1
  O  O6  1  0.34240900  0.59734600  0.06972800  1
  O  O7  1  0.64870700  0.38511600  0.06142700  1
  O  O8  1  0.35129200  0.61488300  0.93857300  1
  O  O9  1  0.65625700  0.81152200  0.74435500  1
  O  O10  1  0.34374300  0.18847800  0.25564500  1
