# generated using pymatgen
data_Zn2H22C27(NO4)2
_symmetry_space_group_name_H-M   'P 1'
_cell_length_a   8.54725900
_cell_length_b   8.72692700
_cell_length_c   14.17107500
_cell_angle_alpha   90.38254600
_cell_angle_beta   92.91581800
_cell_angle_gamma   82.87371300
_symmetry_Int_Tables_number   1
_chemical_formula_structural   Zn2H22C27(NO4)2
_chemical_formula_sum   'Zn2 H22 C27 N2 O8'
_cell_volume   1047.51549532
_cell_formula_units_Z   1
loop_
 _symmetry_equiv_pos_site_id
 _symmetry_equiv_pos_as_xyz
  1  'x, y, z'
loop_
 _atom_site_type_symbol
 _atom_site_label
 _atom_site_symmetry_multiplicity
 _atom_site_fract_x
 _atom_site_fract_y
 _atom_site_fract_z
 _atom_site_occupancy
  Zn  Zn1  1  0.51114100  0.52069900  0.10470200  1
  Zn  Zn2  1  0.49995800  0.47592400  0.89580800  1
  H  H1  1  0.98888800  0.60281300  0.95188200  1
  H  H2  1  0.68397000  0.01012800  0.00943500  1
  H  H3  1  0.32712500  0.98650400  0.99108200  1
  H  H4  1  0.02222000  0.39382000  0.04862400  1
  H  H5  1  0.70699900  0.58976000  0.60006600  1
  H  H6  1  0.71785500  0.62104400  0.44325000  1
  H  H7  1  0.52559500  0.26526300  0.40179900  1
  H  H8  1  0.71064200  0.34144200  0.42056400  1
  H  H9  1  0.70263200  0.31401500  0.57708800  1
  H  H10  1  0.52099900  0.23170700  0.56245100  1
  H  H11  1  0.28296000  0.65398000  0.41955000  1
  H  H12  1  0.27101200  0.45634000  0.39345300  1
  H  H13  1  0.27987900  0.62682100  0.57227600  1
  H  H14  1  0.53636500  0.75177100  0.44234400  1
  H  H15  1  0.52627700  0.72006900  0.59948000  1
  H  H16  1  0.25553000  0.34377600  0.64201000  1
  H  H17  1  0.01059000  0.55500300  0.52403100  1
  H  H18  1  0.06078600  0.56727100  0.64950900  1
  H  H19  1  0.96847900  0.40564400  0.60360100  1
  H  H20  1  0.10122900  0.30736200  0.44798000  1
  H  H21  1  0.14639800  0.17300300  0.54331700  1
  H  H22  1  0.30247700  0.22038200  0.47329400  1
  C  C1  1  0.10329100  0.80250300  0.97757600  1
  C  C2  1  0.97311600  0.72554600  0.96470100  1
  C  C3  1  0.82440600  0.79951900  0.97848000  1
  C  C4  1  0.80162300  0.95495900  0.99755400  1
  C  C5  1  0.92963300  0.03688900  0.00418500  1
  C  C6  1  0.08146300  0.95974000  0.99632900  1
  C  C7  1  0.20947500  0.04166700  0.00296000  1
  C  C8  1  0.18669400  0.19710500  0.02203200  1
  C  C9  1  0.03798800  0.27108200  0.03580800  1
  C  C10  1  0.90781200  0.19412900  0.02293600  1
  C  C11  1  0.25902800  0.70869000  0.98406800  1
  C  C12  1  0.31427500  0.29066000  0.01496500  1
  C  C13  1  0.75208100  0.28795200  0.01644100  1
  C  C14  1  0.69683200  0.70595100  0.98554800  1
  C  C15  1  0.59277500  0.63446500  0.46255100  1
  C  C16  1  0.58564200  0.35437400  0.44001700  1
  C  C17  1  0.58022200  0.33333333  0.54591400  1
  C  C18  1  0.50705200  0.51429000  0.41164100  1
  C  C19  1  0.58534400  0.61281200  0.56801500  1
  C  C20  1  0.49490500  0.47810800  0.58806300  1
  C  C21  1  0.32715900  0.51264200  0.54398500  1
  C  C22  1  0.33557800  0.53454100  0.43760600  1
  C  C23  1  0.49356100  0.46295100  0.69092200  1
  C  C24  1  0.51406500  0.53205600  0.30938200  1
  C  C25  1  0.21369100  0.39838200  0.57361500  1
  C  C26  1  0.05303500  0.48779200  0.58848500  1
  C  C27  1  0.19104100  0.26739500  0.50463100  1
  N  N1  1  0.49334500  0.45581600  0.77241800  1
  N  N2  1  0.51764300  0.54075400  0.22809400  1
  O  O1  1  0.31148600  0.63726300  0.90779600  1
  O  O2  1  0.32552800  0.67891200  0.06876100  1
  O  O3  1  0.36093100  0.36056200  0.09134400  1
  O  O4  1  0.35893500  0.31857500  0.93027200  1
  O  O5  1  0.69961700  0.35935600  0.09272500  1
  O  O6  1  0.68558000  0.31771400  0.93173900  1
  O  O7  1  0.65016700  0.63606700  0.90913900  1
  O  O8  1  0.65217900  0.67805500  0.07026300  1
