# generated using pymatgen
data_Cu3H23C42N4ClO12
_symmetry_space_group_name_H-M   'P 1'
_cell_length_a   30.60772100
_cell_length_b   30.72325500
_cell_length_c   24.55170900
_cell_angle_alpha   90.00000000
_cell_angle_beta   128.55445000
_cell_angle_gamma   90.00000000
_symmetry_Int_Tables_number   1
_chemical_formula_structural   Cu3H23C42N4ClO12
_chemical_formula_sum   'Cu12 H92 C168 N16 Cl4 O48'
_cell_volume   18054.92554227
_cell_formula_units_Z   4
loop_
 _symmetry_equiv_pos_site_id
 _symmetry_equiv_pos_as_xyz
  1  'x, y, z'
loop_
 _atom_site_type_symbol
 _atom_site_label
 _atom_site_symmetry_multiplicity
 _atom_site_fract_x
 _atom_site_fract_y
 _atom_site_fract_z
 _atom_site_occupancy
  Cu  Cu1  1  0.77861500  0.71831900  0.49726500  1
  Cu  Cu2  1  0.22138500  0.71831900  0.50273500  1
  Cu  Cu3  1  0.27861500  0.21831900  0.49726500  1
  Cu  Cu4  1  0.72138500  0.21831900  0.50273500  1
  Cu  Cu5  1  0.71898400  0.77909700  0.50207200  1
  Cu  Cu6  1  0.28101600  0.77909700  0.49792800  1
  Cu  Cu7  1  0.21898400  0.27909700  0.50207200  1
  Cu  Cu8  1  0.78101600  0.27909700  0.49792800  1
  Cu  Cu9  1  0.46811300  0.49760000  0.43074900  1
  Cu  Cu10  1  0.53188700  0.49760000  0.56925100  1
  Cu  Cu11  1  0.96811300  0.99760000  0.43074900  1
  Cu  Cu12  1  0.03188700  0.99760000  0.56925100  1
  H  H1  1  0.61028100  0.81400700  0.28139600  1
  H  H2  1  0.38971900  0.81400700  0.71860400  1
  H  H3  1  0.11028100  0.31400700  0.28139600  1
  H  H4  1  0.88971900  0.31400700  0.71860400  1
  H  H5  1  0.54902800  0.81491400  0.15472100  1
  H  H6  1  0.45097200  0.81491400  0.84527900  1
  H  H7  1  0.04902800  0.31491400  0.15472100  1
  H  H8  1  0.95097200  0.31491400  0.84527900  1
  H  H9  1  0.59672100  0.68397000  0.15483000  1
  H  H10  1  0.40327900  0.68397000  0.84517000  1
  H  H11  1  0.09672100  0.18397000  0.15483000  1
  H  H12  1  0.90327900  0.18397000  0.84517000  1
  H  H13  1  0.65855000  0.68355200  0.28077300  1
  H  H14  1  0.34145000  0.68355200  0.71922700  1
  H  H15  1  0.15855000  0.18355200  0.28077300  1
  H  H16  1  0.84145000  0.18355200  0.71922700  1
  H  H17  1  0.83153000  0.88803900  0.55492300  1
  H  H18  1  0.16847000  0.88803900  0.44507700  1
  H  H19  1  0.33153000  0.38803900  0.55492300  1
  H  H20  1  0.66847000  0.38803900  0.44507700  1
  H  H21  1  0.88990600  0.94336400  0.55600800  1
  H  H22  1  0.11009400  0.94336400  0.44399200  1
  H  H23  1  0.38990600  0.44336400  0.55600800  1
  H  H24  1  0.61009400  0.44336400  0.44399200  1
  H  H25  1  0.87973500  0.85465100  0.36464300  1
  H  H26  1  0.12026500  0.85465100  0.63535700  1
  H  H27  1  0.37973500  0.35465100  0.36464300  1
  H  H28  1  0.62026500  0.35465100  0.63535700  1
  H  H29  1  0.94528500  0.83267200  0.44822200  1
  H  H30  1  0.05471500  0.83267200  0.55177800  1
  H  H31  1  0.44528500  0.33267200  0.44822200  1
  H  H32  1  0.55471500  0.33267200  0.55177800  1
  H  H33  1  0.82501000  0.79847400  0.36755000  1
  H  H34  1  0.17498900  0.79847400  0.63244900  1
  H  H35  1  0.32501000  0.29847400  0.36755000  1
  H  H36  1  0.67498900  0.29847400  0.63244900  1
  H  H37  1  0.89079300  0.77641600  0.45082100  1
  H  H38  1  0.10920700  0.77641600  0.54917900  1
  H  H39  1  0.39079300  0.27641600  0.45082100  1
  H  H40  1  0.60920700  0.27641600  0.54917900  1
  H  H41  1  0.79344900  0.75608000  0.71653000  1
  H  H42  1  0.20655100  0.75608000  0.28347000  1
  H  H43  1  0.29344900  0.25608000  0.71653000  1
  H  H44  1  0.70655100  0.25608000  0.28347000  1
  H  H45  1  0.85427000  0.75312700  0.84237900  1
  H  H46  1  0.14573000  0.75312700  0.15762100  1
  H  H47  1  0.35427000  0.25312700  0.84237900  1
  H  H48  1  0.64573000  0.25312700  0.15762100  1
  H  H49  1  0.99562900  0.73905000  0.84703800  1
  H  H50  1  0.00437000  0.73905000  0.15296200  1
  H  H51  1  0.49562900  0.23905000  0.84703800  1
  H  H52  1  0.50437000  0.23905000  0.15296200  1
  H  H53  1  0.65724300  0.68775900  0.58188100  1
  H  H54  1  0.34275700  0.68775900  0.41811900  1
  H  H55  1  0.15724300  0.18775900  0.58188100  1
  H  H56  1  0.84275700  0.18776000  0.41811900  1
  H  H57  1  0.60261600  0.63001400  0.58419600  1
  H  H58  1  0.39738400  0.63001300  0.41580400  1
  H  H59  1  0.10261600  0.13001300  0.58419600  1
  H  H60  1  0.89738400  0.13001400  0.41580400  1
  H  H61  1  0.63063600  0.52898400  0.43619600  1
  H  H62  1  0.36936400  0.52898400  0.56380400  1
  H  H63  1  0.13063600  0.02898400  0.43619600  1
  H  H64  1  0.86936400  0.02898400  0.56380400  1
  H  H65  1  0.56563300  0.55939100  0.36466800  1
  H  H66  1  0.43436700  0.55939100  0.63533200  1
  H  H67  1  0.06563300  0.05939100  0.36466800  1
  H  H68  1  0.93436700  0.05939100  0.63533200  1
  H  H69  1  0.68797700  0.58450300  0.43732800  1
  H  H70  1  0.31202300  0.58450300  0.56267200  1
  H  H71  1  0.18797700  0.08450300  0.43732800  1
  H  H72  1  0.81202300  0.08450300  0.56267200  1
  H  H73  1  0.62291300  0.61509600  0.36632500  1
  H  H74  1  0.37708700  0.61509600  0.63367500  1
  H  H75  1  0.12291300  0.11509600  0.36632500  1
  H  H76  1  0.87708700  0.11509600  0.63367500  1
  H  H77  1  0.98418100  0.68409300  0.75637800  1
  H  H78  1  0.01269700  0.74718900  0.62665200  1
  H  H79  1  0.95255700  0.80782400  0.60847800  1
  H  H80  1  0.90773100  0.80671500  0.66344700  1
  H  H81  1  0.01581900  0.68409300  0.24362200  1
  H  H82  1  0.98730300  0.74718900  0.37334700  1
  H  H83  1  0.04744300  0.80782400  0.39152200  1
  H  H84  1  0.09226800  0.80671500  0.33655300  1
  H  H85  1  0.48418100  0.18409300  0.75637800  1
  H  H86  1  0.51269700  0.24718900  0.62665200  1
  H  H87  1  0.45255700  0.30782400  0.60847800  1
  H  H88  1  0.40773100  0.30671500  0.66344700  1
  H  H89  1  0.51581900  0.18409300  0.24362200  1
  H  H90  1  0.48730300  0.24718900  0.37334700  1
  H  H91  1  0.54744300  0.30782400  0.39152200  1
  H  H92  1  0.59226800  0.30671500  0.33655300  1
  C  C1  1  0.80453700  0.80852800  0.49439800  1
  C  C2  1  0.19546300  0.80852800  0.50560200  1
  C  C3  1  0.30453700  0.30852800  0.49439800  1
  C  C4  1  0.69546300  0.30852800  0.50560200  1
  C  C5  1  0.67795300  0.74857500  0.36605400  1
  C  C6  1  0.32204700  0.74857500  0.63394600  1
  C  C7  1  0.17795300  0.24857500  0.36605400  1
  C  C8  1  0.82204700  0.24857500  0.63394600  1
  C  C9  1  0.69269900  0.68893500  0.50436200  1
  C  C10  1  0.30730000  0.68893500  0.49563800  1
  C  C11  1  0.19269900  0.18893500  0.50436200  1
  C  C12  1  0.80730000  0.18893500  0.49563800  1
  C  C13  1  0.82007300  0.74928300  0.63329300  1
  C  C14  1  0.17992600  0.74928300  0.36670700  1
  C  C15  1  0.32007300  0.24928300  0.63329300  1
  C  C16  1  0.67992600  0.24928300  0.36670700  1
  C  C17  1  0.60717700  0.78524300  0.25383500  1
  C  C18  1  0.39282300  0.78524300  0.74616500  1
  C  C19  1  0.10717700  0.28524300  0.25383500  1
  C  C20  1  0.89282300  0.28524300  0.74616500  1
  C  C21  1  0.57281800  0.78586100  0.18199800  1
  C  C22  1  0.42718200  0.78586100  0.81800200  1
  C  C23  1  0.07281800  0.28586100  0.18199800  1
  C  C24  1  0.92718200  0.28586100  0.81800200  1
  C  C25  1  0.56855000  0.74952900  0.14572100  1
  C  C26  1  0.43144900  0.74952900  0.85427900  1
  C  C27  1  0.06855000  0.24952900  0.14572100  1
  C  C28  1  0.93144900  0.24952900  0.85427900  1
  C  C29  1  0.59903800  0.71269500  0.18191200  1
  C  C30  1  0.40096200  0.71269500  0.81808800  1
  C  C31  1  0.09903800  0.21269500  0.18191200  1
  C  C32  1  0.90096200  0.21269500  0.81808800  1
  C  C33  1  0.63451000  0.71253700  0.25359100  1
  C  C34  1  0.36549000  0.71253700  0.74640900  1
  C  C35  1  0.13451000  0.21253700  0.25359100  1
  C  C36  1  0.86549000  0.21253700  0.74640900  1
  C  C37  1  0.63870200  0.74874100  0.28989500  1
  C  C38  1  0.36129800  0.74874100  0.71010500  1
  C  C39  1  0.13870200  0.24874100  0.28989500  1
  C  C40  1  0.86129800  0.24874100  0.71010500  1
  C  C41  1  0.46759000  0.74983700  0.93049100  1
  C  C42  1  0.53241000  0.74983700  0.06950900  1
  C  C43  1  0.96759000  0.24983700  0.93049100  1
  C  C44  1  0.03241000  0.24983700  0.06950900  1
  C  C45  1  0.85988500  0.83693100  0.46005800  1
  C  C46  1  0.14011500  0.83693100  0.53994200  1
  C  C47  1  0.35988500  0.33693100  0.46005800  1
  C  C48  1  0.64011500  0.33693100  0.53994200  1
  C  C49  1  0.83724500  0.84250100  0.49328800  1
  C  C50  1  0.16275500  0.84250100  0.50671200  1
  C  C51  1  0.33724500  0.34250100  0.49328800  1
  C  C52  1  0.66275500  0.34250100  0.50671200  1
  C  C53  1  0.84760700  0.88193400  0.52699800  1
  C  C54  1  0.15239300  0.88193400  0.47300200  1
  C  C55  1  0.34760700  0.38193400  0.52699800  1
  C  C56  1  0.65239300  0.38193400  0.47300200  1
  C  C57  1  0.88094900  0.91329700  0.52791800  1
  C  C58  1  0.11905100  0.91329700  0.47208200  1
  C  C59  1  0.38094900  0.41329700  0.52791800  1
  C  C60  1  0.61905100  0.41329700  0.47208200  1
  C  C61  1  0.90191900  0.90652200  0.49224900  1
  C  C62  1  0.09808100  0.90652200  0.50775100  1
  C  C63  1  0.40191900  0.40652200  0.49224900  1
  C  C64  1  0.59808100  0.40652200  0.50775100  1
  C  C65  1  0.88928600  0.86767700  0.45807300  1
  C  C66  1  0.11071400  0.86767700  0.54192700  1
  C  C67  1  0.38928600  0.36767700  0.45807300  1
  C  C68  1  0.61071400  0.36767700  0.54192700  1
  C  C69  1  0.90047500  0.84123700  0.41748700  1
  C  C70  1  0.09952500  0.84123700  0.58251300  1
  C  C71  1  0.40047500  0.34123700  0.41748700  1
  C  C72  1  0.59952500  0.34123700  0.58251300  1
  C  C73  1  0.86548800  0.80513900  0.41932500  1
  C  C74  1  0.13451200  0.80513900  0.58067500  1
  C  C75  1  0.36548800  0.30513900  0.41932500  1
  C  C76  1  0.63451200  0.30513900  0.58067500  1
  C  C77  1  0.83793200  0.75257600  0.74493600  1
  C  C78  1  0.16206800  0.75257600  0.25506400  1
  C  C79  1  0.33793200  0.25257600  0.74493600  1
  C  C80  1  0.66206800  0.25257600  0.25506400  1
  C  C81  1  0.87254000  0.75039400  0.81649200  1
  C  C82  1  0.12746000  0.75039400  0.18350800  1
  C  C83  1  0.37254000  0.25039400  0.81649200  1
  C  C84  1  0.62746000  0.25039400  0.18350800  1
  C  C85  1  0.92939700  0.74506000  0.85389200  1
  C  C86  1  0.07060200  0.74506000  0.14610800  1
  C  C87  1  0.42939700  0.24506000  0.85389200  1
  C  C88  1  0.57060200  0.24506000  0.14610800  1
  C  C89  1  0.95112100  0.74204700  0.81867400  1
  C  C90  1  0.04887900  0.74204700  0.18132600  1
  C  C91  1  0.45112100  0.24204700  0.81867400  1
  C  C92  1  0.54887900  0.24204700  0.18132600  1
  C  C93  1  0.91652300  0.74435000  0.74678000  1
  C  C94  1  0.08347700  0.74435000  0.25322000  1
  C  C95  1  0.41652300  0.24435000  0.74678000  1
  C  C96  1  0.58347700  0.24435000  0.25322000  1
  C  C97  1  0.85930600  0.74904000  0.70955400  1
  C  C98  1  0.14069400  0.74904000  0.29044500  1
  C  C99  1  0.35930600  0.24904000  0.70955400  1
  C  C100  1  0.64069400  0.24904000  0.29044500  1
  C  C101  1  0.03362900  0.74397700  0.06968400  1
  C  C102  1  0.96637100  0.74397700  0.93031600  1
  C  C103  1  0.53362900  0.24397700  0.06968400  1
  C  C104  1  0.46637100  0.24397700  0.93031600  1
  C  C105  1  0.64467900  0.61802400  0.46857900  1
  C  C106  1  0.35532100  0.61802400  0.53142100  1
  C  C107  1  0.14467900  0.11802400  0.46857900  1
  C  C108  1  0.85532100  0.11802400  0.53142100  1
  C  C109  1  0.66108400  0.65509600  0.50775400  1
  C  C110  1  0.33891600  0.65509600  0.49224600  1
  C  C111  1  0.16108400  0.15509600  0.50775400  1
  C  C112  1  0.83891600  0.15509600  0.49224600  1
  C  C113  1  0.64517000  0.65925500  0.54953600  1
  C  C114  1  0.35483000  0.65925500  0.45046400  1
  C  C115  1  0.14517000  0.15925500  0.54953600  1
  C  C116  1  0.85483000  0.15925500  0.45046400  1
  C  C117  1  0.61451200  0.62638500  0.55121200  1
  C  C118  1  0.38548800  0.62638500  0.44878700  1
  C  C119  1  0.11451200  0.12638500  0.55121200  1
  C  C120  1  0.88548800  0.12638500  0.44878700  1
  C  C121  1  0.59706100  0.59019800  0.50839900  1
  C  C122  1  0.40293900  0.59019800  0.49160100  1
  C  C123  1  0.09706100  0.09019800  0.50839900  1
  C  C124  1  0.90293900  0.09019800  0.49160100  1
  C  C125  1  0.61309300  0.58795500  0.46739900  1
  C  C126  1  0.38690700  0.58795400  0.53260100  1
  C  C127  1  0.11309300  0.08795400  0.46739900  1
  C  C128  1  0.88690700  0.08795500  0.53260100  1
  C  C129  1  0.60880900  0.56059600  0.41451400  1
  C  C130  1  0.39119100  0.56059600  0.58548600  1
  C  C131  1  0.10880900  0.06059600  0.41451400  1
  C  C132  1  0.89119100  0.06059600  0.58548600  1
  C  C133  1  0.64565700  0.59623700  0.41549000  1
  C  C134  1  0.35434200  0.59623700  0.58451000  1
  C  C135  1  0.14565700  0.09623700  0.41549000  1
  C  C136  1  0.85434200  0.09623700  0.58451000  1
  C  C137  1  0.43805400  0.55667100  0.49456300  1
  C  C138  1  0.56194500  0.55667100  0.50543700  1
  C  C139  1  0.93805400  0.05667100  0.49456300  1
  C  C140  1  0.06194500  0.05667100  0.50543700  1
  C  C141  1  0.93808000  0.93867200  0.49475100  1
  C  C142  1  0.06192000  0.93867200  0.50524900  1
  C  C143  1  0.43808000  0.43867200  0.49475100  1
  C  C144  1  0.56192000  0.43867200  0.50524900  1
  C  C145  1  0.94204600  0.74480900  0.71233800  1
  C  C146  1  0.97692800  0.71129900  0.72373800  1
  C  C147  1  0.00196500  0.71203300  0.69262500  1
  C  C148  1  0.99289900  0.74655400  0.65083400  1
  C  C149  1  0.95900200  0.78047700  0.64043000  1
  C  C150  1  0.93366800  0.77968100  0.67115800  1
  C  C151  1  0.05795400  0.74480900  0.28766100  1
  C  C152  1  0.02307200  0.71129900  0.27626200  1
  C  C153  1  0.99803500  0.71203300  0.30737500  1
  C  C154  1  0.00710100  0.74655400  0.34916600  1
  C  C155  1  0.04099800  0.78047700  0.35957000  1
  C  C156  1  0.06633200  0.77968100  0.32884100  1
  C  C157  1  0.44204600  0.24480900  0.71233800  1
  C  C158  1  0.47692800  0.21129900  0.72373800  1
  C  C159  1  0.50196500  0.21203300  0.69262500  1
  C  C160  1  0.49289900  0.24655400  0.65083400  1
  C  C161  1  0.45900200  0.28047700  0.64043000  1
  C  C162  1  0.43366800  0.27968100  0.67115800  1
  C  C163  1  0.55795400  0.24480900  0.28766100  1
  C  C164  1  0.52307200  0.21129900  0.27626200  1
  C  C165  1  0.49803500  0.21203300  0.30737500  1
  C  C166  1  0.50710100  0.24655400  0.34916600  1
  C  C167  1  0.54099800  0.28047700  0.35957000  1
  C  C168  1  0.56633200  0.27968100  0.32884100  1
  N  N1  1  0.51614900  0.71201300  0.03435300  1
  N  N2  1  0.48385100  0.71201300  0.96564700  1
  N  N3  1  0.01614900  0.21201300  0.03435300  1
  N  N4  1  0.98385100  0.21201300  0.96564700  1
  N  N5  1  0.48405900  0.78772600  0.96561600  1
  N  N6  1  0.51594100  0.78772600  0.03438400  1
  N  N7  1  0.98405900  0.28772600  0.96561600  1
  N  N8  1  0.01594100  0.28772600  0.03438400  1
  N  N9  1  0.02217300  0.74384800  0.96721700  1
  N  N10  1  0.97782700  0.74384800  0.03278300  1
  N  N11  1  0.52217300  0.24384800  0.96721700  1
  N  N12  1  0.47782700  0.24384800  0.03278300  1
  N  N13  1  0.05537300  0.74391600  0.03603700  1
  N  N14  1  0.94462700  0.74391600  0.96396300  1
  N  N15  1  0.55537300  0.24391600  0.03603700  1
  N  N16  1  0.44462700  0.24391600  0.96396300  1
  Cl  Cl1  1  0.04550700  0.66913700  0.70645000  1
  Cl  Cl2  1  0.95449200  0.66913700  0.29355000  1
  Cl  Cl3  1  0.54550700  0.16913700  0.70645000  1
  Cl  Cl4  1  0.45449200  0.16913700  0.29355000  1
  O  O1  1  0.81771000  0.76777300  0.49529200  1
  O  O2  1  0.18229000  0.76777300  0.50470800  1
  O  O3  1  0.31771000  0.26777300  0.49529200  1
  O  O4  1  0.68229000  0.26777300  0.50470700  1
  O  O5  1  0.76736100  0.82030700  0.50181000  1
  O  O6  1  0.23263800  0.82030700  0.49819000  1
  O  O7  1  0.26736100  0.32030700  0.50181000  1
  O  O8  1  0.73263800  0.32030700  0.49819000  1
  O  O9  1  0.71917600  0.72058400  0.39672100  1
  O  O10  1  0.28082400  0.72058400  0.60327900  1
  O  O11  1  0.21917600  0.22058400  0.39672100  1
  O  O12  1  0.78082400  0.22058400  0.60327800  1
  O  O13  1  0.67105400  0.77656800  0.40049500  1
  O  O14  1  0.32894600  0.77656800  0.59950500  1
  O  O15  1  0.17105400  0.27656800  0.40049500  1
  O  O16  1  0.82894600  0.27656800  0.59950500  1
  O  O17  1  0.73409900  0.67709100  0.50487800  1
  O  O18  1  0.26590000  0.67709100  0.49512200  1
  O  O19  1  0.23410000  0.17709100  0.50487800  1
  O  O20  1  0.76590000  0.17709100  0.49512200  1
  O  O21  1  0.68152100  0.72967500  0.50713600  1
  O  O22  1  0.31847900  0.72967500  0.49286400  1
  O  O23  1  0.18152100  0.22967500  0.50713600  1
  O  O24  1  0.81847900  0.22967500  0.49286400  1
  O  O25  1  0.82765300  0.72180700  0.59881700  1
  O  O26  1  0.17234700  0.72180700  0.40118300  1
  O  O27  1  0.32765300  0.22180700  0.59881700  1
  O  O28  1  0.67234700  0.22180700  0.40118300  1
  O  O29  1  0.77742600  0.77600800  0.60281800  1
  O  O30  1  0.22257300  0.77600800  0.39718200  1
  O  O31  1  0.27742700  0.27600800  0.60281800  1
  O  O32  1  0.72257300  0.27600800  0.39718200  1
  O  O33  1  0.42696200  0.54364300  0.43621300  1
  O  O34  1  0.57303700  0.54364300  0.56378700  1
  O  O35  1  0.92696200  0.04364300  0.43621300  1
  O  O36  1  0.07303700  0.04364300  0.56378700  1
  O  O37  1  0.47924600  0.54105600  0.55577000  1
  O  O38  1  0.52075400  0.54105600  0.44423000  1
  O  O39  1  0.97924600  0.04105600  0.55577000  1
  O  O40  1  0.02075400  0.04105600  0.44423000  1
  O  O41  1  0.92694600  0.95158200  0.43628500  1
  O  O42  1  0.07305400  0.95158200  0.56371500  1
  O  O43  1  0.42694600  0.45158200  0.43628500  1
  O  O44  1  0.57305400  0.45158200  0.56371500  1
  O  O45  1  0.97936400  0.95419400  0.55587300  1
  O  O46  1  0.02063600  0.95419400  0.44412700  1
  O  O47  1  0.47936400  0.45419400  0.55587300  1
  O  O48  1  0.52063600  0.45419400  0.44412700  1
