# generated using pymatgen
data_ZnH18C23NO4
_symmetry_space_group_name_H-M   'P 1'
_cell_length_a   27.68288700
_cell_length_b   27.68345400
_cell_length_c   9.65271700
_cell_angle_alpha   90.00000000
_cell_angle_beta   90.00000000
_cell_angle_gamma   90.00000000
_symmetry_Int_Tables_number   1
_chemical_formula_structural   ZnH18C23NO4
_chemical_formula_sum   'Zn4 H72 C92 N4 O16'
_cell_volume   7397.43620791
_cell_formula_units_Z   4
loop_
 _symmetry_equiv_pos_site_id
 _symmetry_equiv_pos_as_xyz
  1  'x, y, z'
loop_
 _atom_site_type_symbol
 _atom_site_label
 _atom_site_symmetry_multiplicity
 _atom_site_fract_x
 _atom_site_fract_y
 _atom_site_fract_z
 _atom_site_occupancy
  Zn  Zn1  1  0.50005600  0.50037500  0.15597500  1
  Zn  Zn2  1  0.50006400  0.49971400  0.84408500  1
  Zn  Zn3  1  0.99997800  0.99963500  0.15595300  1
  Zn  Zn4  1  0.99998400  0.00028500  0.84405300  1
  H  H1  1  0.00367800  0.07540200  0.59939600  1
  H  H2  1  0.98422200  0.07387100  0.37100500  1
  H  H3  1  0.00466500  0.92448300  0.40061800  1
  H  H4  1  0.98517100  0.92576700  0.62908700  1
  H  H5  1  0.48563600  0.57429100  0.62916000  1
  H  H6  1  0.50512500  0.57551200  0.40068500  1
  H  H7  1  0.48411600  0.42620600  0.37106000  1
  H  H8  1  0.50351100  0.42458600  0.59944100  1
  H  H9  1  0.43467700  0.53506300  0.60126500  1
  H  H10  1  0.44506300  0.55206600  0.37605800  1
  H  H11  1  0.43395900  0.46648200  0.39876700  1
  H  H12  1  0.44396500  0.44934900  0.62402900  1
  H  H13  1  0.94403500  0.05088500  0.62401900  1
  H  H14  1  0.93394000  0.03376400  0.39876300  1
  H  H15  1  0.94470400  0.94819100  0.37600600  1
  H  H16  1  0.93438700  0.96522200  0.60124400  1
  H  H17  1  0.56443200  0.54026100  0.59964700  1
  H  H18  1  0.57415500  0.52194100  0.37265500  1
  H  H19  1  0.56357600  0.45860400  0.40038400  1
  H  H20  1  0.57371500  0.47671900  0.62723800  1
  H  H21  1  0.07368100  0.02293100  0.62728700  1
  H  H22  1  0.06356900  0.04119700  0.40048800  1
  H  H23  1  0.07394300  0.97783500  0.37259900  1
  H  H24  1  0.06409400  0.95944400  0.59948600  1
  H  H25  1  0.89046100  0.88898700  0.21919900  1
  H  H26  1  0.88920700  0.89111600  0.77624800  1
  H  H27  1  0.88947300  0.10998600  0.78080800  1
  H  H28  1  0.89022800  0.10985300  0.22373600  1
  H  H29  1  0.38975100  0.39071600  0.22369100  1
  H  H30  1  0.39007000  0.38955200  0.78080000  1
  H  H31  1  0.38946800  0.60911800  0.77623000  1
  H  H32  1  0.39018900  0.61074400  0.21917400  1
  H  H33  1  0.82897300  0.82679200  0.21827100  1
  H  H34  1  0.82681300  0.82975500  0.77529200  1
  H  H35  1  0.82717500  0.17133100  0.78163700  1
  H  H36  1  0.82886400  0.17221500  0.22482500  1
  H  H37  1  0.32836900  0.32838800  0.22477000  1
  H  H38  1  0.32772700  0.32826500  0.78152200  1
  H  H39  1  0.32701400  0.67040600  0.77520200  1
  H  H40  1  0.32868900  0.67291300  0.21826000  1
  H  H41  1  0.31525700  0.24650900  0.83159100  1
  H  H42  1  0.24653900  0.31522600  0.17597400  1
  H  H43  1  0.24658800  0.68480500  0.16985200  1
  H  H44  1  0.31433700  0.75254300  0.82231200  1
  H  H45  1  0.81432100  0.74746300  0.82224200  1
  H  H46  1  0.74670700  0.81514800  0.17004700  1
  H  H47  1  0.74689500  0.18510500  0.17708900  1
  H  H48  1  0.81496700  0.25323200  0.83066800  1
  H  H49  1  0.25346500  0.18478900  0.83145500  1
  H  H50  1  0.18475800  0.25344800  0.17591300  1
  H  H51  1  0.18487500  0.74661100  0.17003200  1
  H  H52  1  0.25263200  0.81439000  0.82253900  1
  H  H53  1  0.75254100  0.68564400  0.82242300  1
  H  H54  1  0.68492000  0.75337100  0.17018600  1
  H  H55  1  0.68502800  0.24680700  0.17685100  1
  H  H56  1  0.75308800  0.31487400  0.83035800  1
  H  H57  1  0.67304400  0.67124400  0.21867100  1
  H  H58  1  0.67035000  0.67303900  0.77563400  1
  H  H59  1  0.67103800  0.32685400  0.78123000  1
  H  H60  1  0.67228500  0.32891300  0.22438200  1
  H  H61  1  0.17175100  0.17148300  0.22448700  1
  H  H62  1  0.17154600  0.17254300  0.78126300  1
  H  H63  1  0.17061700  0.82724900  0.77560300  1
  H  H64  1  0.17283100  0.82859200  0.21871200  1
  H  H65  1  0.61079500  0.60978900  0.21968900  1
  H  H66  1  0.60899400  0.61066300  0.77671400  1
  H  H67  1  0.60972200  0.38922600  0.78037800  1
  H  H68  1  0.61002300  0.39037400  0.22331900  1
  H  H69  1  0.10943100  0.11009200  0.22331800  1
  H  H70  1  0.11019600  0.11021700  0.78040000  1
  H  H71  1  0.10925300  0.88960500  0.77669900  1
  H  H72  1  0.11053100  0.88997800  0.21966600  1
  C  C1  1  0.43210300  0.56779800  0.99845400  1
  C  C2  1  0.43213300  0.43227400  0.00153400  1
  C  C3  1  0.93205000  0.06773400  0.00151800  1
  C  C4  1  0.93206100  0.93220600  0.99845300  1
  C  C5  1  0.06769900  0.06791600  0.00112300  1
  C  C6  1  0.06770800  0.93200300  0.99893500  1
  C  C7  1  0.56775300  0.56800000  0.99895600  1
  C  C8  1  0.56777500  0.43207800  0.00114400  1
  C  C9  1  0.97982700  0.04419300  0.57660100  1
  C  C10  1  0.97279800  0.03968400  0.42115700  1
  C  C11  1  0.98040200  0.95537600  0.42341300  1
  C  C12  1  0.97332000  0.95980000  0.57887600  1
  C  C13  1  0.47363400  0.54031600  0.57892100  1
  C  C14  1  0.48072900  0.54472200  0.42346300  1
  C  C15  1  0.47279500  0.46043100  0.42118600  1
  C  C16  1  0.47978800  0.45589300  0.57662900  1
  C  C17  1  0.54978500  0.50376500  0.57767100  1
  C  C18  1  0.54968800  0.49539700  0.42232300  1
  C  C19  1  0.04962400  0.99601900  0.57762800  1
  C  C20  1  0.04956200  0.00444200  0.42232100  1
  C  C21  1  0.87675200  0.87628000  0.12095500  1
  C  C22  1  0.87624800  0.87725800  0.87407800  1
  C  C23  1  0.87642400  0.12336000  0.87905400  1
  C  C24  1  0.87663700  0.12309100  0.12591100  1
  C  C25  1  0.37640100  0.37724000  0.12585900  1
  C  C26  1  0.37677400  0.37641000  0.87903000  1
  C  C27  1  0.37638100  0.62285500  0.87405500  1
  C  C28  1  0.37659500  0.62355800  0.12092200  1
  C  C29  1  0.84135200  0.84112400  0.12040500  1
  C  C30  1  0.84097300  0.84196000  0.87354100  1
  C  C31  1  0.84121200  0.15870700  0.87960300  1
  C  C32  1  0.84132600  0.15835800  0.12647800  1
  C  C33  1  0.34105700  0.34200300  0.12639500  1
  C  C34  1  0.34153000  0.34109100  0.87953800  1
  C  C35  1  0.34106900  0.65812000  0.87349700  1
  C  C36  1  0.34117200  0.65869400  0.12036200  1
  C  C37  1  0.82311700  0.82360100  0.99670300  1
  C  C38  1  0.82330100  0.17657600  0.00331400  1
  C  C39  1  0.32330000  0.32350900  0.00322900  1
  C  C40  1  0.32306100  0.67634400  0.99665300  1
  C  C41  1  0.89443300  0.89466000  0.99781200  1
  C  C42  1  0.89443800  0.10530200  0.00217700  1
  C  C43  1  0.39451200  0.39472500  0.00215800  1
  C  C44  1  0.39444200  0.60532600  0.99779200  1
  C  C45  1  0.28638200  0.24891400  0.90657000  1
  C  C46  1  0.24892000  0.28637000  0.10093500  1
  C  C47  1  0.24876400  0.71347400  0.09416500  1
  C  C48  1  0.28569700  0.75040300  0.89809800  1
  C  C49  1  0.78569200  0.74959100  0.89807100  1
  C  C50  1  0.74882500  0.78649800  0.09427900  1
  C  C51  1  0.74910400  0.21381600  0.10154600  1
  C  C52  1  0.78621600  0.25095200  0.90607300  1
  C  C53  1  0.25107900  0.21364800  0.90648400  1
  C  C54  1  0.21361800  0.25108100  0.10088000  1
  C  C55  1  0.21352300  0.74878300  0.09428600  1
  C  C56  1  0.25045600  0.78572900  0.89824200  1
  C  C57  1  0.75041600  0.71429300  0.89818600  1
  C  C58  1  0.71355100  0.75121800  0.09437300  1
  C  C59  1  0.71376200  0.24904600  0.10138600  1
  C  C60  1  0.75087300  0.28615900  0.90588500  1
  C  C61  1  0.21428200  0.21439200  0.00350000  1
  C  C62  1  0.21404800  0.78532600  0.99648800  1
  C  C63  1  0.71402600  0.71470300  0.99648300  1
  C  C64  1  0.71424700  0.28554000  0.00341200  1
  C  C65  1  0.28564400  0.28569200  0.00365000  1
  C  C66  1  0.28525000  0.71395300  0.99620100  1
  C  C67  1  0.78529200  0.78601200  0.99626100  1
  C  C68  1  0.78565700  0.21436900  0.00375000  1
  C  C69  1  0.65879000  0.65877500  0.12080200  1
  C  C70  1  0.65811300  0.65894600  0.87392500  1
  C  C71  1  0.65848900  0.34098500  0.87917100  1
  C  C72  1  0.65835300  0.34131100  0.12605700  1
  C  C73  1  0.15805300  0.15888600  0.12610700  1
  C  C74  1  0.15877100  0.15865100  0.87923400  1
  C  C75  1  0.15827500  0.84123000  0.87392300  1
  C  C76  1  0.15868000  0.84114000  0.12079800  1
  C  C77  1  0.62359700  0.62340600  0.12141800  1
  C  C78  1  0.62280600  0.62368300  0.87452800  1
  C  C79  1  0.62318600  0.37624900  0.87862500  1
  C  C80  1  0.62316300  0.37669400  0.12549600  1
  C  C81  1  0.12282500  0.12353700  0.12550700  1
  C  C82  1  0.12342800  0.12342500  0.87865700  1
  C  C83  1  0.12294800  0.87647700  0.87452100  1
  C  C84  1  0.12345400  0.87647900  0.12139800  1
  C  C85  1  0.10523200  0.10555300  0.00178200  1
  C  C86  1  0.10528200  0.89439000  0.99826900  1
  C  C87  1  0.60530100  0.60562300  0.99828400  1
  C  C88  1  0.60529600  0.39442000  0.00177500  1
  C  C89  1  0.17645100  0.17675400  0.00296500  1
  C  C90  1  0.17645200  0.82315800  0.99705500  1
  C  C91  1  0.67641700  0.67688800  0.99705600  1
  C  C92  1  0.67643000  0.32315300  0.00289600  1
  N  N1  1  0.00094600  0.00024600  0.63329800  1
  N  N2  1  0.00093600  0.99960300  0.36670200  1
  N  N3  1  0.50108400  0.49974900  0.63333200  1
  N  N4  1  0.50107400  0.50041400  0.36673100  1
  O  O1  1  0.94870500  0.05069300  0.11918800  1
  O  O2  1  0.94887800  0.05135600  0.88324900  1
  O  O3  1  0.94871900  0.94924000  0.88078600  1
  O  O4  1  0.94888300  0.94858700  0.11671200  1
  O  O5  1  0.44894600  0.55143500  0.11672000  1
  O  O6  1  0.44876600  0.55075500  0.88078900  1
  O  O7  1  0.44898200  0.44863400  0.88327100  1
  O  O8  1  0.44876900  0.44932400  0.11921900  1
  O  O9  1  0.55106700  0.55151100  0.11730000  1
  O  O10  1  0.55108300  0.55098900  0.88119600  1
  O  O11  1  0.55108400  0.44857100  0.88280300  1
  O  O12  1  0.55110300  0.44908900  0.11891300  1
  O  O13  1  0.05100800  0.05092400  0.11889200  1
  O  O14  1  0.05102500  0.05141700  0.88276500  1
  O  O15  1  0.05101500  0.94899500  0.88117100  1
  O  O16  1  0.05102100  0.94850000  0.11728400  1
