# generated using pymatgen
data_ZnH9C20N(ClO2)2
_symmetry_space_group_name_H-M   'P 1'
_cell_length_a   11.90080600
_cell_length_b   13.16108900
_cell_length_c   14.10364200
_cell_angle_alpha   90.41836600
_cell_angle_beta   81.21122100
_cell_angle_gamma   91.18606500
_symmetry_Int_Tables_number   1
_chemical_formula_structural   ZnH9C20N(ClO2)2
_chemical_formula_sum   'Zn2 H18 C40 N2 Cl4 O8'
_cell_volume   2182.59466122
_cell_formula_units_Z   2
loop_
 _symmetry_equiv_pos_site_id
 _symmetry_equiv_pos_as_xyz
  1  'x, y, z'
loop_
 _atom_site_type_symbol
 _atom_site_label
 _atom_site_symmetry_multiplicity
 _atom_site_fract_x
 _atom_site_fract_y
 _atom_site_fract_z
 _atom_site_occupancy
  Zn  Zn1  1  0.37121700  0.50442400  0.51009200  1
  Zn  Zn2  1  0.62882600  0.49528900  0.49275100  1
  H  H1  1  0.37446600  0.46800700  0.02258900  1
  H  H2  1  0.62557200  0.53164300  0.98025000  1
  H  H3  1  0.33507000  0.19291500  0.41973600  1
  H  H4  1  0.66372800  0.80662800  0.58460400  1
  H  H5  1  0.68271900  0.98617800  0.59947300  1
  H  H6  1  0.31676500  0.01342500  0.40403600  1
  H  H7  1  0.19282900  0.42037600  0.40035400  1
  H  H8  1  0.80719300  0.57925700  0.60255700  1
  H  H9  1  0.19101400  0.60520600  0.64498100  1
  H  H10  1  0.80910500  0.39493600  0.35759500  1
  H  H11  1  0.01609500  0.37976300  0.34140200  1
  H  H12  1  0.98398500  0.62017400  0.66131300  1
  H  H13  1  0.91819400  0.23360400  0.56216600  1
  H  H14  1  0.65956400  0.26879300  0.80390400  1
  H  H15  1  0.51853500  0.19417000  0.71204200  1
  H  H16  1  0.33414100  0.73613700  0.19748200  1
  H  H17  1  0.08267800  0.76495100  0.44521300  1
  H  H18  1  0.22664600  0.83835400  0.53483500  1
  C  C1  1  0.51392700  0.69887100  0.50425000  1
  C  C2  1  0.48611900  0.30081600  0.49861200  1
  C  C3  1  0.48399000  0.49601000  0.68827700  1
  C  C4  1  0.51605000  0.50369400  0.31456500  1
  C  C5  1  0.52561600  0.50617600  0.21194300  1
  C  C6  1  0.47442300  0.49350300  0.79089800  1
  C  C7  1  0.54470100  0.51112800  0.02285100  1
  C  C8  1  0.45533800  0.48852000  0.97998900  1
  C  C9  1  0.46588500  0.49126900  0.87710100  1
  C  C10  1  0.53415300  0.50839100  0.12574000  1
  C  C11  1  0.47842400  0.18911800  0.49412700  1
  C  C12  1  0.52170200  0.81052900  0.50867600  1
  C  C13  1  0.61590400  0.95763400  0.56213900  1
  C  C14  1  0.38397100  0.04197000  0.44092800  1
  C  C15  1  0.60588500  0.85393600  0.55349400  1
  C  C16  1  0.39361000  0.14565500  0.45006000  1
  C  C17  1  0.44732300  0.87294200  0.47002900  1
  C  C18  1  0.55397800  0.12676700  0.53138000  1
  C  C19  1  0.45779600  0.97845100  0.47824200  1
  C  C20  1  0.54277400  0.02119900  0.52400600  1
  C  C21  1  0.97136600  0.42425900  0.39941600  1
  C  C22  1  0.02870000  0.57559600  0.60335600  1
  C  C23  1  0.85496100  0.43310700  0.40845900  1
  C  C24  1  0.14512200  0.56683500  0.59425200  1
  C  C25  1  0.85397700  0.53553700  0.54501100  1
  C  C26  1  0.14605600  0.46414200  0.45787000  1
  C  C27  1  0.97047300  0.52785200  0.53793200  1
  C  C28  1  0.02957100  0.47188800  0.46491400  1
  C  C29  1  0.63896700  0.17171000  0.58522200  1
  C  C30  1  0.75142500  0.18300600  0.54317600  1
  C  C31  1  0.83037300  0.22475700  0.59503900  1
  C  C32  1  0.79743400  0.25547900  0.68864800  1
  C  C33  1  0.68540000  0.24461800  0.73053300  1
  C  C34  1  0.60628500  0.20285200  0.67891400  1
  C  C35  1  0.36182000  0.82816500  0.41662400  1
  C  C36  1  0.39170600  0.79959200  0.32171100  1
  C  C37  1  0.31070800  0.75832700  0.27170600  1
  C  C38  1  0.19983100  0.74573400  0.31605900  1
  C  C39  1  0.16968800  0.77460100  0.41051800  1
  C  C40  1  0.25048300  0.81576700  0.46076500  1
  N  N1  1  0.20188500  0.51164300  0.52220800  1
  N  N2  1  0.79815800  0.48808800  0.48063400  1
  Cl  Cl1  1  0.79432200  0.14551300  0.42386000  1
  Cl  Cl2  1  0.89784400  0.30852100  0.75427600  1
  Cl  Cl3  1  0.53173100  0.81704400  0.26359500  1
  Cl  Cl4  1  0.09720000  0.69352400  0.25224800  1
  O  O1  1  0.41338100  0.65432200  0.51052900  1
  O  O2  1  0.58666300  0.34539400  0.49228400  1
  O  O3  1  0.60858000  0.64784500  0.49782000  1
  O  O4  1  0.39145800  0.35186000  0.50505200  1
  O  O5  1  0.39029600  0.50018000  0.65030300  1
  O  O6  1  0.60974600  0.49955900  0.35254000  1
  O  O7  1  0.58579300  0.49369000  0.63739000  1
  O  O8  1  0.41424700  0.50599500  0.36545200  1
