# generated using pymatgen
data_ZnH12C23N2O5
_symmetry_space_group_name_H-M   'P 1'
_cell_length_a   17.56640400
_cell_length_b   8.54805000
_cell_length_c   13.47795100
_cell_angle_alpha   90.00000000
_cell_angle_beta   90.98693600
_cell_angle_gamma   90.00000000
_symmetry_Int_Tables_number   1
_chemical_formula_structural   ZnH12C23N2O5
_chemical_formula_sum   'Zn2 H24 C46 N4 O10'
_cell_volume   2023.52866327
_cell_formula_units_Z   2
loop_
 _symmetry_equiv_pos_site_id
 _symmetry_equiv_pos_as_xyz
  1  'x, y, z'
loop_
 _atom_site_type_symbol
 _atom_site_label
 _atom_site_symmetry_multiplicity
 _atom_site_fract_x
 _atom_site_fract_y
 _atom_site_fract_z
 _atom_site_occupancy
  Zn  Zn1  1  0.91517300  0.50214100  0.50244400  1
  Zn  Zn2  1  0.08482700  0.50214100  0.49755600  1
  H  H1  1  0.99201000  0.25209800  0.83723700  1
  H  H2  1  0.00634600  0.75189000  0.16257300  1
  H  H3  1  0.00799000  0.25209800  0.16276400  1
  H  H4  1  0.99365400  0.75189000  0.83742700  1
  H  H5  1  0.02581600  0.00213000  0.57033500  1
  H  H6  1  0.97418400  0.00213000  0.42966600  1
  H  H7  1  0.69308700  0.48054500  0.74600200  1
  H  H8  1  0.30691300  0.48054500  0.25399800  1
  H  H9  1  0.31425600  0.53866000  0.74491800  1
  H  H10  1  0.68574400  0.53866000  0.25508300  1
  H  H11  1  0.44685800  0.54257400  0.74799500  1
  H  H12  1  0.55314200  0.54257400  0.25200600  1
  H  H13  1  0.55849200  0.47900200  0.74936700  1
  H  H14  1  0.44150800  0.47900200  0.25063300  1
  H  H15  1  0.80937400  0.49195000  0.65806500  1
  H  H16  1  0.19062600  0.49195000  0.34193600  1
  H  H17  1  0.81256000  0.60872200  0.28332200  1
  H  H18  1  0.84199800  0.48447600  0.13879800  1
  H  H19  1  0.76839600  0.33736600  0.12659200  1
  H  H20  1  0.86594600  0.27970700  0.14989400  1
  H  H21  1  0.18744000  0.60872100  0.71667800  1
  H  H22  1  0.15800100  0.48447600  0.86120200  1
  H  H23  1  0.23160400  0.33736600  0.87340900  1
  H  H24  1  0.13405400  0.27970600  0.85010700  1
  C  C1  1  0.00480600  0.14183300  0.69610800  1
  C  C2  1  0.99507800  0.86237000  0.30387900  1
  C  C3  1  0.99519400  0.14183300  0.30389300  1
  C  C4  1  0.00492200  0.86237000  0.69612100  1
  C  C5  1  0.99636100  0.14259500  0.79762300  1
  C  C6  1  0.00290100  0.86146800  0.20227800  1
  C  C7  1  0.00363900  0.14259500  0.20237800  1
  C  C8  1  0.99709900  0.86146800  0.79772200  1
  C  C9  1  0.99669500  0.00206000  0.84881700  1
  C  C10  1  0.00330500  0.00206000  0.15118400  1
  C  C11  1  0.01412700  0.00211600  0.64793600  1
  C  C12  1  0.98587300  0.00211600  0.35206500  1
  C  C13  1  0.99859500  0.00212100  0.95530200  1
  C  C14  1  0.00140500  0.00212100  0.04469900  1
  C  C15  1  0.00278800  0.72026600  0.63586100  1
  C  C16  1  0.99723800  0.28397000  0.36415600  1
  C  C17  1  0.99721200  0.72026600  0.36413900  1
  C  C18  1  0.00276200  0.28397000  0.63584500  1
  C  C19  1  0.77769400  0.49745100  0.58869100  1
  C  C20  1  0.22230600  0.49745100  0.41131000  1
  C  C21  1  0.77647600  0.50916800  0.41541300  1
  C  C22  1  0.22352400  0.50916800  0.58458800  1
  C  C23  1  0.65823900  0.50695500  0.50087500  1
  C  C24  1  0.34176100  0.50695500  0.49912500  1
  C  C25  1  0.69908600  0.49869400  0.58870800  1
  C  C26  1  0.30091400  0.49869400  0.41129200  1
  C  C27  1  0.66147400  0.49018700  0.67674800  1
  C  C28  1  0.33852600  0.49018700  0.32325300  1
  C  C29  1  0.69752400  0.51360400  0.41353500  1
  C  C30  1  0.30247600  0.51360400  0.58646600  1
  C  C31  1  0.46120600  0.51263800  0.58906700  1
  C  C32  1  0.53879400  0.51263800  0.41093400  1
  C  C33  1  0.45924000  0.50500700  0.41030600  1
  C  C34  1  0.54076000  0.50500700  0.58969400  1
  C  C35  1  0.42096400  0.50823300  0.49951400  1
  C  C36  1  0.57903500  0.50823300  0.50048600  1
  C  C37  1  0.42055500  0.52647800  0.67627000  1
  C  C38  1  0.57944500  0.52647800  0.32373000  1
  C  C39  1  0.34244400  0.52642500  0.67488300  1
  C  C40  1  0.65755600  0.52642500  0.32511800  1
  C  C41  1  0.58329600  0.49238100  0.67764800  1
  C  C42  1  0.41670300  0.49238100  0.32235200  1
  C  C43  1  0.80893300  0.37404400  0.27486800  1
  C  C44  1  0.82219300  0.36919800  0.16585000  1
  C  C45  1  0.19106700  0.37404400  0.72513200  1
  C  C46  1  0.17780700  0.36919800  0.83415100  1
  N  N1  1  0.81522800  0.50219600  0.50263100  1
  N  N2  1  0.18477200  0.50219600  0.49736900  1
  N  N3  1  0.81674400  0.50901200  0.32584900  1
  N  N4  1  0.18325600  0.50901200  0.67415100  1
  O  O1  1  0.06697900  0.67144500  0.59855800  1
  O  O2  1  0.93298500  0.33301700  0.40130400  1
  O  O3  1  0.93302100  0.67144500  0.40144200  1
  O  O4  1  0.06701500  0.33301700  0.59869700  1
  O  O5  1  0.93597500  0.66541600  0.60750600  1
  O  O6  1  0.06404500  0.33864900  0.39263300  1
  O  O7  1  0.06402500  0.66541600  0.39249400  1
  O  O8  1  0.93595500  0.33864900  0.60736700  1
  O  O9  1  0.78982600  0.25529600  0.31789400  1
  O  O10  1  0.21017400  0.25529600  0.68210700  1
