# generated using pymatgen
data_Cu3H34C53O12
_symmetry_space_group_name_H-M   'P 1'
_cell_length_a   47.37877600
_cell_length_b   35.27230600
_cell_length_c   31.69458900
_cell_angle_alpha   90.00000000
_cell_angle_beta   132.11361300
_cell_angle_gamma   90.00000000
_symmetry_Int_Tables_number   1
_chemical_formula_structural   Cu3H34C53O12
_chemical_formula_sum   'Cu12 H136 C212 O48'
_cell_volume   39291.56457542
_cell_formula_units_Z   4
loop_
 _symmetry_equiv_pos_site_id
 _symmetry_equiv_pos_as_xyz
  1  'x, y, z'
loop_
 _atom_site_type_symbol
 _atom_site_label
 _atom_site_symmetry_multiplicity
 _atom_site_fract_x
 _atom_site_fract_y
 _atom_site_fract_z
 _atom_site_occupancy
  Cu  Cu1  1  0.00000000  0.04069500  0.50000000  1
  Cu  Cu2  1  0.50000000  0.54069500  0.50000000  1
  Cu  Cu3  1  0.00000000  0.96665900  0.50000000  1
  Cu  Cu4  1  0.50000000  0.46665900  0.50000000  1
  Cu  Cu5  1  0.03790700  0.00055300  0.03730200  1
  Cu  Cu6  1  0.96209300  0.00055300  0.96269800  1
  Cu  Cu7  1  0.53790700  0.50055300  0.03730200  1
  Cu  Cu8  1  0.46209300  0.50055300  0.96269800  1
  Cu  Cu9  1  0.50001000  0.00047100  0.95883600  1
  Cu  Cu10  1  0.49999000  0.00047100  0.04116400  1
  Cu  Cu11  1  0.00001000  0.50047100  0.95883600  1
  Cu  Cu12  1  0.99999000  0.50047100  0.04116400  1
  H  H1  1  0.04941700  0.04111800  0.27598700  1
  H  H2  1  0.95058300  0.04111800  0.72401300  1
  H  H3  1  0.54941700  0.54111800  0.27598700  1
  H  H4  1  0.45058300  0.54111800  0.72401300  1
  H  H5  1  0.03218900  0.05644800  0.32367300  1
  H  H6  1  0.96781100  0.05644800  0.67632700  1
  H  H7  1  0.53218900  0.55644800  0.32367300  1
  H  H8  1  0.46781100  0.55644800  0.67632700  1
  H  H9  1  0.02913400  0.94892000  0.31917200  1
  H  H10  1  0.97086600  0.94892000  0.68082800  1
  H  H11  1  0.52913400  0.44892000  0.31917200  1
  H  H12  1  0.47086600  0.44892000  0.68082800  1
  H  H13  1  0.06037900  0.98896000  0.34280000  1
  H  H14  1  0.93962100  0.98896000  0.65720000  1
  H  H15  1  0.56037900  0.48896000  0.34280000  1
  H  H16  1  0.43962100  0.48896000  0.65720000  1
  H  H17  1  0.05654700  0.97429300  0.26885000  1
  H  H18  1  0.94345300  0.97429300  0.73115000  1
  H  H19  1  0.55654700  0.47429300  0.26885000  1
  H  H20  1  0.44345300  0.47429300  0.73115000  1
  H  H21  1  0.01546000  0.94436000  0.23537400  1
  H  H22  1  0.98454000  0.94436000  0.76462600  1
  H  H23  1  0.51546000  0.44436000  0.23537400  1
  H  H24  1  0.48454000  0.44436000  0.76462600  1
  H  H25  1  0.93980800  0.00646900  0.22846600  1
  H  H26  1  0.06019200  0.00646900  0.77153400  1
  H  H27  1  0.43980800  0.50646900  0.22846600  1
  H  H28  1  0.56019200  0.50646900  0.77153400  1
  H  H29  1  0.95943600  0.95958900  0.24063700  1
  H  H30  1  0.04056400  0.95958900  0.75936200  1
  H  H31  1  0.45943600  0.45958900  0.24063700  1
  H  H32  1  0.54056400  0.45958900  0.75936200  1
  H  H33  1  0.94301900  0.01977400  0.16179800  1
  H  H34  1  0.05698100  0.01977400  0.83820300  1
  H  H35  1  0.44301900  0.51977400  0.16179800  1
  H  H36  1  0.55698100  0.51977400  0.83820300  1
  H  H37  1  0.98214900  0.06057700  0.26121400  1
  H  H38  1  0.01785100  0.06057700  0.73878600  1
  H  H39  1  0.48214900  0.56057700  0.26121400  1
  H  H40  1  0.51785100  0.56057700  0.73878600  1
  H  H41  1  0.95098400  0.97000500  0.16229800  1
  H  H42  1  0.04901600  0.97000500  0.83770100  1
  H  H43  1  0.45098400  0.47000500  0.16229800  1
  H  H44  1  0.54901600  0.47000500  0.83770100  1
  H  H45  1  0.31194300  0.98183700  0.87537900  1
  H  H46  1  0.68805700  0.98183700  0.12462100  1
  H  H47  1  0.81194300  0.48183700  0.87537900  1
  H  H48  1  0.18805700  0.48183700  0.12462100  1
  H  H49  1  0.38130500  0.98083800  0.94504500  1
  H  H50  1  0.61869500  0.98083800  0.05495500  1
  H  H51  1  0.88130500  0.48083800  0.94504500  1
  H  H52  1  0.11869500  0.48083800  0.05495500  1
  H  H53  1  0.38130200  0.02112600  0.81744000  1
  H  H54  1  0.61869800  0.02112600  0.18256000  1
  H  H55  1  0.88130200  0.52112600  0.81744000  1
  H  H56  1  0.11869800  0.52112600  0.18256000  1
  H  H57  1  0.31194200  0.02182500  0.74870300  1
  H  H58  1  0.68805800  0.02182500  0.25129700  1
  H  H59  1  0.81194200  0.52182500  0.74870300  1
  H  H60  1  0.18805800  0.52182500  0.25129700  1
  H  H61  1  0.18787600  0.94617600  0.71046700  1
  H  H62  1  0.81212400  0.94617600  0.28953300  1
  H  H63  1  0.68787600  0.44617600  0.71046700  1
  H  H64  1  0.31212400  0.44617600  0.28953300  1
  H  H65  1  0.11853400  0.94613400  0.64138900  1
  H  H66  1  0.88146600  0.94613400  0.35861200  1
  H  H67  1  0.61853400  0.44613400  0.64138900  1
  H  H68  1  0.38146600  0.44613400  0.35861200  1
  H  H69  1  0.11898900  0.06089000  0.59731700  1
  H  H70  1  0.88101100  0.06089000  0.40268300  1
  H  H71  1  0.61898900  0.56089000  0.59731700  1
  H  H72  1  0.38101100  0.56089000  0.40268300  1
  H  H73  1  0.18837600  0.06009700  0.66677200  1
  H  H74  1  0.81162400  0.06009700  0.33322800  1
  H  H75  1  0.68837600  0.56009700  0.66677200  1
  H  H76  1  0.31162400  0.56009700  0.33322800  1
  H  H77  1  0.48014100  0.81281700  0.91667600  1
  H  H78  1  0.51985900  0.81281700  0.08332400  1
  H  H79  1  0.98014100  0.31281700  0.91667600  1
  H  H80  1  0.01985900  0.31281700  0.08332400  1
  H  H81  1  0.47999500  0.88195500  0.91608500  1
  H  H82  1  0.52000500  0.88195500  0.08391500  1
  H  H83  1  0.97999500  0.38195500  0.91608500  1
  H  H84  1  0.02000500  0.38195500  0.08391500  1
  H  H85  1  0.94237800  0.18901300  0.96283500  1
  H  H86  1  0.05762200  0.18901300  0.03716500  1
  H  H87  1  0.44237800  0.68901300  0.96283500  1
  H  H88  1  0.55762200  0.68901300  0.03716500  1
  H  H89  1  0.94209300  0.11980900  0.96287300  1
  H  H90  1  0.05790700  0.11980900  0.03712700  1
  H  H91  1  0.44209300  0.61980900  0.96287300  1
  H  H92  1  0.55790700  0.61980900  0.03712700  1
  H  H93  1  0.47997600  0.18810600  0.04328000  1
  H  H94  1  0.52002400  0.18810600  0.95672000  1
  H  H95  1  0.97997600  0.68810600  0.04328000  1
  H  H96  1  0.02002400  0.68810600  0.95672000  1
  H  H97  1  0.47983000  0.11897000  0.04358000  1
  H  H98  1  0.52016900  0.11897000  0.95642000  1
  H  H99  1  0.97983000  0.61897000  0.04358000  1
  H  H100  1  0.02016900  0.61897000  0.95642000  1
  H  H101  1  0.93957500  0.81189700  0.94355800  1
  H  H102  1  0.06042500  0.81189700  0.05644200  1
  H  H103  1  0.43957500  0.31189700  0.94355800  1
  H  H104  1  0.56042500  0.31189700  0.05644200  1
  H  H105  1  0.93915300  0.88104100  0.94316200  1
  H  H106  1  0.06084700  0.88104100  0.05683800  1
  H  H107  1  0.43915300  0.38104100  0.94316200  1
  H  H108  1  0.56084700  0.38104100  0.05683800  1
  H  H109  1  0.00372000  0.10049200  0.23105100  1
  H  H110  1  0.97242600  0.07241700  0.16848800  1
  H  H111  1  0.98402900  0.13488000  0.14178600  1
  H  H112  1  0.01541400  0.16088900  0.11067800  1
  H  H113  1  0.07336200  0.13084600  0.14102900  1
  H  H114  1  0.09919800  0.07419200  0.20143500  1
  H  H115  1  0.06911700  0.04786100  0.23270400  1
  H  H116  1  0.99628000  0.10049200  0.76895000  1
  H  H117  1  0.02757500  0.07241700  0.83151200  1
  H  H118  1  0.01597100  0.13488000  0.85821400  1
  H  H119  1  0.98458600  0.16088900  0.88932200  1
  H  H120  1  0.92663800  0.13084700  0.85897200  1
  H  H121  1  0.90080200  0.07419200  0.79856500  1
  H  H122  1  0.93088300  0.04786100  0.76729600  1
  H  H123  1  0.50372000  0.60049200  0.23105100  1
  H  H124  1  0.47242600  0.57241700  0.16848800  1
  H  H125  1  0.48402900  0.63488000  0.14178600  1
  H  H126  1  0.51541400  0.66088900  0.11067800  1
  H  H127  1  0.57336200  0.63084600  0.14102900  1
  H  H128  1  0.59919800  0.57419200  0.20143500  1
  H  H129  1  0.56911700  0.54786100  0.23270400  1
  H  H130  1  0.49628000  0.60049200  0.76895000  1
  H  H131  1  0.52757500  0.57241700  0.83151200  1
  H  H132  1  0.51597100  0.63488000  0.85821400  1
  H  H133  1  0.48458600  0.66088900  0.88932200  1
  H  H134  1  0.42663800  0.63084700  0.85897200  1
  H  H135  1  0.40080200  0.57419200  0.79856500  1
  H  H136  1  0.43088300  0.54786100  0.76729600  1
  C  C1  1  0.07210000  0.00366100  0.57259400  1
  C  C2  1  0.92790000  0.00366100  0.42740600  1
  C  C3  1  0.57210000  0.50366100  0.57259400  1
  C  C4  1  0.42790000  0.50366100  0.42740600  1
  C  C5  1  0.00033400  0.00367700  0.42041600  1
  C  C6  1  0.99966600  0.00367700  0.57958400  1
  C  C7  1  0.50033400  0.50367700  0.42041600  1
  C  C8  1  0.49966600  0.50367700  0.57958400  1
  C  C9  1  0.00815900  0.04335700  0.28221900  1
  C  C10  1  0.99184200  0.04335700  0.71778100  1
  C  C11  1  0.50815900  0.54335700  0.28221900  1
  C  C12  1  0.49184200  0.54335700  0.71778100  1
  C  C13  1  0.03202500  0.97700600  0.30668600  1
  C  C14  1  0.96797500  0.97700600  0.69331400  1
  C  C15  1  0.53202500  0.47700600  0.30668600  1
  C  C16  1  0.46797500  0.47700600  0.69331400  1
  C  C17  1  0.02809900  0.97241500  0.25532500  1
  C  C18  1  0.97190100  0.97241500  0.74467500  1
  C  C19  1  0.52809900  0.47241500  0.25532500  1
  C  C20  1  0.47190100  0.47241500  0.74467500  1
  C  C21  1  0.00159400  0.00112900  0.12787600  1
  C  C22  1  0.99840600  0.00112900  0.87212400  1
  C  C23  1  0.50159400  0.50112900  0.12787600  1
  C  C24  1  0.49840600  0.50112900  0.87212400  1
  C  C25  1  0.00117000  0.00355600  0.29161300  1
  C  C26  1  0.99883000  0.00355600  0.70838700  1
  C  C27  1  0.50117000  0.50355600  0.29161300  1
  C  C28  1  0.49883000  0.50355600  0.70838700  1
  C  C29  1  0.01801200  0.04127600  0.24549900  1
  C  C30  1  0.98198800  0.04127600  0.75450100  1
  C  C31  1  0.51801200  0.54127600  0.24549900  1
  C  C32  1  0.48198800  0.54127600  0.75450100  1
  C  C33  1  0.00246800  0.00355600  0.21299900  1
  C  C34  1  0.99753200  0.00355600  0.78700100  1
  C  C35  1  0.50246800  0.50355600  0.21299900  1
  C  C36  1  0.49753200  0.50355600  0.78700100  1
  C  C37  1  0.96231700  0.99597100  0.18885400  1
  C  C38  1  0.03768300  0.99597100  0.81114600  1
  C  C39  1  0.46231700  0.49597100  0.18885400  1
  C  C40  1  0.53768300  0.49597100  0.81114600  1
  C  C41  1  0.96316900  0.99010000  0.23701700  1
  C  C42  1  0.03683100  0.99010000  0.76298300  1
  C  C43  1  0.46316900  0.49010000  0.23701700  1
  C  C44  1  0.53683100  0.49010000  0.76298300  1
  C  C45  1  0.00213700  0.00222200  0.16645500  1
  C  C46  1  0.99786300  0.00222200  0.83354500  1
  C  C47  1  0.50213700  0.50222200  0.16645500  1
  C  C48  1  0.49786300  0.50222200  0.83354500  1
  C  C49  1  0.00081300  0.00368300  0.33748300  1
  C  C50  1  0.99918700  0.00368300  0.66251700  1
  C  C51  1  0.50081300  0.50368300  0.33748300  1
  C  C52  1  0.49918700  0.50368300  0.66251700  1
  C  C53  1  0.00057300  0.00370000  0.37530400  1
  C  C54  1  0.99942700  0.00370000  0.62469600  1
  C  C55  1  0.50057300  0.50370000  0.37530400  1
  C  C56  1  0.49942700  0.50370000  0.62469600  1
  C  C57  1  0.32737300  0.99042800  0.86294000  1
  C  C58  1  0.67262700  0.99042800  0.13706000  1
  C  C59  1  0.82737300  0.49042800  0.86294000  1
  C  C60  1  0.17262700  0.49042800  0.13706000  1
  C  C61  1  0.36655000  0.98991400  0.90211000  1
  C  C62  1  0.63344900  0.98991400  0.09789000  1
  C  C63  1  0.86655000  0.48991400  0.90211000  1
  C  C64  1  0.13344900  0.48991400  0.09789000  1
  C  C65  1  0.38633600  0.00091100  0.88626000  1
  C  C66  1  0.61366400  0.00091100  0.11374000  1
  C  C67  1  0.88633600  0.50091100  0.88626000  1
  C  C68  1  0.11366400  0.50091100  0.11374000  1
  C  C69  1  0.36654900  0.01237100  0.83092100  1
  C  C70  1  0.63345100  0.01237100  0.16907900  1
  C  C71  1  0.86654900  0.51237100  0.83092100  1
  C  C72  1  0.13345100  0.51237100  0.16907900  1
  C  C73  1  0.32737100  0.01284000  0.79192400  1
  C  C74  1  0.67262900  0.01284000  0.20807600  1
  C  C75  1  0.82737100  0.51284000  0.79192400  1
  C  C76  1  0.17262900  0.51284000  0.20807600  1
  C  C77  1  0.30784500  0.00190100  0.80796100  1
  C  C78  1  0.69215500  0.00190100  0.19203900  1
  C  C79  1  0.80784500  0.50190100  0.80796100  1
  C  C80  1  0.19215500  0.50190100  0.19203900  1
  C  C81  1  0.26714000  0.00241800  0.76736800  1
  C  C82  1  0.73286000  0.00241800  0.23263200  1
  C  C83  1  0.76714000  0.50241800  0.76736800  1
  C  C84  1  0.23286000  0.50241800  0.23263200  1
  C  C85  1  0.23293000  0.00279000  0.73326900  1
  C  C86  1  0.76707000  0.00279000  0.26673100  1
  C  C87  1  0.73293000  0.50279000  0.73326900  1
  C  C88  1  0.26707000  0.50279000  0.26673100  1
  C  C89  1  0.17255500  0.97129700  0.68547800  1
  C  C90  1  0.82744500  0.97129700  0.31452200  1
  C  C91  1  0.67255500  0.47129700  0.68547800  1
  C  C92  1  0.32744500  0.47129700  0.31452200  1
  C  C93  1  0.13338200  0.97143600  0.64638500  1
  C  C94  1  0.86661800  0.97143600  0.35361500  1
  C  C95  1  0.63338200  0.47143600  0.64638500  1
  C  C96  1  0.36661800  0.47143600  0.35361500  1
  C  C97  1  0.11372700  0.00354500  0.61432500  1
  C  C98  1  0.88627300  0.00354500  0.38567500  1
  C  C99  1  0.61372700  0.50354500  0.61432500  1
  C  C100  1  0.38627300  0.50354500  0.38567500  1
  C  C101  1  0.13364800  0.03545600  0.62183200  1
  C  C102  1  0.86635200  0.03545600  0.37816800  1
  C  C103  1  0.63364800  0.53545600  0.62183200  1
  C  C104  1  0.36635200  0.53545600  0.37816800  1
  C  C105  1  0.17283500  0.03516200  0.66098700  1
  C  C106  1  0.82716500  0.03516200  0.33901300  1
  C  C107  1  0.67283500  0.53516200  0.66098700  1
  C  C108  1  0.32716500  0.53516200  0.33901300  1
  C  C109  1  0.19222400  0.00310800  0.69271300  1
  C  C110  1  0.80777600  0.00310800  0.30728700  1
  C  C111  1  0.69222400  0.50310800  0.69271300  1
  C  C112  1  0.30777600  0.50310800  0.30728700  1
  C  C113  1  0.00000000  0.07338500  0.00000000  1
  C  C114  1  0.50000000  0.57338500  0.00000000  1
  C  C115  1  0.00094800  0.00029000  0.08193300  1
  C  C116  1  0.99905200  0.00029000  0.91806700  1
  C  C117  1  0.50094800  0.50029000  0.08193300  1
  C  C118  1  0.49905200  0.50029000  0.91806700  1
  C  C119  1  0.00000000  0.92766200  0.00000000  1
  C  C120  1  0.50000000  0.42766200  0.00000000  1
  C  C121  1  0.50000000  0.92859600  0.00000000  1
  C  C122  1  0.00000000  0.42859600  0.00000000  1
  C  C123  1  0.42795800  0.00058600  0.92785300  1
  C  C124  1  0.57204200  0.00058600  0.07214700  1
  C  C125  1  0.92795800  0.50058600  0.92785300  1
  C  C126  1  0.07204200  0.50058600  0.07214700  1
  C  C127  1  0.50000000  0.07234100  0.00000000  1
  C  C128  1  0.00000000  0.57234100  0.00000000  1
  C  C129  1  0.48887400  0.82816900  0.95331000  1
  C  C130  1  0.51112600  0.82816900  0.04669000  1
  C  C131  1  0.98887400  0.32816900  0.95331000  1
  C  C132  1  0.01112600  0.32816900  0.04669000  1
  C  C133  1  0.48885000  0.86725200  0.95320500  1
  C  C134  1  0.51115000  0.86725200  0.04679500  1
  C  C135  1  0.98885000  0.36725200  0.95320500  1
  C  C136  1  0.01115000  0.36725200  0.04679500  1
  C  C137  1  0.50000000  0.88703200  0.00000000  1
  C  C138  1  0.00000000  0.38703200  0.00000000  1
  C  C139  1  0.50000000  0.80863800  0.00000000  1
  C  C140  1  0.00000000  0.30863800  0.00000000  1
  C  C141  1  0.50000000  0.76798200  0.00000000  1
  C  C142  1  0.00000000  0.26798200  0.00000000  1
  C  C143  1  0.00000000  0.23383700  0.00000000  1
  C  C144  1  0.50000000  0.73383700  0.00000000  1
  C  C145  1  0.96770300  0.17367000  0.97914200  1
  C  C146  1  0.03229700  0.17367000  0.02085800  1
  C  C147  1  0.46770300  0.67367000  0.97914200  1
  C  C148  1  0.53229700  0.67367000  0.02085800  1
  C  C149  1  0.96765000  0.13460200  0.97913600  1
  C  C150  1  0.03235000  0.13460200  0.02086400  1
  C  C151  1  0.46765000  0.63460200  0.97913600  1
  C  C152  1  0.53235000  0.63460200  0.02086400  1
  C  C153  1  0.00000000  0.11487800  0.00000000  1
  C  C154  1  0.50000000  0.61487800  0.00000000  1
  C  C155  1  0.00000000  0.19319100  0.00000000  1
  C  C156  1  0.50000000  0.69319100  0.00000000  1
  C  C157  1  0.48878100  0.17275300  0.02425500  1
  C  C158  1  0.51121900  0.17275300  0.97574500  1
  C  C159  1  0.98878100  0.67275300  0.02425500  1
  C  C160  1  0.01121900  0.67275300  0.97574500  1
  C  C161  1  0.48876000  0.13367300  0.02431600  1
  C  C162  1  0.51124000  0.13367300  0.97568400  1
  C  C163  1  0.98876000  0.63367300  0.02431600  1
  C  C164  1  0.01124000  0.63367300  0.97568400  1
  C  C165  1  0.50000000  0.11389900  0.00000000  1
  C  C166  1  0.00000000  0.61389900  0.00000000  1
  C  C167  1  0.50000000  0.19227900  0.00000000  1
  C  C168  1  0.00000000  0.69227900  0.00000000  1
  C  C169  1  0.50000000  0.23293000  0.00000000  1
  C  C170  1  0.00000000  0.73293000  0.00000000  1
  C  C171  1  0.00000000  0.76707300  0.00000000  1
  C  C172  1  0.50000000  0.26707300  0.00000000  1
  C  C173  1  0.96614000  0.82725000  0.96837100  1
  C  C174  1  0.03386000  0.82725000  0.03162900  1
  C  C175  1  0.46614000  0.32725000  0.96837100  1
  C  C176  1  0.53386000  0.32725000  0.03162900  1
  C  C177  1  0.96606300  0.86633100  0.96829700  1
  C  C178  1  0.03393700  0.86633100  0.03170300  1
  C  C179  1  0.46606300  0.36633100  0.96829700  1
  C  C180  1  0.53393700  0.36633100  0.03170300  1
  C  C181  1  0.00000000  0.88610400  0.00000000  1
  C  C182  1  0.50000000  0.38610400  0.00000000  1
  C  C183  1  0.00000000  0.80772400  0.00000000  1
  C  C184  1  0.50000000  0.30772400  0.00000000  1
  C  C185  1  0.00266100  0.07654900  0.20735400  1
  C  C186  1  0.02379900  0.08970800  0.18978100  1
  C  C187  1  0.00937200  0.12132100  0.15512800  1
  C  C188  1  0.02696900  0.13603700  0.13754600  1
  C  C189  1  0.05934200  0.11922600  0.15440600  1
  C  C190  1  0.07389800  0.08756200  0.18849400  1
  C  C191  1  0.05651000  0.07283800  0.20644100  1
  C  C192  1  0.99733900  0.07654900  0.79264600  1
  C  C193  1  0.97620100  0.08970800  0.81022000  1
  C  C194  1  0.99062800  0.12132100  0.84487300  1
  C  C195  1  0.97303100  0.13603700  0.86245400  1
  C  C196  1  0.94065800  0.11922700  0.84559400  1
  C  C197  1  0.92610200  0.08756200  0.81150600  1
  C  C198  1  0.94349000  0.07283800  0.79355900  1
  C  C199  1  0.50266100  0.57654900  0.20735400  1
  C  C200  1  0.52379900  0.58970800  0.18978100  1
  C  C201  1  0.50937200  0.62132100  0.15512800  1
  C  C202  1  0.52696900  0.63603700  0.13754600  1
  C  C203  1  0.55934200  0.61922600  0.15440600  1
  C  C204  1  0.57389800  0.58756200  0.18849400  1
  C  C205  1  0.55651000  0.57283800  0.20644100  1
  C  C206  1  0.49733900  0.57654900  0.79264600  1
  C  C207  1  0.47620100  0.58970800  0.81022000  1
  C  C208  1  0.49062800  0.62132100  0.84487300  1
  C  C209  1  0.47303100  0.63603700  0.86245400  1
  C  C210  1  0.44065800  0.61922700  0.84559400  1
  C  C211  1  0.42610200  0.58756200  0.81150600  1
  C  C212  1  0.44349000  0.57283800  0.79355900  1
  O  O1  1  0.05429500  0.03490800  0.54297200  1
  O  O2  1  0.94570500  0.03490800  0.45702800  1
  O  O3  1  0.55429500  0.53490800  0.54297200  1
  O  O4  1  0.44570500  0.53490800  0.45702800  1
  O  O5  1  0.05422600  0.97243300  0.56633500  1
  O  O6  1  0.94577400  0.97243300  0.43366500  1
  O  O7  1  0.55422600  0.47243300  0.56633500  1
  O  O8  1  0.44577400  0.47243300  0.43366500  1
  O  O9  1  0.98967600  0.03494000  0.42941800  1
  O  O10  1  0.01032400  0.03494000  0.57058200  1
  O  O11  1  0.48967600  0.53494000  0.42941800  1
  O  O12  1  0.51032400  0.53494000  0.57058200  1
  O  O13  1  0.01082400  0.97240800  0.45072500  1
  O  O14  1  0.98917600  0.97240800  0.54927500  1
  O  O15  1  0.51082400  0.47240800  0.45072500  1
  O  O16  1  0.48917600  0.47240800  0.54927500  1
  O  O17  1  0.03276600  0.05565800  0.03028800  1
  O  O18  1  0.96723400  0.05565800  0.96971300  1
  O  O19  1  0.53276600  0.55565800  0.03028800  1
  O  O20  1  0.46723400  0.55565800  0.96971300  1
  O  O21  1  0.03342500  0.00215900  0.09421600  1
  O  O22  1  0.96657500  0.00215900  0.90578400  1
  O  O23  1  0.53342500  0.50215900  0.09421600  1
  O  O24  1  0.46657500  0.50215900  0.90578400  1
  O  O25  1  0.96786500  0.00181700  0.02975300  1
  O  O26  1  0.03213500  0.00181700  0.97024700  1
  O  O27  1  0.46786500  0.50181700  0.02975300  1
  O  O28  1  0.53213500  0.50181700  0.97024700  1
  O  O29  1  0.03270700  0.94544500  0.03064300  1
  O  O30  1  0.96729300  0.94544500  0.96935700  1
  O  O31  1  0.53270700  0.44544500  0.03064300  1
  O  O32  1  0.46729300  0.44544500  0.96935700  1
  O  O33  1  0.48938600  0.94642100  0.95462300  1
  O  O34  1  0.51061400  0.94642100  0.04537700  1
  O  O35  1  0.98938600  0.44642100  0.95462300  1
  O  O36  1  0.01061400  0.44642100  0.04537700  1
  O  O37  1  0.44578700  0.01109200  0.91095100  1
  O  O38  1  0.55421300  0.01109200  0.08904900  1
  O  O39  1  0.94578700  0.51109200  0.91095100  1
  O  O40  1  0.05421300  0.51109200  0.08904900  1
  O  O41  1  0.44581000  0.98989600  0.98044100  1
  O  O42  1  0.55419000  0.98989600  0.01955900  1
  O  O43  1  0.94581000  0.48989600  0.98044100  1
  O  O44  1  0.05419000  0.48989600  0.01955900  1
  O  O45  1  0.51063200  0.05452000  0.97592700  1
  O  O46  1  0.48936800  0.05452000  0.02407300  1
  O  O47  1  0.01063200  0.55452000  0.97592700  1
  O  O48  1  0.98936800  0.55452000  0.02407300  1
