# generated using pymatgen
data_ZnH8C15(NO2)3
_symmetry_space_group_name_H-M   'P 1'
_cell_length_a   15.00448700
_cell_length_b   8.54633000
_cell_length_c   11.30342600
_cell_angle_alpha   90.00000000
_cell_angle_beta   95.01824600
_cell_angle_gamma   90.00000000
_symmetry_Int_Tables_number   1
_chemical_formula_structural   ZnH8C15(NO2)3
_chemical_formula_sum   'Zn2 H16 C30 N6 O12'
_cell_volume   1443.91959209
_cell_formula_units_Z   2
loop_
 _symmetry_equiv_pos_site_id
 _symmetry_equiv_pos_as_xyz
  1  'x, y, z'
loop_
 _atom_site_type_symbol
 _atom_site_label
 _atom_site_symmetry_multiplicity
 _atom_site_fract_x
 _atom_site_fract_y
 _atom_site_fract_z
 _atom_site_occupancy
  Zn  Zn1  1  0.48634100  0.48566600  0.86779300  1
  Zn  Zn2  1  0.51365900  0.48566600  0.13220800  1
  H  H1  1  0.44058000  0.98551300  0.04372400  1
  H  H2  1  0.55942000  0.98551300  0.95627600  1
  H  H3  1  0.19778400  0.23687300  0.98745600  1
  H  H4  1  0.80232100  0.73449700  0.01253400  1
  H  H5  1  0.80221600  0.23687300  0.01254400  1
  H  H6  1  0.19767900  0.73449700  0.98746700  1
  H  H7  1  0.66809100  0.49367100  0.29905600  1
  H  H8  1  0.33191000  0.49367100  0.70094400  1
  H  H9  1  0.38919600  0.47845200  0.29450800  1
  H  H10  1  0.61080400  0.47845200  0.70549200  1
  H  H11  1  0.14817800  0.54197800  0.35873800  1
  H  H12  1  0.19502700  0.64239700  0.23742200  1
  H  H13  1  0.15560700  0.75348100  0.35893200  1
  H  H14  1  0.85182200  0.54197800  0.64126200  1
  H  H15  1  0.80497300  0.64239700  0.76257800  1
  H  H16  1  0.84439300  0.75348100  0.64106800  1
  C  C1  1  0.32487500  0.12517000  0.00999400  1
  C  C2  1  0.67519500  0.84602900  0.98998500  1
  C  C3  1  0.67512500  0.12517000  0.99000600  1
  C  C4  1  0.32480500  0.84602900  0.01001500  1
  C  C5  1  0.23270000  0.12624500  0.99482500  1
  C  C6  1  0.76736300  0.84508400  0.00516300  1
  C  C7  1  0.76730000  0.12624500  0.00517500  1
  C  C8  1  0.23263700  0.84508400  0.99483700  1
  C  C9  1  0.18620000  0.98569500  0.99349200  1
  C  C10  1  0.81380000  0.98569500  0.00650800  1
  C  C11  1  0.36930300  0.98556700  0.02534900  1
  C  C12  1  0.63069800  0.98556700  0.97465100  1
  C  C13  1  0.54708200  0.48861800  0.65416000  1
  C  C14  1  0.45291800  0.48861800  0.34584000  1
  C  C15  1  0.91141000  0.98572800  0.00612800  1
  C  C16  1  0.08859000  0.98572800  0.99387200  1
  C  C17  1  0.38238200  0.50017600  0.53043700  1
  C  C18  1  0.61761800  0.50017600  0.46956300  1
  C  C19  1  0.54156200  0.49720100  0.53136100  1
  C  C20  1  0.45843800  0.49720100  0.46863900  1
  C  C21  1  0.39100000  0.49164300  0.65269700  1
  C  C22  1  0.60900000  0.49164300  0.34730300  1
  C  C23  1  0.37850000  0.70383300  0.00625400  1
  C  C24  1  0.62135700  0.26729300  0.99375100  1
  C  C25  1  0.62150000  0.70383300  0.99374600  1
  C  C26  1  0.37864300  0.26729300  0.00624900  1
  C  C27  1  0.27937200  0.63417500  0.39925700  1
  C  C28  1  0.18876500  0.64361000  0.33445200  1
  C  C29  1  0.72062800  0.63417500  0.60074400  1
  C  C30  1  0.81123500  0.64361000  0.66554800  1
  N  N1  1  0.52753900  0.48596900  0.28775600  1
  N  N2  1  0.47246100  0.48596900  0.71224400  1
  N  N3  1  0.04382200  0.84964600  0.99725000  1
  N  N4  1  0.95617600  0.12181600  0.00275000  1
  N  N5  1  0.95617800  0.84964600  0.00275100  1
  N  N6  1  0.04382400  0.12181600  0.99725000  1
  O  O1  1  0.42040500  0.65469700  0.10594400  1
  O  O2  1  0.57943400  0.31632700  0.89394000  1
  O  O3  1  0.57959500  0.65469700  0.89405600  1
  O  O4  1  0.42056600  0.31632700  0.10606000  1
  O  O5  1  0.39503900  0.64909000  0.90182100  1
  O  O6  1  0.60496100  0.32217900  0.09828800  1
  O  O7  1  0.60496200  0.64909000  0.09817900  1
  O  O8  1  0.39503900  0.32217800  0.90171200  1
  O  O9  1  0.29985200  0.51457300  0.47448000  1
  O  O10  1  0.33445000  0.73606100  0.38576100  1
  O  O11  1  0.70014800  0.51457300  0.52552000  1
  O  O12  1  0.66555000  0.73606100  0.61423900  1
