# generated using pymatgen
data_ZnH24C33(NO)4
_symmetry_space_group_name_H-M   'P 1'
_cell_length_a   24.24690800
_cell_length_b   24.25132000
_cell_length_c   15.91103100
_cell_angle_alpha   90.00000000
_cell_angle_beta   91.27679400
_cell_angle_gamma   90.00000000
_symmetry_Int_Tables_number   1
_chemical_formula_structural   ZnH24C33(NO)4
_chemical_formula_sum   'Zn4 H96 C132 N16 O16'
_cell_volume   9353.67394686
_cell_formula_units_Z   4
loop_
 _symmetry_equiv_pos_site_id
 _symmetry_equiv_pos_as_xyz
  1  'x, y, z'
loop_
 _atom_site_type_symbol
 _atom_site_label
 _atom_site_symmetry_multiplicity
 _atom_site_fract_x
 _atom_site_fract_y
 _atom_site_fract_z
 _atom_site_occupancy
  Zn  Zn1  1  0.49734700  0.99902200  0.59516700  1
  Zn  Zn2  1  0.50265300  0.99902200  0.40483200  1
  Zn  Zn3  1  0.99734700  0.49902200  0.59516700  1
  Zn  Zn4  1  0.00265300  0.49902200  0.40483200  1
  H  H1  1  0.32212800  0.21827400  0.60357400  1
  H  H2  1  0.67786900  0.77976800  0.39642700  1
  H  H3  1  0.67787200  0.21827400  0.39642600  1
  H  H4  1  0.32213100  0.77976800  0.60357200  1
  H  H5  1  0.82212800  0.71827400  0.60357400  1
  H  H6  1  0.17786900  0.27976800  0.39642700  1
  H  H7  1  0.17787200  0.71827400  0.39642600  1
  H  H8  1  0.82213100  0.27976800  0.60357200  1
  H  H9  1  0.71431900  0.82986200  0.64946800  1
  H  H10  1  0.28567800  0.16817900  0.35053300  1
  H  H11  1  0.28568100  0.82986200  0.35053100  1
  H  H12  1  0.71432200  0.16817900  0.64946600  1
  H  H13  1  0.21431900  0.32986200  0.64946800  1
  H  H14  1  0.78567800  0.66817900  0.35053300  1
  H  H15  1  0.78568100  0.32986200  0.35053100  1
  H  H16  1  0.21432200  0.66817900  0.64946600  1
  H  H17  1  0.64083800  0.89784600  0.63989500  1
  H  H18  1  0.35916100  0.10019700  0.36010600  1
  H  H19  1  0.35916200  0.89784600  0.36010500  1
  H  H20  1  0.64083900  0.10019700  0.63989400  1
  H  H21  1  0.14083800  0.39784600  0.63989500  1
  H  H22  1  0.85916100  0.60019700  0.36010600  1
  H  H23  1  0.85916200  0.39784600  0.36010500  1
  H  H24  1  0.14083900  0.60019700  0.63989400  1
  H  H25  1  0.57875900  0.99901900  0.74037100  1
  H  H26  1  0.42124100  0.99901900  0.25962900  1
  H  H27  1  0.07875900  0.49901900  0.74037100  1
  H  H28  1  0.92124100  0.49901900  0.25962900  1
  H  H29  1  0.57361800  0.99901900  0.89192700  1
  H  H30  1  0.42638200  0.99901900  0.10807200  1
  H  H31  1  0.07361800  0.49901900  0.89192700  1
  H  H32  1  0.92638200  0.49901900  0.10807200  1
  H  H33  1  0.60283200  0.99902500  0.13184100  1
  H  H34  1  0.39716800  0.99902500  0.86815800  1
  H  H35  1  0.10283200  0.49902500  0.13184100  1
  H  H36  1  0.89716800  0.49902500  0.86815800  1
  H  H37  1  0.59408700  0.99902500  0.28506700  1
  H  H38  1  0.40591300  0.99902500  0.71493300  1
  H  H39  1  0.09408700  0.49902500  0.28506700  1
  H  H40  1  0.90591300  0.49902500  0.71493300  1
  H  H41  1  0.33774500  0.13277300  0.71068500  1
  H  H42  1  0.39350500  0.13169900  0.84061300  1
  H  H43  1  0.47786200  0.14007600  0.91257100  1
  H  H44  1  0.52041300  0.19409400  0.87000300  1
  H  H45  1  0.53712400  0.12258800  0.85107700  1
  H  H46  1  0.53579400  0.17578800  0.70258100  1
  H  H47  1  0.47967300  0.17744500  0.57249800  1
  H  H48  1  0.52032500  0.82059900  0.42750100  1
  H  H49  1  0.46420500  0.82225700  0.29741600  1
  H  H50  1  0.46287600  0.87545600  0.14892000  1
  H  H51  1  0.47958800  0.80395100  0.12999400  1
  H  H52  1  0.52213900  0.85796800  0.08742700  1
  H  H53  1  0.60649600  0.86634600  0.15938700  1
  H  H54  1  0.66225400  0.86527100  0.28931700  1
  H  H55  1  0.66225500  0.13277300  0.28931500  1
  H  H56  1  0.60649500  0.13169900  0.15938700  1
  H  H57  1  0.52213800  0.14007600  0.08742900  1
  H  H58  1  0.47958700  0.19409400  0.12999600  1
  H  H59  1  0.46287600  0.12258800  0.14892200  1
  H  H60  1  0.46420600  0.17578800  0.29741800  1
  H  H61  1  0.52032700  0.17744500  0.42750200  1
  H  H62  1  0.47967500  0.82059900  0.57249900  1
  H  H63  1  0.53579500  0.82225700  0.70258300  1
  H  H64  1  0.53712400  0.87545600  0.85108000  1
  H  H65  1  0.52041200  0.80395100  0.87000500  1
  H  H66  1  0.47786100  0.85796800  0.91257200  1
  H  H67  1  0.39350400  0.86634600  0.84061200  1
  H  H68  1  0.33774600  0.86527100  0.71068300  1
  H  H69  1  0.83774500  0.63277300  0.71068500  1
  H  H70  1  0.89350500  0.63169900  0.84061300  1
  H  H71  1  0.97786200  0.64007600  0.91257100  1
  H  H72  1  0.02041300  0.69409400  0.87000300  1
  H  H73  1  0.03712400  0.62258800  0.85107700  1
  H  H74  1  0.03579400  0.67578800  0.70258100  1
  H  H75  1  0.97967300  0.67744500  0.57249800  1
  H  H76  1  0.02032500  0.32059900  0.42750100  1
  H  H77  1  0.96420500  0.32225700  0.29741600  1
  H  H78  1  0.96287600  0.37545600  0.14892000  1
  H  H79  1  0.97958800  0.30395100  0.12999400  1
  H  H80  1  0.02213900  0.35796800  0.08742700  1
  H  H81  1  0.10649600  0.36634600  0.15938700  1
  H  H82  1  0.16225400  0.36527100  0.28931700  1
  H  H83  1  0.16225500  0.63277300  0.28931500  1
  H  H84  1  0.10649500  0.63169900  0.15938700  1
  H  H85  1  0.02213800  0.64007600  0.08742900  1
  H  H86  1  0.97958700  0.69409400  0.12999600  1
  H  H87  1  0.96287600  0.62258800  0.14892200  1
  H  H88  1  0.96420600  0.67578800  0.29741800  1
  H  H89  1  0.02032700  0.67744500  0.42750200  1
  H  H90  1  0.97967500  0.32059900  0.57249900  1
  H  H91  1  0.03579500  0.32225700  0.70258300  1
  H  H92  1  0.03712400  0.37545600  0.85108000  1
  H  H93  1  0.02041200  0.30395100  0.87000500  1
  H  H94  1  0.97786100  0.35796800  0.91257200  1
  H  H95  1  0.89350400  0.36634600  0.84061200  1
  H  H96  1  0.83774600  0.36527100  0.71068300  1
  C  C1  1  0.57554600  0.07632800  0.50839200  1
  C  C2  1  0.42445400  0.92171600  0.49160800  1
  C  C3  1  0.42445400  0.07632800  0.49160800  1
  C  C4  1  0.57554600  0.92171600  0.50839200  1
  C  C5  1  0.07554600  0.57632800  0.50839200  1
  C  C6  1  0.92445400  0.42171600  0.49160800  1
  C  C7  1  0.92445400  0.57632800  0.49160800  1
  C  C8  1  0.07554600  0.42171600  0.50839200  1
  C  C9  1  0.61751700  0.87782900  0.51263800  1
  C  C10  1  0.38248200  0.12021400  0.48736200  1
  C  C11  1  0.38248300  0.87782900  0.48736100  1
  C  C12  1  0.61751800  0.12021400  0.51263800  1
  C  C13  1  0.11751700  0.37782900  0.51263800  1
  C  C14  1  0.88248200  0.62021400  0.48736200  1
  C  C15  1  0.88248300  0.37782900  0.48736100  1
  C  C16  1  0.11751800  0.62021400  0.51263800  1
  C  C17  1  0.62845000  0.84341800  0.44468600  1
  C  C18  1  0.37154800  0.15462500  0.55531400  1
  C  C19  1  0.37155000  0.84341800  0.55531300  1
  C  C20  1  0.62845200  0.15462500  0.44468500  1
  C  C21  1  0.12845000  0.34341800  0.44468600  1
  C  C22  1  0.87154800  0.65462500  0.55531400  1
  C  C23  1  0.87155000  0.34341800  0.55531300  1
  C  C24  1  0.12845200  0.65462500  0.44468500  1
  C  C25  1  0.67110900  0.80572400  0.45043900  1
  C  C26  1  0.32888900  0.19231800  0.54956100  1
  C  C27  1  0.32889100  0.80572400  0.54956000  1
  C  C28  1  0.67111100  0.19231800  0.45043800  1
  C  C29  1  0.17110900  0.30572400  0.45043900  1
  C  C30  1  0.82888900  0.69231800  0.54956100  1
  C  C31  1  0.82889100  0.30572400  0.54956000  1
  C  C32  1  0.17111100  0.69231800  0.45043800  1
  C  C33  1  0.70235800  0.80077400  0.52411100  1
  C  C34  1  0.29763800  0.19726700  0.47589000  1
  C  C35  1  0.29764100  0.80077400  0.47588800  1
  C  C36  1  0.70236200  0.19726700  0.52410900  1
  C  C37  1  0.20235800  0.30077400  0.52411100  1
  C  C38  1  0.79763800  0.69726700  0.47589000  1
  C  C39  1  0.79764100  0.30077400  0.47588800  1
  C  C40  1  0.20236200  0.69726700  0.52410900  1
  C  C41  1  0.69026000  0.83364700  0.59174800  1
  C  C42  1  0.30973700  0.16439400  0.40825300  1
  C  C43  1  0.30974000  0.83364700  0.40825100  1
  C  C44  1  0.69026300  0.16439400  0.59174700  1
  C  C45  1  0.19026000  0.33364700  0.59174800  1
  C  C46  1  0.80973700  0.66439400  0.40825300  1
  C  C47  1  0.80974000  0.33364700  0.40825100  1
  C  C48  1  0.19026300  0.66439400  0.59174700  1
  C  C49  1  0.64830700  0.87180800  0.58622700  1
  C  C50  1  0.35169100  0.12623400  0.41377300  1
  C  C51  1  0.35169300  0.87180800  0.41377200  1
  C  C52  1  0.64830900  0.12623400  0.58622600  1
  C  C53  1  0.14830700  0.37180800  0.58622700  1
  C  C54  1  0.85169100  0.62623400  0.41377300  1
  C  C55  1  0.85169300  0.37180800  0.41377200  1
  C  C56  1  0.14830900  0.62623400  0.58622600  1
  C  C57  1  0.46121300  0.99902000  0.23089000  1
  C  C58  1  0.53878700  0.99902000  0.76910900  1
  C  C59  1  0.96121300  0.49902000  0.23089000  1
  C  C60  1  0.03878700  0.49902000  0.76910900  1
  C  C61  1  0.46456700  0.99902100  0.14443700  1
  C  C62  1  0.53543300  0.99902100  0.85556200  1
  C  C63  1  0.96456700  0.49902100  0.14443700  1
  C  C64  1  0.03543300  0.49902100  0.85556200  1
  C  C65  1  0.51595900  0.99902200  0.10786300  1
  C  C66  1  0.48404100  0.99902200  0.89213600  1
  C  C67  1  0.01595900  0.49902200  0.10786300  1
  C  C68  1  0.98404100  0.49902200  0.89213600  1
  C  C69  1  0.56241200  0.99902400  0.15912800  1
  C  C70  1  0.43758800  0.99902400  0.84087100  1
  C  C71  1  0.06241200  0.49902400  0.15912800  1
  C  C72  1  0.93758800  0.49902400  0.84087100  1
  C  C73  1  0.55744800  0.99902400  0.24512400  1
  C  C74  1  0.44255200  0.99902400  0.75487500  1
  C  C75  1  0.05744800  0.49902400  0.24512400  1
  C  C76  1  0.94255200  0.49902400  0.75487500  1
  C  C77  1  0.40522500  0.15439500  0.63301900  1
  C  C78  1  0.38119800  0.14251500  0.70873700  1
  C  C79  1  0.41272500  0.14177300  0.78192800  1
  C  C80  1  0.46840500  0.15346300  0.77981500  1
  C  C81  1  0.50295700  0.15246200  0.85831300  1
  C  C82  1  0.49225600  0.16639100  0.70444900  1
  C  C83  1  0.46072000  0.16720700  0.63130000  1
  C  C84  1  0.59477400  0.84364900  0.36698100  1
  C  C85  1  0.53927900  0.83083800  0.36869900  1
  C  C86  1  0.50774400  0.83165300  0.29554900  1
  C  C87  1  0.53159500  0.84458200  0.22018400  1
  C  C88  1  0.49704400  0.84558200  0.14168500  1
  C  C89  1  0.58727500  0.85627200  0.21807200  1
  C  C90  1  0.61880100  0.85552900  0.29126300  1
  C  C91  1  0.59477500  0.15439500  0.36698000  1
  C  C92  1  0.61880200  0.14251500  0.29126200  1
  C  C93  1  0.58727500  0.14177300  0.21807100  1
  C  C94  1  0.53159500  0.15346300  0.22018500  1
  C  C95  1  0.49704300  0.15246200  0.14168700  1
  C  C96  1  0.50774400  0.16639100  0.29555100  1
  C  C97  1  0.53928000  0.16720700  0.36870000  1
  C  C98  1  0.40522600  0.84364900  0.63301900  1
  C  C99  1  0.46072100  0.83083800  0.63130100  1
  C  C100  1  0.49225600  0.83165300  0.70445000  1
  C  C101  1  0.46840500  0.84458200  0.77981600  1
  C  C102  1  0.50295600  0.84558200  0.85831400  1
  C  C103  1  0.41272500  0.85627200  0.78192800  1
  C  C104  1  0.38119900  0.85552900  0.70873600  1
  C  C105  1  0.90522500  0.65439500  0.63301900  1
  C  C106  1  0.88119800  0.64251500  0.70873700  1
  C  C107  1  0.91272500  0.64177300  0.78192800  1
  C  C108  1  0.96840500  0.65346300  0.77981500  1
  C  C109  1  0.00295700  0.65246200  0.85831300  1
  C  C110  1  0.99225600  0.66639100  0.70444900  1
  C  C111  1  0.96072000  0.66720700  0.63130000  1
  C  C112  1  0.09477400  0.34364900  0.36698100  1
  C  C113  1  0.03927900  0.33083800  0.36869900  1
  C  C114  1  0.00774400  0.33165300  0.29554900  1
  C  C115  1  0.03159500  0.34458200  0.22018400  1
  C  C116  1  0.99704400  0.34558200  0.14168500  1
  C  C117  1  0.08727500  0.35627200  0.21807200  1
  C  C118  1  0.11880100  0.35552900  0.29126300  1
  C  C119  1  0.09477500  0.65439500  0.36698000  1
  C  C120  1  0.11880200  0.64251500  0.29126200  1
  C  C121  1  0.08727500  0.64177300  0.21807100  1
  C  C122  1  0.03159500  0.65346300  0.22018500  1
  C  C123  1  0.99704300  0.65246200  0.14168700  1
  C  C124  1  0.00774400  0.66639100  0.29555100  1
  C  C125  1  0.03928000  0.66720700  0.36870000  1
  C  C126  1  0.90522600  0.34364900  0.63301900  1
  C  C127  1  0.96072100  0.33083800  0.63130000  1
  C  C128  1  0.99225600  0.33165300  0.70445000  1
  C  C129  1  0.96840500  0.34458200  0.77981600  1
  C  C130  1  0.00295600  0.34558200  0.85831400  1
  C  C131  1  0.91272500  0.35627200  0.78192800  1
  C  C132  1  0.88119900  0.35552900  0.70873600  1
  N  N1  1  0.74616200  0.76247300  0.53262500  1
  N  N2  1  0.25383500  0.23556700  0.46737700  1
  N  N3  1  0.25383800  0.76247300  0.46737500  1
  N  N4  1  0.74616500  0.23556700  0.53262300  1
  N  N5  1  0.24616200  0.26247300  0.53262500  1
  N  N6  1  0.75383500  0.73556700  0.46737700  1
  N  N7  1  0.75383800  0.26247300  0.46737500  1
  N  N8  1  0.24616500  0.73556700  0.53262300  1
  N  N9  1  0.50729800  0.99902200  0.27958200  1
  N  N10  1  0.49270200  0.99902200  0.72041800  1
  N  N11  1  0.00729800  0.49902200  0.27958200  1
  N  N12  1  0.99270200  0.49902200  0.72041800  1
  N  N13  1  0.52239500  0.99902200  0.01977400  1
  N  N14  1  0.47760500  0.99902200  0.98022500  1
  N  N15  1  0.02239500  0.49902200  0.01977400  1
  N  N16  1  0.97760500  0.49902200  0.98022500  1
  O  O1  1  0.55594900  0.05741300  0.57901800  1
  O  O2  1  0.44405200  0.94063100  0.42098100  1
  O  O3  1  0.44405100  0.05741300  0.42098100  1
  O  O4  1  0.55594800  0.94063100  0.57901800  1
  O  O5  1  0.05594900  0.55741300  0.57901800  1
  O  O6  1  0.94405200  0.44063100  0.42098100  1
  O  O7  1  0.94405100  0.55741300  0.42098100  1
  O  O8  1  0.05594800  0.44063100  0.57901800  1
  O  O9  1  0.55964800  0.05722600  0.43474300  1
  O  O10  1  0.44035200  0.94081800  0.56525700  1
  O  O11  1  0.44035200  0.05722600  0.56525700  1
  O  O12  1  0.55964800  0.94081800  0.43474300  1
  O  O13  1  0.05964800  0.55722600  0.43474300  1
  O  O14  1  0.94035200  0.44081800  0.56525700  1
  O  O15  1  0.94035200  0.55722600  0.56525700  1
  O  O16  1  0.05964800  0.44081800  0.43474300  1
