# generated using pymatgen
data_ZnH16C19N3O4
_symmetry_space_group_name_H-M   'P 1'
_cell_length_a   10.79609400
_cell_length_b   12.57685600
_cell_length_c   13.73960600
_cell_angle_alpha   86.64645400
_cell_angle_beta   90.01524400
_cell_angle_gamma   101.85839200
_symmetry_Int_Tables_number   1
_chemical_formula_structural   ZnH16C19N3O4
_chemical_formula_sum   'Zn2 H32 C38 N6 O8'
_cell_volume   1822.50369604
_cell_formula_units_Z   2
loop_
 _symmetry_equiv_pos_site_id
 _symmetry_equiv_pos_as_xyz
  1  'x, y, z'
loop_
 _atom_site_type_symbol
 _atom_site_label
 _atom_site_symmetry_multiplicity
 _atom_site_fract_x
 _atom_site_fract_y
 _atom_site_fract_z
 _atom_site_occupancy
  Zn  Zn1  1  0.47934300  0.38382200  0.47694600  1
  Zn  Zn2  1  0.53481200  0.62424800  0.51630500  1
  H  H1  1  0.85043100  0.34235200  0.56572500  1
  H  H2  1  0.89244000  0.44976900  0.64704400  1
  H  H3  1  0.09248400  0.43134300  0.64300800  1
  H  H4  1  0.88591900  0.38477200  0.39274500  1
  H  H5  1  0.95401200  0.68056900  0.46406700  1
  H  H6  1  0.93461600  0.63939300  0.59153200  1
  H  H7  1  0.13592600  0.62364800  0.60312000  1
  H  H8  1  0.15899000  0.67879300  0.47857100  1
  H  H9  1  0.11120600  0.56534100  0.34830700  1
  H  H10  1  0.47692600  0.74313200  0.22703600  1
  H  H11  1  0.40220500  0.73112200  0.89741900  1
  H  H12  1  0.43757200  0.78452700  0.05718000  1
  H  H13  1  0.53088900  0.43084200  0.16266400  1
  H  H14  1  0.54711300  0.27016100  0.75999800  1
  H  H15  1  0.55978700  0.33135200  0.05521000  1
  H  H16  1  0.57624600  0.21586000  0.92825500  1
  H  H17  1  0.40332800  0.60621100  0.77485100  1
  H  H18  1  0.30754200  0.25031000  0.34783100  1
  H  H19  1  0.29098400  0.87648500  0.32988500  1
  H  H20  1  0.57477600  0.18793400  0.54987000  1
  H  H21  1  0.70366800  0.74899900  0.64402400  1
  H  H22  1  0.66560800  0.07483100  0.61810500  1
  H  H23  1  0.76312900  0.93660200  0.69071800  1
  H  H24  1  0.39570300  0.74814500  0.40682300  1
  H  H25  1  0.89544200  0.49824800  0.25328800  1
  H  H26  1  0.92787900  0.61374500  0.31345100  1
  H  H27  1  0.26286200  0.09897800  0.22534700  1
  H  H28  1  0.14960900  0.07203300  0.31354300  1
  H  H29  1  0.00048800  0.27566200  0.49418300  1
  H  H30  1  0.03888400  0.25503200  0.61164500  1
  H  H31  1  0.19744300  0.42928700  0.31324700  1
  H  H32  1  0.04678000  0.37801600  0.28842900  1
  C  C1  1  0.49808400  0.45415000  0.68521500  1
  C  C2  1  0.75024800  0.50708700  0.49475600  1
  C  C3  1  0.51470000  0.55376200  0.30854700  1
  C  C4  1  0.26328100  0.50070900  0.49851500  1
  C  C5  1  0.91312400  0.42278000  0.57447700  1
  C  C6  1  0.05165800  0.41472000  0.57002400  1
  C  C7  1  0.92797600  0.47237700  0.39801000  1
  C  C8  1  0.96576700  0.61654700  0.52012900  1
  C  C9  1  0.88835700  0.50585800  0.49611000  1
  C  C10  1  0.12414300  0.50158600  0.49617400  1
  C  C11  1  0.07170600  0.48945200  0.39260100  1
  C  C12  1  0.10473000  0.61155300  0.52688200  1
  C  C13  1  0.46047000  0.70683500  0.07866600  1
  C  C14  1  0.50600500  0.58270000  0.20405500  1
  C  C15  1  0.53200000  0.32393100  0.81529900  1
  C  C16  1  0.54997100  0.29308200  0.91052300  1
  C  C17  1  0.53963500  0.36094400  0.98330400  1
  C  C18  1  0.50565400  0.46085100  0.96259500  1
  C  C19  1  0.48278900  0.49051400  0.86539900  1
  C  C20  1  0.49490500  0.53219300  0.03625300  1
  C  C21  1  0.46431000  0.63162600  0.01031300  1
  C  C22  1  0.43314600  0.65612700  0.91615200  1
  C  C23  1  0.43810500  0.58518800  0.84518500  1
  C  C24  1  0.51264700  0.50772600  0.13533900  1
  C  C25  1  0.48334900  0.68348600  0.17484900  1
  C  C26  1  0.50136000  0.42331100  0.79073800  1
  C  C27  1  0.32729800  0.08547400  0.36147400  1
  C  C28  1  0.65824400  0.81007800  0.60955000  1
  C  C29  1  0.69175000  0.91548700  0.63599900  1
  C  C30  1  0.63470200  0.99423900  0.59350300  1
  C  C31  1  0.54268300  0.96729900  0.52314300  1
  C  C32  1  0.51190700  0.85900600  0.49822800  1
  C  C33  1  0.48048400  0.04467900  0.47705400  1
  C  C34  1  0.38958400  0.01135900  0.40759900  1
  C  C35  1  0.36101100  0.90443600  0.38385800  1
  C  C36  1  0.42150600  0.82984600  0.42849300  1
  C  C37  1  0.50573400  0.15473700  0.49757900  1
  C  C38  1  0.35571200  0.19224700  0.38427400  1
  N  N1  1  0.44348700  0.22507900  0.45122300  1
  N  N2  1  0.56961800  0.78241900  0.54164400  1
  N  N3  1  0.87930800  0.53283300  0.31812300  1
  N  N4  1  0.23381100  0.05272600  0.28998500  1
  N  N5  1  0.06372100  0.30517600  0.54844100  1
  N  N6  1  0.10865800  0.39967400  0.34569200  1
  O  O1  1  0.47894400  0.37538700  0.62468400  1
  O  O2  1  0.52433200  0.55733700  0.65459500  1
  O  O3  1  0.67093300  0.41557300  0.48001300  1
  O  O4  1  0.71368300  0.59819300  0.50993600  1
  O  O5  1  0.49207600  0.45051200  0.33849800  1
  O  O6  1  0.53496700  0.63263500  0.36858300  1
  O  O7  1  0.30071400  0.41027000  0.48292100  1
  O  O8  1  0.34300700  0.59148700  0.51479900  1
