# generated using pymatgen
data_CuH20C26NO4
_symmetry_space_group_name_H-M   'P 1'
_cell_length_a   17.68214600
_cell_length_b   16.28452700
_cell_length_c   10.85410100
_cell_angle_alpha   90.00000000
_cell_angle_beta   90.00433800
_cell_angle_gamma   90.00000000
_symmetry_Int_Tables_number   1
_chemical_formula_structural   CuH20C26NO4
_chemical_formula_sum   'Cu2 H40 C52 N2 O8'
_cell_volume   3125.38827097
_cell_formula_units_Z   2
loop_
 _symmetry_equiv_pos_site_id
 _symmetry_equiv_pos_as_xyz
  1  'x, y, z'
loop_
 _atom_site_type_symbol
 _atom_site_label
 _atom_site_symmetry_multiplicity
 _atom_site_fract_x
 _atom_site_fract_y
 _atom_site_fract_z
 _atom_site_occupancy
  Cu  Cu1  1  0.49479800  0.58261100  0.50703500  1
  Cu  Cu2  1  0.49483000  0.41828000  0.50912200  1
  H  H1  1  0.24683700  0.42472400  0.11730100  1
  H  H2  1  0.74264900  0.57769300  0.90014900  1
  H  H3  1  0.24723400  0.42857200  0.89175500  1
  H  H4  1  0.74360500  0.56793000  0.12528700  1
  H  H5  1  0.63071800  0.53172900  0.23596200  1
  H  H6  1  0.36030000  0.46295000  0.78050400  1
  H  H7  1  0.63010900  0.54663700  0.78486800  1
  H  H8  1  0.35925200  0.45758800  0.23215700  1
  H  H9  1  0.87141700  0.63069900  0.50612200  1
  H  H10  1  0.11915300  0.36874800  0.50906400  1
  H  H11  1  0.11788600  0.63019100  0.50413300  1
  H  H12  1  0.87142200  0.36952600  0.51009200  1
  H  H13  1  0.73330200  0.63169600  0.50541500  1
  H  H14  1  0.25661400  0.36848900  0.51088300  1
  H  H15  1  0.25568200  0.63187300  0.50574700  1
  H  H16  1  0.73310000  0.36868900  0.50923000  1
  H  H17  1  0.59153100  0.71197000  0.61520100  1
  H  H18  1  0.39768600  0.28922300  0.40069000  1
  H  H19  1  0.39782200  0.71290000  0.39228600  1
  H  H20  1  0.59368500  0.28773600  0.61835600  1
  H  H21  1  0.72108400  0.92339500  0.60879100  1
  H  H22  1  0.70001900  0.83238100  0.51960500  1
  H  H23  1  0.65816900  0.92975600  0.47743500  1
  H  H24  1  0.58952700  0.92969600  0.68351600  1
  H  H25  1  0.63015700  0.83158000  0.71463800  1
  H  H26  1  0.45473400  0.06216700  0.25512400  1
  H  H27  1  0.36060000  0.07847300  0.19427400  1
  H  H28  1  0.42716700  0.16268400  0.20090600  1
  H  H29  1  0.35743400  0.07370000  0.42424200  1
  H  H30  1  0.32995000  0.17129100  0.36407000  1
  H  H31  1  0.29170500  0.84503900  0.51819300  1
  H  H32  1  0.33796600  0.94271000  0.54081300  1
  H  H33  1  0.26744400  0.93148400  0.42166600  1
  H  H34  1  0.39576400  0.92871000  0.32783200  1
  H  H35  1  0.34843100  0.83249700  0.31185000  1
  H  H36  1  0.58542000  0.16456200  0.81528900  1
  H  H37  1  0.54410100  0.06820800  0.76684800  1
  H  H38  1  0.64305200  0.07304900  0.80792300  1
  H  H39  1  0.63229500  0.06939600  0.58193100  1
  H  H40  1  0.66657200  0.16682000  0.63098300  1
  C  C1  1  0.34936000  0.50031700  0.50928800  1
  C  C2  1  0.64029100  0.50045800  0.50717200  1
  C  C3  1  0.49401900  0.49938000  0.27145700  1
  C  C4  1  0.49597600  0.50137300  0.74507200  1
  C  C5  1  0.62703400  0.53527000  0.13699800  1
  C  C6  1  0.36362600  0.46184300  0.87973800  1
  C  C7  1  0.62673300  0.54329600  0.88394500  1
  C  C8  1  0.36291100  0.45884800  0.13307000  1
  C  C9  1  0.69206900  0.55574100  0.07473900  1
  C  C10  1  0.29846200  0.44209700  0.94226900  1
  C  C11  1  0.69166600  0.56073300  0.94863000  1
  C  C12  1  0.29816500  0.44027800  0.06858000  1
  C  C13  1  0.56058200  0.52190500  0.94548900  1
  C  C14  1  0.42930800  0.47897400  0.07129700  1
  C  C15  1  0.56048000  0.51909000  0.07321900  1
  C  C16  1  0.42972900  0.48038700  0.94349000  1
  C  C17  1  0.49532400  0.50192000  0.88043300  1
  C  C18  1  0.49464500  0.49865400  0.13630200  1
  C  C19  1  0.84068300  0.57331900  0.50713700  1
  C  C20  1  0.14924900  0.42644400  0.50831900  1
  C  C21  1  0.14871600  0.57287900  0.50549000  1
  C  C22  1  0.84059500  0.42687300  0.50939200  1
  C  C23  1  0.76270400  0.57356800  0.50668200  1
  C  C24  1  0.22715300  0.42659100  0.50938700  1
  C  C25  1  0.22665900  0.57340100  0.50634000  1
  C  C26  1  0.76260700  0.42679400  0.50903200  1
  C  C27  1  0.72326200  0.50027000  0.50755000  1
  C  C28  1  0.26639100  0.50012200  0.50851100  1
  C  C29  1  0.87958600  0.49999100  0.50829400  1
  C  C30  1  0.11000400  0.49955200  0.50648400  1
  C  C31  1  0.96070500  0.49955000  0.50748900  1
  C  C32  1  0.02884900  0.49957800  0.50680200  1
  C  C33  1  0.54956100  0.83074700  0.56858700  1
  C  C34  1  0.43965700  0.17014400  0.44643600  1
  C  C35  1  0.43831200  0.83162900  0.44393200  1
  C  C36  1  0.55219600  0.16939400  0.56812600  1
  C  C37  1  0.54856500  0.74606100  0.56643600  1
  C  C38  1  0.44074100  0.25489400  0.44926900  1
  C  C39  1  0.44058600  0.74666900  0.44221200  1
  C  C40  1  0.55046200  0.25423700  0.56938800  1
  C  C41  1  0.49395500  0.87461300  0.50689200  1
  C  C42  1  0.49611700  0.12634800  0.50606900  1
  C  C43  1  0.49484800  0.96335300  0.50583500  1
  C  C44  1  0.49545400  0.03762000  0.50538000  1
  C  C45  1  0.61053600  0.87268100  0.63976400  1
  C  C46  1  0.67676900  0.89089700  0.55564500  1
  C  C47  1  0.37845800  0.12867500  0.37522200  1
  C  C48  1  0.40725600  0.10633000  0.24812200  1
  C  C49  1  0.37486500  0.87470400  0.37942800  1
  C  C50  1  0.31431100  0.90022500  0.47107300  1
  C  C51  1  0.61621200  0.12631200  0.63124300  1
  C  C52  1  0.59568700  0.10677800  0.76384600  1
  N  N1  1  0.49427700  0.70536400  0.50560200  1
  N  N2  1  0.49510700  0.29546300  0.51067300  1
  O  O1  1  0.38478500  0.57075700  0.50395500  1
  O  O2  1  0.60492200  0.42989600  0.51183900  1
  O  O3  1  0.60461900  0.57102400  0.50244800  1
  O  O4  1  0.38512100  0.42999000  0.51437600  1
  O  O5  1  0.49178300  0.57024800  0.32819900  1
  O  O6  1  0.49835900  0.43049000  0.68818600  1
  O  O7  1  0.49271900  0.57170800  0.68637300  1
  O  O8  1  0.49682200  0.42909400  0.33006100  1
