# generated using pymatgen
data_Zn2H21C48Br3(N3O4)2
_symmetry_space_group_name_H-M   'P 1'
_cell_length_a   9.29220800
_cell_length_b   13.71707500
_cell_length_c   15.98772300
_cell_angle_alpha   90.05052900
_cell_angle_beta   94.86111900
_cell_angle_gamma   90.57479400
_symmetry_Int_Tables_number   1
_chemical_formula_structural   Zn2H21C48Br3(N3O4)2
_chemical_formula_sum   'Zn2 H21 C48 Br3 N6 O8'
_cell_volume   2030.39053494
_cell_formula_units_Z   1
loop_
 _symmetry_equiv_pos_site_id
 _symmetry_equiv_pos_as_xyz
  1  'x, y, z'
loop_
 _atom_site_type_symbol
 _atom_site_label
 _atom_site_symmetry_multiplicity
 _atom_site_fract_x
 _atom_site_fract_y
 _atom_site_fract_z
 _atom_site_occupancy
  Zn  Zn1  1  0.16157800  0.49348100  0.50547200  1
  Zn  Zn2  1  0.83957500  0.50720700  0.49590000  1
  H  H1  1  0.82118200  0.29673600  0.97970500  1
  H  H2  1  0.17024800  0.70238800  0.02102600  1
  H  H3  1  0.89018500  0.03294100  0.04495100  1
  H  H4  1  0.10596900  0.96734200  0.95675000  1
  H  H5  1  0.12978800  0.61340800  0.90471200  1
  H  H6  1  0.97958600  0.82536800  0.66300400  1
  H  H7  1  0.07671100  0.18713300  0.66298300  1
  H  H8  1  0.88516600  0.44819700  0.73636900  1
  H  H9  1  0.82869700  0.37961000  0.86796700  1
  H  H10  1  0.86637900  0.38715700  0.09485700  1
  H  H11  1  0.02335000  0.17772800  0.33703600  1
  H  H12  1  0.92591600  0.81576900  0.34028200  1
  H  H13  1  0.11283100  0.55333700  0.26625000  1
  H  H14  1  0.16585100  0.62060300  0.13355800  1
  H  H15  1  0.09712300  0.54628000  0.76330200  1
  H  H16  1  0.90183800  0.45564900  0.23565600  1
  H  H17  1  0.36190100  0.64550600  0.51017500  1
  H  H18  1  0.24800300  0.30741400  0.50428000  1
  H  H19  1  0.37648300  0.16392300  0.49395800  1
  H  H20  1  0.63727700  0.16956000  0.48522900  1
  H  H21  1  0.76006600  0.31401500  0.48663500  1
  C  C1  1  0.98122700  0.18240200  0.78369800  1
  C  C2  1  0.91670600  0.23896600  0.83977400  1
  C  C3  1  0.90277600  0.18488400  0.91044800  1
  C  C4  1  0.99618900  0.09021600  0.82014400  1
  C  C5  1  0.86042300  0.22327200  0.98141200  1
  C  C6  1  0.89496000  0.18476600  0.06598700  1
  C  C7  1  0.91554000  0.24155600  0.13735600  1
  C  C8  1  0.95314200  0.18176600  0.20343600  1
  C  C9  1  0.95059000  0.08692400  0.16991200  1
  C  C10  1  0.95932600  0.99447900  0.21684900  1
  C  C11  1  0.00284800  0.91115900  0.18157600  1
  C  C12  1  0.01769800  0.81912500  0.21837100  1
  C  C13  1  0.07980200  0.76179700  0.16181400  1
  C  C14  1  0.09262300  0.81535600  0.09069100  1
  C  C15  1  0.13301400  0.77633400  0.01943400  1
  C  C16  1  0.10108600  0.81562300  0.93482000  1
  C  C17  1  0.08233700  0.75950600  0.86292600  1
  C  C18  1  0.04681900  0.81996200  0.79697700  1
  C  C19  1  0.04882500  0.91447800  0.83113600  1
  C  C20  1  0.04125800  0.00735200  0.78483400  1
  C  C21  1  0.09837700  0.66090800  0.85271800  1
  C  C22  1  0.07865500  0.62293700  0.77268300  1
  C  C23  1  0.03444700  0.68074200  0.70428900  1
  C  C24  1  0.01678700  0.78120400  0.71600600  1
  C  C25  1  0.02182200  0.22358200  0.70991400  1
  C  C26  1  0.98868300  0.32015100  0.69525900  1
  C  C27  1  0.91588800  0.37396800  0.75090800  1
  C  C28  1  0.88248700  0.33473700  0.82510300  1
  C  C29  1  0.89938200  0.34023100  0.14697800  1
  C  C30  1  0.92082100  0.37899300  0.22665200  1
  C  C31  1  0.96698500  0.32185300  0.29510800  1
  C  C32  1  0.98494700  0.22134000  0.28392900  1
  C  C33  1  0.97900800  0.77869800  0.29294200  1
  C  C34  1  0.01180000  0.68208900  0.30784000  1
  C  C35  1  0.08238800  0.62759600  0.25162700  1
  C  C36  1  0.11371600  0.66604200  0.17674300  1
  C  C37  1  0.01831600  0.63062900  0.62168000  1
  C  C38  1  0.00429800  0.36624600  0.61571500  1
  C  C39  1  0.98300300  0.37207700  0.37760700  1
  C  C40  1  0.99748200  0.63601100  0.38761500  1
  C  C41  1  0.36017500  0.31816700  0.50016900  1
  C  C42  1  0.43319700  0.23312900  0.49418300  1
  C  C43  1  0.57763200  0.23641900  0.48925400  1
  C  C44  1  0.64843100  0.32436900  0.48970200  1
  C  C45  1  0.57775000  0.41430000  0.49462300  1
  C  C46  1  0.42859000  0.40947400  0.50078100  1
  C  C47  1  0.42160900  0.57867000  0.50665500  1
  C  C48  1  0.56932500  0.58468600  0.49997300  1
  Br  Br1  1  0.89789200  0.00048100  0.32778300  1
  Br  Br2  1  0.65371500  0.71214600  0.49928800  1
  Br  Br3  1  0.10561200  0.00242000  0.67454400  1
  N  N1  1  0.95054700  0.09347200  0.89885600  1
  N  N2  1  0.91443500  0.09072200  0.08610500  1
  N  N3  1  0.04650300  0.90715300  0.10241200  1
  N  N4  1  0.08267000  0.90988600  0.91512700  1
  N  N5  1  0.35157900  0.49216600  0.50752600  1
  N  N6  1  0.64909600  0.50323700  0.49382900  1
  O  O1  1  0.88711600  0.60540200  0.58870600  1
  O  O2  1  0.13764300  0.59463100  0.59476700  1
  O  O3  1  0.13137500  0.39305200  0.59459200  1
  O  O4  1  0.88617600  0.40319800  0.58197900  1
  O  O5  1  0.11150900  0.39762100  0.41115800  1
  O  O6  1  0.86690300  0.41065900  0.40351700  1
  O  O7  1  0.86770000  0.61089100  0.40922800  1
  O  O8  1  0.11907400  0.59945600  0.42054400  1
