# generated using pymatgen
data_ZnH13C25NO5
_symmetry_space_group_name_H-M   'P 1'
_cell_length_a   15.30703300
_cell_length_b   11.81761100
_cell_length_c   10.20329800
_cell_angle_alpha   90.16432800
_cell_angle_beta   90.00522800
_cell_angle_gamma   90.00000000
_symmetry_Int_Tables_number   1
_chemical_formula_structural   ZnH13C25NO5
_chemical_formula_sum   'Zn2 H26 C50 N2 O10'
_cell_volume   1845.69311271
_cell_formula_units_Z   2
loop_
 _symmetry_equiv_pos_site_id
 _symmetry_equiv_pos_as_xyz
  1  'x, y, z'
loop_
 _atom_site_type_symbol
 _atom_site_label
 _atom_site_symmetry_multiplicity
 _atom_site_fract_x
 _atom_site_fract_y
 _atom_site_fract_z
 _atom_site_occupancy
  Zn  Zn1  1  0.50962600  0.49221600  0.85727100  1
  Zn  Zn2  1  0.50750500  0.48479100  0.14802400  1
  H  H1  1  0.15725800  0.82238600  0.21373000  1
  H  H2  1  0.86386500  0.15866700  0.79707200  1
  H  H3  1  0.32509300  0.76942500  0.80752100  1
  H  H4  1  0.68867500  0.20646700  0.19637400  1
  H  H5  1  0.28546600  0.70067900  0.21465500  1
  H  H6  1  0.73552000  0.28008800  0.79322700  1
  H  H7  1  0.14184900  0.18241400  0.79934200  1
  H  H8  1  0.87368300  0.79479600  0.20986800  1
  H  H9  1  0.33399000  0.19037300  0.18552800  1
  H  H10  1  0.68537300  0.78484400  0.81937000  1
  H  H11  1  0.26936700  0.30566700  0.80050900  1
  H  H12  1  0.74626900  0.67149200  0.20663600  1
  H  H13  1  0.20748400  0.06514000  0.18168800  1
  H  H14  1  0.81230400  0.90973900  0.82536000  1
  H  H15  1  0.01033600  0.78283700  0.03959800  1
  H  H16  1  0.00673300  0.19371800  0.97185100  1
  H  H17  1  0.10697900  0.00158000  0.57204800  1
  H  H18  1  0.97598500  0.93822000  0.45702500  1
  H  H19  1  0.90103600  0.76385700  0.52408200  1
  H  H20  1  0.95936900  0.65091000  0.70604700  1
  H  H21  1  0.09119600  0.71037200  0.82021500  1
  H  H22  1  0.82793500  0.05329200  0.49720000  1
  H  H23  1  0.71797300  0.97056700  0.64176000  1
  H  H24  1  0.58371500  0.88832400  0.55040000  1
  H  H25  1  0.55959500  0.88876400  0.31222500  1
  H  H26  1  0.66843600  0.97046800  0.16586500  1
  C  C1  1  0.31482900  0.72690800  0.01108100  1
  C  C2  1  0.70245600  0.25030100  0.99466000  1
  C  C3  1  0.08741000  0.93091800  0.01205000  1
  C  C4  1  0.92959500  0.04528800  0.99714400  1
  C  C5  1  0.19480600  0.81193200  0.12478100  1
  C  C6  1  0.82440000  0.16703700  0.88442800  1
  C  C7  1  0.28978000  0.78219500  0.89806100  1
  C  C8  1  0.72528100  0.19299700  0.10721000  1
  C  C9  1  0.26774800  0.74356200  0.12512100  1
  C  C10  1  0.75142500  0.23532400  0.88229200  1
  C  C11  1  0.16869600  0.86547800  0.01140600  1
  C  C12  1  0.84804700  0.11050500  0.99721500  1
  C  C13  1  0.21643700  0.84997200  0.89720100  1
  C  C14  1  0.79707000  0.12202600  0.10926400  1
  C  C15  1  0.31115700  0.25625600  0.99284400  1
  C  C16  1  0.70626900  0.72006900  0.01305000  1
  C  C17  1  0.08660500  0.04682900  0.99201700  1
  C  C18  1  0.93054500  0.92940200  0.01724500  1
  C  C19  1  0.18498700  0.18236100  0.88324600  1
  C  C20  1  0.83141200  0.79430700  0.12497600  1
  C  C21  1  0.29312400  0.18791400  0.09918500  1
  C  C22  1  0.72540000  0.78769200  0.90657500  1
  C  C23  1  0.25742100  0.25178900  0.88400600  1
  C  C24  1  0.75904600  0.72484800  0.12297000  1
  C  C25  1  0.16745800  0.11329400  0.98883300  1
  C  C26  1  0.84991200  0.86272900  0.01928100  1
  C  C27  1  0.22212100  0.11592100  0.09654600  1
  C  C28  1  0.79648200  0.85946000  0.91034000  1
  C  C29  1  0.00947700  0.87362300  0.02696700  1
  C  C30  1  0.00759900  0.10283000  0.98353000  1
  C  C31  1  0.63317100  0.64000600  0.00803900  1
  C  C32  1  0.38400600  0.33684400  0.99735000  1
  C  C33  1  0.63054300  0.33217700  0.99759300  1
  C  C34  1  0.38673700  0.64503900  0.00771000  1
  C  C35  1  0.50880300  0.49159100  0.57183600  1
  C  C36  1  0.50830700  0.48540500  0.43345900  1
  C  C37  1  0.18856900  0.89916800  0.77223800  1
  C  C38  1  0.10776800  0.86220700  0.70652500  1
  C  C39  1  0.07517100  0.92447700  0.60291500  1
  C  C40  1  0.00104900  0.88919500  0.53786400  1
  C  C41  1  0.95909700  0.79143100  0.57534400  1
  C  C42  1  0.99170800  0.72833000  0.67749200  1
  C  C43  1  0.06600200  0.76305600  0.74261600  1
  C  C44  1  0.82198300  0.06982800  0.23466200  1
  C  C45  1  0.75566900  0.01934900  0.32126300  1
  C  C46  1  0.76950000  0.01692600  0.45512800  1
  C  C47  1  0.70753300  0.97059700  0.53709200  1
  C  C48  1  0.63209100  0.92482600  0.48595200  1
  C  C49  1  0.61850800  0.92537200  0.35255100  1
  C  C50  1  0.67995600  0.97243000  0.27031000  1
  N  N1  1  0.50919800  0.49584400  0.68520100  1
  N  N2  1  0.50791600  0.48115500  0.32009400  1
  O  O1  1  0.60453800  0.59787300  0.11884100  1
  O  O2  1  0.41260100  0.37906800  0.88649400  1
  O  O3  1  0.60162200  0.61033900  0.89319400  1
  O  O4  1  0.41552800  0.36666500  0.11210300  1
  O  O5  1  0.60312400  0.37495000  0.88649800  1
  O  O6  1  0.41408400  0.60212400  0.11875300  1
  O  O7  1  0.59922500  0.36334100  0.11186300  1
  O  O8  1  0.41791600  0.61372400  0.89340300  1
  O  O9  1  0.23755300  0.96442000  0.71617500  1
  O  O10  1  0.89755100  0.07563600  0.27192300  1
