# generated using pymatgen
data_Zn3H16C29(N2O7)2
_symmetry_space_group_name_H-M   'P 1'
_cell_length_a   31.18058700
_cell_length_b   31.24228700
_cell_length_c   24.78904200
_cell_angle_alpha   90.00000000
_cell_angle_beta   128.95523500
_cell_angle_gamma   90.00000000
_symmetry_Int_Tables_number   1
_chemical_formula_structural   Zn3H16C29(N2O7)2
_chemical_formula_sum   'Zn12 H64 C116 N16 O56'
_cell_volume   18778.63380456
_cell_formula_units_Z   4
loop_
 _symmetry_equiv_pos_site_id
 _symmetry_equiv_pos_as_xyz
  1  'x, y, z'
loop_
 _atom_site_type_symbol
 _atom_site_label
 _atom_site_symmetry_multiplicity
 _atom_site_fract_x
 _atom_site_fract_y
 _atom_site_fract_z
 _atom_site_occupancy
  Zn  Zn1  1  0.77735900  0.71980400  0.50488600  1
  Zn  Zn2  1  0.22264100  0.71980400  0.49511500  1
  Zn  Zn3  1  0.27735900  0.21980400  0.50488600  1
  Zn  Zn4  1  0.72264100  0.21980400  0.49511500  1
  Zn  Zn5  1  0.70414500  0.78781000  0.49665400  1
  Zn  Zn6  1  0.29585500  0.78781000  0.50334600  1
  Zn  Zn7  1  0.20414500  0.28781000  0.49665400  1
  Zn  Zn8  1  0.79585500  0.28781000  0.50334600  1
  Zn  Zn9  1  0.45733600  0.49361800  0.42160700  1
  Zn  Zn10  1  0.54266400  0.49361800  0.57839300  1
  Zn  Zn11  1  0.95733600  0.99361800  0.42160700  1
  Zn  Zn12  1  0.04266400  0.99361800  0.57839300  1
  H  H1  1  0.58783600  0.79845300  0.27129600  1
  H  H2  1  0.41216400  0.79845300  0.72870400  1
  H  H3  1  0.08783600  0.29845300  0.27129600  1
  H  H4  1  0.91216400  0.29845300  0.72870400  1
  H  H5  1  0.52909200  0.79302800  0.14595000  1
  H  H6  1  0.47090800  0.79302800  0.85405000  1
  H  H7  1  0.02909200  0.29302800  0.14595000  1
  H  H8  1  0.97090800  0.29302800  0.85405000  1
  H  H9  1  0.67808800  0.68882300  0.28954600  1
  H  H10  1  0.32191200  0.68882300  0.71045400  1
  H  H11  1  0.17808800  0.18882300  0.28954600  1
  H  H12  1  0.82191200  0.18882300  0.71045400  1
  H  H13  1  0.88289300  0.87338500  0.41675500  1
  H  H14  1  0.11710700  0.87338500  0.58324500  1
  H  H15  1  0.38289300  0.37338500  0.41675500  1
  H  H16  1  0.61710700  0.37338500  0.58324500  1
  H  H17  1  0.91978300  0.89788400  0.55982500  1
  H  H18  1  0.08021700  0.89788400  0.44017500  1
  H  H19  1  0.41978300  0.39788400  0.55982500  1
  H  H20  1  0.58021700  0.39788400  0.44017500  1
  H  H21  1  0.84946900  0.80797200  0.44339000  1
  H  H22  1  0.15053100  0.80797200  0.55661000  1
  H  H23  1  0.34946900  0.30797200  0.44339000  1
  H  H24  1  0.65053100  0.30797200  0.55661000  1
  H  H25  1  0.82533700  0.87938000  0.50532900  1
  H  H26  1  0.17466300  0.87938000  0.49467100  1
  H  H27  1  0.32533700  0.37938000  0.50532900  1
  H  H28  1  0.67466300  0.37938000  0.49467100  1
  H  H29  1  0.78987900  0.79182000  0.72197500  1
  H  H30  1  0.21012100  0.79182000  0.27802600  1
  H  H31  1  0.28987900  0.29182000  0.72197500  1
  H  H32  1  0.71012100  0.29182000  0.27802600  1
  H  H33  1  0.85624000  0.79665700  0.84797100  1
  H  H34  1  0.14376000  0.79665700  0.15202900  1
  H  H35  1  0.35624000  0.29665700  0.84797100  1
  H  H36  1  0.64376000  0.29665700  0.15202900  1
  H  H37  1  0.98108400  0.74461600  0.84394100  1
  H  H38  1  0.01891600  0.74461600  0.15605900  1
  H  H39  1  0.48108400  0.24461600  0.84394100  1
  H  H40  1  0.51891600  0.24461600  0.15605900  1
  H  H41  1  0.91469100  0.73865300  0.71897700  1
  H  H42  1  0.08530900  0.73865300  0.28102300  1
  H  H43  1  0.41469100  0.23865300  0.71897700  1
  H  H44  1  0.58530900  0.23865300  0.28102300  1
  H  H45  1  0.66238700  0.56788900  0.58190400  1
  H  H46  1  0.33761300  0.56788900  0.41809600  1
  H  H47  1  0.16238700  0.06788900  0.58190400  1
  H  H48  1  0.83761300  0.06788900  0.41809600  1
  H  H49  1  0.56580500  0.60440700  0.44080300  1
  H  H50  1  0.43419500  0.60440700  0.55919700  1
  H  H51  1  0.06580500  0.10440700  0.44080300  1
  H  H52  1  0.93419500  0.10440700  0.55919700  1
  H  H53  1  0.71516200  0.61466700  0.55678800  1
  H  H54  1  0.28483800  0.61466700  0.44321200  1
  H  H55  1  0.21516200  0.11466700  0.55678800  1
  H  H56  1  0.78483800  0.11466700  0.44321200  1
  H  H57  1  0.61324700  0.67041300  0.49464500  1
  H  H58  1  0.38675300  0.67041300  0.50535500  1
  H  H59  1  0.11324700  0.17041300  0.49464500  1
  H  H60  1  0.88675300  0.17041300  0.50535500  1
  H  H61  1  0.68049400  0.64454200  0.15887200  1
  H  H62  1  0.31950600  0.64454200  0.84112800  1
  H  H63  1  0.18049400  0.14454200  0.15887200  1
  H  H64  1  0.81950600  0.14454200  0.84112800  1
  C  C1  1  0.79561100  0.81361400  0.49355500  1
  C  C2  1  0.20438900  0.81361400  0.50644500  1
  C  C3  1  0.29561100  0.31361400  0.49355500  1
  C  C4  1  0.70438900  0.31361400  0.50644500  1
  C  C5  1  0.67391500  0.74714200  0.36535100  1
  C  C6  1  0.32608500  0.74714200  0.63465000  1
  C  C7  1  0.17391500  0.24714200  0.36535100  1
  C  C8  1  0.82608500  0.24714200  0.63465000  1
  C  C9  1  0.68567500  0.69402200  0.50783200  1
  C  C10  1  0.31432500  0.69402200  0.49216800  1
  C  C11  1  0.18567500  0.19402200  0.50783200  1
  C  C12  1  0.81432500  0.19402200  0.49216800  1
  C  C13  1  0.80795200  0.76063000  0.63612800  1
  C  C14  1  0.19204800  0.76063000  0.36387200  1
  C  C15  1  0.30795200  0.26063000  0.63612800  1
  C  C16  1  0.69204800  0.26063000  0.36387200  1
  C  C17  1  0.59479900  0.77277800  0.24840800  1
  C  C18  1  0.40520100  0.77277800  0.75159300  1
  C  C19  1  0.09479900  0.27277800  0.24840800  1
  C  C20  1  0.90520100  0.27277800  0.75159300  1
  C  C21  1  0.56155000  0.76973300  0.17713100  1
  C  C22  1  0.43845000  0.76973300  0.82286900  1
  C  C23  1  0.06155000  0.26973300  0.17713100  1
  C  C24  1  0.93845000  0.26973300  0.82286900  1
  C  C25  1  0.56876100  0.73711200  0.14572500  1
  C  C26  1  0.43123900  0.73711200  0.85427500  1
  C  C27  1  0.06876100  0.23711200  0.14572500  1
  C  C28  1  0.93123900  0.23711200  0.85427500  1
  C  C29  1  0.61099100  0.70754800  0.18737700  1
  C  C30  1  0.38900900  0.70754800  0.81262300  1
  C  C31  1  0.11099100  0.20754800  0.18737700  1
  C  C32  1  0.88900900  0.20754800  0.81262300  1
  C  C33  1  0.64514000  0.71175000  0.25849400  1
  C  C34  1  0.35486000  0.71175000  0.74150600  1
  C  C35  1  0.14514000  0.21175000  0.25849400  1
  C  C36  1  0.85486000  0.21175000  0.74150600  1
  C  C37  1  0.63700500  0.74383600  0.28950000  1
  C  C38  1  0.36299500  0.74383600  0.71050000  1
  C  C39  1  0.13700500  0.24383600  0.28950000  1
  C  C40  1  0.86299500  0.24383600  0.71050000  1
  C  C41  1  0.46670600  0.73670200  0.93050800  1
  C  C42  1  0.53329400  0.73670200  0.06949200  1
  C  C43  1  0.96670600  0.23670200  0.93050800  1
  C  C44  1  0.03329400  0.23670200  0.06949200  1
  C  C45  1  0.88315900  0.87315000  0.46068300  1
  C  C46  1  0.11684100  0.87315000  0.53931700  1
  C  C47  1  0.38315900  0.37315000  0.46068300  1
  C  C48  1  0.61684100  0.37315000  0.53931700  1
  C  C49  1  0.91430700  0.90107000  0.51228900  1
  C  C50  1  0.08569300  0.90107000  0.48771200  1
  C  C51  1  0.41430700  0.40107000  0.51228900  1
  C  C52  1  0.58569300  0.40107000  0.48771200  1
  C  C53  1  0.85329300  0.83904500  0.46548200  1
  C  C54  1  0.14670700  0.83904500  0.53451800  1
  C  C55  1  0.35329300  0.33904500  0.46548200  1
  C  C56  1  0.64670700  0.33904500  0.53451800  1
  C  C57  1  0.82678300  0.84710400  0.49051500  1
  C  C58  1  0.17321700  0.84710400  0.50948500  1
  C  C59  1  0.32678300  0.34710400  0.49051500  1
  C  C60  1  0.67321700  0.34710400  0.50948500  1
  C  C61  1  0.83186500  0.78149300  0.74850400  1
  C  C62  1  0.16813500  0.78149300  0.25149600  1
  C  C63  1  0.33186500  0.28149300  0.74850400  1
  C  C64  1  0.66813500  0.28149300  0.25149600  1
  C  C65  1  0.86944200  0.78399400  0.81995700  1
  C  C66  1  0.13055800  0.78399400  0.18004300  1
  C  C67  1  0.36944200  0.28399400  0.81995700  1
  C  C68  1  0.63055800  0.28399400  0.18004300  1
  C  C69  1  0.92342100  0.77109100  0.85487900  1
  C  C70  1  0.07657900  0.77109100  0.14512100  1
  C  C71  1  0.42342100  0.27109100  0.85487900  1
  C  C72  1  0.57657900  0.27109100  0.14512100  1
  C  C73  1  0.93929100  0.75528700  0.81780000  1
  C  C74  1  0.06070900  0.75528700  0.18220000  1
  C  C75  1  0.43929100  0.25528700  0.81780000  1
  C  C76  1  0.56070900  0.25528700  0.18220000  1
  C  C77  1  0.90137300  0.75150000  0.74676100  1
  C  C78  1  0.09862700  0.75150000  0.25323900  1
  C  C79  1  0.40137300  0.25150000  0.74676100  1
  C  C80  1  0.59862700  0.25150000  0.25323900  1
  C  C81  1  0.84755600  0.76470000  0.71171900  1
  C  C82  1  0.15244400  0.76470000  0.28828200  1
  C  C83  1  0.34755600  0.26470000  0.71171900  1
  C  C84  1  0.65244400  0.26470000  0.28828200  1
  C  C85  1  0.03659000  0.77300600  0.06926900  1
  C  C86  1  0.96341000  0.77300600  0.93073100  1
  C  C87  1  0.53659000  0.27300600  0.06926900  1
  C  C88  1  0.46341000  0.27300600  0.93073100  1
  C  C89  1  0.64072300  0.59010300  0.53872600  1
  C  C90  1  0.35927700  0.59010300  0.46127400  1
  C  C91  1  0.14072300  0.09010300  0.53872600  1
  C  C92  1  0.85927700  0.09010300  0.46127400  1
  C  C93  1  0.58661700  0.58553600  0.48777800  1
  C  C94  1  0.41338300  0.58553600  0.51222200  1
  C  C95  1  0.08661700  0.08553600  0.48777800  1
  C  C96  1  0.91338300  0.08553600  0.51222200  1
  C  C97  1  0.67301500  0.62219200  0.53448900  1
  C  C98  1  0.32698500  0.62219200  0.46551200  1
  C  C99  1  0.17301500  0.12219200  0.53448900  1
  C  C100  1  0.82698500  0.12219200  0.46551200  1
  C  C101  1  0.65309500  0.66136500  0.50997800  1
  C  C102  1  0.34690500  0.66136500  0.49002200  1
  C  C103  1  0.15309500  0.16136500  0.50997800  1
  C  C104  1  0.84690500  0.16136500  0.49002200  1
  C  C105  1  0.44478700  0.55269100  0.50821100  1
  C  C106  1  0.55521300  0.55269100  0.49178900  1
  C  C107  1  0.94478700  0.05269100  0.50821100  1
  C  C108  1  0.05521300  0.05269100  0.49178900  1
  C  C109  1  0.94519800  0.93428000  0.50820100  1
  C  C110  1  0.05480200  0.93428000  0.49179900  1
  C  C111  1  0.44519800  0.43428000  0.50820100  1
  C  C112  1  0.55480200  0.43428000  0.49179900  1
  C  C113  1  0.62426800  0.67316700  0.15971800  1
  C  C114  1  0.37573200  0.67316700  0.84028200  1
  C  C115  1  0.12426800  0.17316700  0.15971800  1
  C  C116  1  0.87573200  0.17316700  0.84028200  1
  N  N1  1  0.51627700  0.69963600  0.03421700  1
  N  N2  1  0.48372300  0.69963600  0.96578300  1
  N  N3  1  0.01627700  0.19963600  0.03421700  1
  N  N4  1  0.98372300  0.19963600  0.96578300  1
  N  N5  1  0.48374200  0.77390700  0.96571400  1
  N  N6  1  0.51625800  0.77390700  0.03428600  1
  N  N7  1  0.98374200  0.27390700  0.96571400  1
  N  N8  1  0.01625800  0.27390700  0.03428600  1
  N  N9  1  0.01782000  0.77303400  0.96305500  1
  N  N10  1  0.98218000  0.77303400  0.03694500  1
  N  N11  1  0.51782000  0.27303400  0.96305500  1
  N  N12  1  0.48218000  0.27303400  0.03694500  1
  N  N13  1  0.05401700  0.77328300  0.03155000  1
  N  N14  1  0.94598300  0.77328300  0.96845000  1
  N  N15  1  0.55401700  0.27328300  0.03155000  1
  N  N16  1  0.44598300  0.27328300  0.96845000  1
  O  O1  1  0.80905900  0.77342400  0.49597900  1
  O  O2  1  0.19094100  0.77342400  0.50402100  1
  O  O3  1  0.30905900  0.27342400  0.49597900  1
  O  O4  1  0.69094100  0.27342400  0.50402100  1
  O  O5  1  0.75597200  0.82561900  0.49482000  1
  O  O6  1  0.24402800  0.82561900  0.50518000  1
  O  O7  1  0.25597200  0.32561900  0.49482000  1
  O  O8  1  0.74402800  0.32561900  0.50518000  1
  O  O9  1  0.71687200  0.72174000  0.40082300  1
  O  O10  1  0.28312800  0.72174000  0.59917700  1
  O  O11  1  0.21687200  0.22174000  0.40082300  1
  O  O12  1  0.78312800  0.22174000  0.59917700  1
  O  O13  1  0.66312500  0.77537300  0.39468600  1
  O  O14  1  0.33687500  0.77537300  0.60531400  1
  O  O15  1  0.16312500  0.27537300  0.39468600  1
  O  O16  1  0.83687500  0.27537300  0.60531400  1
  O  O17  1  0.72642200  0.68204600  0.50860900  1
  O  O18  1  0.27357800  0.68204600  0.49139100  1
  O  O19  1  0.22642200  0.18204600  0.50860900  1
  O  O20  1  0.77357800  0.18204600  0.49139100  1
  O  O21  1  0.67149900  0.73411700  0.50365500  1
  O  O22  1  0.32850100  0.73411700  0.49634600  1
  O  O23  1  0.17149900  0.23411700  0.50365500  1
  O  O24  1  0.82850100  0.23411700  0.49634600  1
  O  O25  1  0.81917800  0.73310400  0.60664800  1
  O  O26  1  0.18082200  0.73310400  0.39335200  1
  O  O27  1  0.31917800  0.23310400  0.60664800  1
  O  O28  1  0.68082200  0.23310400  0.39335200  1
  O  O29  1  0.76399200  0.78519300  0.60097200  1
  O  O30  1  0.23600800  0.78519300  0.39902800  1
  O  O31  1  0.26399200  0.28519300  0.60097200  1
  O  O32  1  0.73600800  0.28519300  0.39902800  1
  O  O33  1  0.42600500  0.53878800  0.44690800  1
  O  O34  1  0.57399500  0.53878800  0.55309300  1
  O  O35  1  0.92600500  0.03878800  0.44690800  1
  O  O36  1  0.07399500  0.03878800  0.55309300  1
  O  O37  1  0.49053200  0.53869700  0.56644100  1
  O  O38  1  0.50946800  0.53869700  0.43355900  1
  O  O39  1  0.99053200  0.03869700  0.56644100  1
  O  O40  1  0.00946800  0.03869700  0.43355900  1
  O  O41  1  0.92714200  0.94733800  0.44678700  1
  O  O42  1  0.07285800  0.94733800  0.55321300  1
  O  O43  1  0.42714200  0.44733800  0.44678700  1
  O  O44  1  0.57285800  0.44733800  0.55321300  1
  O  O45  1  0.98951400  0.94966800  0.56654800  1
  O  O46  1  0.01048600  0.94966800  0.43345200  1
  O  O47  1  0.48951400  0.44966800  0.56654800  1
  O  O48  1  0.51048600  0.44966800  0.43345200  1
  O  O49  1  0.59233300  0.64352200  0.12760200  1
  O  O50  1  0.67680300  0.67119300  0.17886300  1
  O  O51  1  0.40766700  0.64352200  0.87239800  1
  O  O52  1  0.32319700  0.67119300  0.82113700  1
  O  O53  1  0.09233300  0.14352200  0.12760200  1
  O  O54  1  0.17680300  0.17119300  0.17886400  1
  O  O55  1  0.90766700  0.14352200  0.87239800  1
  O  O56  1  0.82319700  0.17119300  0.82113700  1
