# generated using pymatgen
data_Zn2H19C39N3O8
_symmetry_space_group_name_H-M   'P 1'
_cell_length_a   8.51170200
_cell_length_b   13.05631600
_cell_length_c   13.41826400
_cell_angle_alpha   90.61064100
_cell_angle_beta   93.27244000
_cell_angle_gamma   86.48263200
_symmetry_Int_Tables_number   1
_chemical_formula_structural   Zn2H19C39N3O8
_chemical_formula_sum   'Zn2 H19 C39 N3 O8'
_cell_volume   1485.91710076
_cell_formula_units_Z   1
loop_
 _symmetry_equiv_pos_site_id
 _symmetry_equiv_pos_as_xyz
  1  'x, y, z'
loop_
 _atom_site_type_symbol
 _atom_site_label
 _atom_site_symmetry_multiplicity
 _atom_site_fract_x
 _atom_site_fract_y
 _atom_site_fract_z
 _atom_site_occupancy
  Zn  Zn1  1  0.49747600  0.49919100  0.89309400  1
  Zn  Zn2  1  0.51139200  0.50201000  0.11561100  1
  H  H1  1  0.01465400  0.57474900  0.97278800  1
  H  H2  1  0.71535500  0.83083200  0.03448500  1
  H  H3  1  0.68246100  0.98230700  0.00139600  1
  H  H4  1  0.65250000  0.16251500  0.00277400  1
  H  H5  1  0.99259300  0.42865900  0.02439500  1
  H  H6  1  0.29564700  0.16878700  0.98640400  1
  H  H7  1  0.32741200  0.01885400  0.02582000  1
  H  H8  1  0.35750400  0.83841400  0.01859300  1
  H  H9  1  0.52584400  0.33984900  0.24826400  1
  H  H10  1  0.48495700  0.75072500  0.58944400  1
  H  H11  1  0.52070800  0.32827900  0.42568600  1
  H  H12  1  0.50650900  0.32845700  0.57883000  1
  H  H13  1  0.50747400  0.66152300  0.26268100  1
  H  H14  1  0.49879900  0.33903600  0.75611900  1
  H  H15  1  0.72967500  0.70078000  0.76662300  1
  H  H16  1  0.71523400  0.87660500  0.83393000  1
  H  H17  1  0.45723600  0.96605500  0.85824100  1
  H  H18  1  0.21380200  0.88002000  0.81291300  1
  H  H19  1  0.22853800  0.70372000  0.74674800  1
  C  C1  1  0.13063500  0.70979900  0.00147600  1
  C  C2  1  0.99995800  0.65451100  0.99033300  1
  C  C3  1  0.85414000  0.69812200  0.00776700  1
  C  C4  1  0.83312900  0.80213900  0.02090300  1
  C  C5  1  0.96009900  0.86373500  0.01462700  1
  C  C6  1  0.11092000  0.81589300  0.01164300  1
  C  C7  1  0.93943800  0.97126600  0.01186900  1
  C  C8  1  0.07064600  0.02974300  0.01101000  1
  C  C9  1  0.22027300  0.97956800  0.01834600  1
  C  C10  1  0.23960000  0.87432600  0.01687800  1
  C  C11  1  0.78979300  0.02145400  0.00622000  1
  C  C12  1  0.77044500  0.12664500  0.00489200  1
  C  C13  1  0.89884300  0.18513500  0.00551900  1
  C  C14  1  0.04994400  0.13715500  0.00496800  1
  C  C15  1  0.87827700  0.29164400  0.00778900  1
  C  C16  1  0.00819300  0.34780000  0.01324100  1
  C  C17  1  0.15494600  0.30299800  0.00124300  1
  C  C18  1  0.17706100  0.19827100  0.99638100  1
  C  C19  1  0.28726800  0.36817700  0.00022800  1
  C  C20  1  0.28247400  0.64920600  0.00270500  1
  C  C21  1  0.72197100  0.63277000  0.00855800  1
  C  C22  1  0.72621200  0.35190300  0.00618800  1
  C  C23  1  0.51150400  0.58841100  0.30008000  1
  C  C24  1  0.52168800  0.40973400  0.29218900  1
  C  C25  1  0.51773500  0.40387900  0.39454500  1
  C  C26  1  0.50877700  0.49294500  0.45186300  1
  C  C27  1  0.50658900  0.58562500  0.40258500  1
  C  C28  1  0.50161800  0.40395100  0.61155300  1
  C  C29  1  0.50155400  0.49298700  0.55584300  1
  C  C30  1  0.49355800  0.58586800  0.60624900  1
  C  C31  1  0.49166700  0.67655200  0.55316000  1
  C  C32  1  0.49644000  0.40928200  0.71404600  1
  C  C33  1  0.48816000  0.58838400  0.70951100  1
  C  C34  1  0.48014700  0.68815100  0.76014300  1
  C  C35  1  0.61633300  0.73866900  0.78032600  1
  C  C36  1  0.60823800  0.83776000  0.81709300  1
  C  C37  1  0.46367900  0.88801300  0.83040000  1
  C  C38  1  0.32729200  0.83967000  0.80537400  1
  C  C39  1  0.33559900  0.74049000  0.76887500  1
  N  N1  1  0.51794200  0.50105100  0.24643200  1
  N  N2  1  0.49800600  0.67452200  0.45353900  1
  N  N3  1  0.49091200  0.50025200  0.76206800  1
  O  O1  1  0.34160700  0.40343200  0.08620400  1
  O  O2  1  0.33600100  0.39597800  0.91398200  1
  O  O3  1  0.32698200  0.60914400  0.91779300  1
  O  O4  1  0.34387900  0.61614800  0.08958000  1
  O  O5  1  0.66744500  0.59754200  0.92271000  1
  O  O6  1  0.67296700  0.60512200  0.09468700  1
  O  O7  1  0.68171000  0.39183500  0.09118800  1
  O  O8  1  0.66501900  0.38503600  0.91913400  1
