# generated using pymatgen
data_FeH9(C2O)10
_symmetry_space_group_name_H-M   'P 1'
_cell_length_a   15.26255700
_cell_length_b   9.25910700
_cell_length_c   16.54443900
_cell_angle_alpha   85.31399500
_cell_angle_beta   103.11595900
_cell_angle_gamma   111.73009800
_symmetry_Int_Tables_number   1
_chemical_formula_structural   FeH9(C2O)10
_chemical_formula_sum   'Fe2 H18 C40 O20'
_cell_volume   2115.21209388
_cell_formula_units_Z   2
loop_
 _symmetry_equiv_pos_site_id
 _symmetry_equiv_pos_as_xyz
  1  'x, y, z'
loop_
 _atom_site_type_symbol
 _atom_site_label
 _atom_site_symmetry_multiplicity
 _atom_site_fract_x
 _atom_site_fract_y
 _atom_site_fract_z
 _atom_site_occupancy
  Fe  Fe1  1  0.50959700  0.07106100  0.82051100  1
  Fe  Fe2  1  0.50822700  0.98127500  0.18637300  1
  H  H1  1  0.80452800  0.06756400  0.20181000  1
  H  H2  1  0.95420800  0.05668900  0.17862900  1
  H  H3  1  0.99175100  0.10327300  0.92508100  1
  H  H4  1  0.06298600  0.00198900  0.82888700  1
  H  H5  1  0.21374500  0.99885600  0.80356300  1
  H  H6  1  0.18539800  0.05583900  0.08797500  1
  H  H7  1  0.50315900  0.52206200  0.21930800  1
  H  H8  1  0.51475800  0.20525700  0.41949000  1
  H  H9  1  0.52031500  0.53424400  0.78934800  1
  H  H10  1  0.50776400  0.84976100  0.58862600  1
  H  H11  1  0.50251700  0.78005900  0.45487900  1
  H  H12  1  0.52033900  0.27504700  0.55370700  1
  H  H13  1  0.83487300  0.83561600  0.77758200  1
  H  H14  1  0.70506100  0.76286100  0.74305800  1
  H  H15  1  0.76420000  0.63880000  0.80251000  1
  H  H16  1  0.11427300  0.76585900  0.20298600  1
  H  H17  1  0.16847500  0.71964800  0.12679700  1
  H  H18  1  0.05459500  0.58380500  0.14645900  1
  C  C1  1  0.81075300  0.05407900  0.13931300  1
  C  C2  1  0.89477200  0.04612000  0.12653400  1
  C  C3  1  0.90117300  0.01559300  0.04851900  1
  C  C4  1  0.82350100  0.99546900  0.98252400  1
  C  C5  1  0.74097600  0.01545100  0.99381000  1
  C  C6  1  0.73288000  0.03464000  0.07397000  1
  C  C7  1  0.98595000  0.98530900  0.03853600  1
  C  C8  1  0.02414300  0.03849500  0.97178200  1
  C  C9  1  0.12202900  0.00842200  0.88070700  1
  C  C10  1  0.20658900  0.00463000  0.86662000  1
  C  C11  1  0.28381500  0.01848200  0.93179900  1
  C  C12  1  0.27444100  0.02871800  0.01242700  1
  C  C13  1  0.18979000  0.03552600  0.02598500  1
  C  C14  1  0.11319500  0.02425700  0.96020200  1
  C  C15  1  0.50991700  0.29973400  0.70498600  1
  C  C16  1  0.37699700  0.04269600  0.91234500  1
  C  C17  1  0.66703200  0.02850000  0.92158400  1
  C  C18  1  0.51295400  0.81643900  0.75164600  1
  C  C19  1  0.51050400  0.24019200  0.25641300  1
  C  C20  1  0.35082000  0.02634600  0.08420700  1
  C  C21  1  0.63976800  0.01101900  0.09361000  1
  C  C22  1  0.51225000  0.75531200  0.30354200  1
  C  C23  1  0.50647000  0.60159400  0.33737000  1
  C  C24  1  0.50425100  0.49279600  0.28400900  1
  C  C25  1  0.50821700  0.35111400  0.31324600  1
  C  C26  1  0.51176900  0.31622000  0.39623500  1
  C  C27  1  0.51182600  0.42289400  0.44989800  1
  C  C28  1  0.50942000  0.56603900  0.42096800  1
  C  C29  1  0.51490000  0.38536200  0.53277800  1
  C  C30  1  0.51370100  0.48931800  0.58766600  1
  C  C31  1  0.51106100  0.63227400  0.55861700  1
  C  C32  1  0.50800100  0.66978100  0.47579200  1
  C  C33  1  0.51692600  0.45413800  0.67137600  1
  C  C34  1  0.51919300  0.56325800  0.72461700  1
  C  C35  1  0.51485000  0.70470600  0.69509900  1
  C  C36  1  0.51087300  0.73896000  0.61206300  1
  C  C37  1  0.75689100  0.81636500  0.87222900  1
  C  C38  1  0.76570300  0.75967400  0.79385800  1
  C  C39  1  0.04666300  0.78445900  0.07680300  1
  C  C40  1  0.09936400  0.70860200  0.14245100  1
  O  O1  1  0.55840300  0.28737700  0.78016500  1
  O  O2  1  0.45435400  0.15549400  0.94930300  1
  O  O3  1  0.44164000  0.17575500  0.66772500  1
  O  O4  1  0.37980000  0.97589900  0.84645300  1
  O  O5  1  0.59402700  0.06261200  0.93168500  1
  O  O6  1  0.68073400  0.02944500  0.84606600  1
  O  O7  1  0.50968000  0.95202000  0.72454500  1
  O  O8  1  0.51375500  0.78089600  0.83017000  1
  O  O9  1  0.50757900  0.10082200  0.28197400  1
  O  O10  1  0.51522200  0.27967900  0.17906100  1
  O  O11  1  0.42133900  0.98393100  0.07564400  1
  O  O12  1  0.34288400  0.04965200  0.15895000  1
  O  O13  1  0.57973000  0.88053600  0.34033700  1
  O  O14  1  0.63691000  0.08033300  0.15858100  1
  O  O15  1  0.46304000  0.76564900  0.22846200  1
  O  O16  1  0.56306800  0.89458100  0.05900200  1
  O  O17  1  0.82696600  0.94424100  0.90993500  1
  O  O18  1  0.68737400  0.74584500  0.90286900  1
  O  O19  1  0.02251000  0.90075900  0.09716500  1
  O  O20  1  0.02111600  0.73571900  0.00574100  1
