# generated using pymatgen
data_CuH30C34NO12
_symmetry_space_group_name_H-M   'P 1'
_cell_length_a   15.03790600
_cell_length_b   13.75720700
_cell_length_c   19.27359000
_cell_angle_alpha   90.00000000
_cell_angle_beta   89.98925900
_cell_angle_gamma   90.00000000
_symmetry_Int_Tables_number   1
_chemical_formula_structural   CuH30C34NO12
_chemical_formula_sum   'Cu2 H60 C68 N2 O24'
_cell_volume   3987.31224387
_cell_formula_units_Z   2
loop_
 _symmetry_equiv_pos_site_id
 _symmetry_equiv_pos_as_xyz
  1  'x, y, z'
loop_
 _atom_site_type_symbol
 _atom_site_label
 _atom_site_symmetry_multiplicity
 _atom_site_fract_x
 _atom_site_fract_y
 _atom_site_fract_z
 _atom_site_occupancy
  Cu  Cu1  1  0.49999300  0.59410300  0.50014600  1
  Cu  Cu2  1  0.50008400  0.40246400  0.49999300  1
  H  H1  1  0.61608000  0.41877600  0.71538900  1
  H  H2  1  0.62491200  0.58183700  0.28392100  1
  H  H3  1  0.38351400  0.41947600  0.28431300  1
  H  H4  1  0.37408800  0.58048400  0.71639000  1
  H  H5  1  0.61951300  0.42243500  0.84180100  1
  H  H6  1  0.62640300  0.57872300  0.15715400  1
  H  H7  1  0.38031800  0.42398900  0.15762700  1
  H  H8  1  0.37341500  0.57681300  0.84341200  1
  H  H9  1  0.06140600  0.64723000  0.46064900  1
  H  H10  1  0.94086100  0.36049300  0.45602800  1
  H  H11  1  0.93871900  0.64765800  0.54029200  1
  H  H12  1  0.05904600  0.35933700  0.54293200  1
  H  H13  1  0.22240300  0.64612300  0.46109300  1
  H  H14  1  0.77964900  0.35925000  0.45563000  1
  H  H15  1  0.77760800  0.64652800  0.53954700  1
  H  H16  1  0.22041100  0.35750200  0.54326000  1
  H  H17  1  0.63092700  0.06498300  0.53853700  1
  H  H18  1  0.41855800  0.92899400  0.40993000  1
  H  H19  1  0.36861700  0.06572500  0.46093200  1
  H  H20  1  0.58126800  0.92950400  0.58973400  1
  H  H21  1  0.56749100  0.85909300  0.91134000  1
  H  H22  1  0.56487800  0.80039900  0.82697400  1
  H  H23  1  0.72715300  0.82909000  0.92162900  1
  H  H24  1  0.70434500  0.89122900  0.84073600  1
  H  H25  1  0.72744100  0.76193200  0.84095200  1
  H  H26  1  0.58299300  0.15882900  0.12792900  1
  H  H27  1  0.50822800  0.21306900  0.19099500  1
  H  H28  1  0.71107900  0.23744400  0.18630800  1
  H  H29  1  0.64931200  0.16112500  0.24581200  1
  H  H30  1  0.63635000  0.29195600  0.24890400  1
  H  H31  1  0.43100700  0.85828400  0.08839600  1
  H  H32  1  0.43474000  0.79995700  0.17289600  1
  H  H33  1  0.27140400  0.82659700  0.07899900  1
  H  H34  1  0.29460500  0.89051600  0.15914100  1
  H  H35  1  0.27223800  0.76099800  0.16026700  1
  H  H36  1  0.41799800  0.15828600  0.87272600  1
  H  H37  1  0.49256000  0.21188900  0.80922900  1
  H  H38  1  0.28971600  0.23637300  0.81435700  1
  H  H39  1  0.35116200  0.15959800  0.75491900  1
  H  H40  1  0.36415200  0.29043900  0.75135200  1
  H  H41  1  0.78616400  0.18868100  0.63696500  1
  H  H42  1  0.81752500  0.29757700  0.59041400  1
  H  H43  1  0.86819300  0.08748000  0.55349700  1
  H  H44  1  0.94069900  0.17935400  0.59004800  1
  H  H45  1  0.89688500  0.19383700  0.50311400  1
  H  H46  1  0.26389800  0.67456300  0.32099500  1
  H  H47  1  0.30215100  0.78959500  0.28539700  1
  H  H48  1  0.14119100  0.76263700  0.38069000  1
  H  H49  1  0.13824100  0.78151600  0.28772500  1
  H  H50  1  0.18089300  0.87587200  0.34419800  1
  H  H51  1  0.21246400  0.18713800  0.36290400  1
  H  H52  1  0.18058400  0.29594700  0.40946400  1
  H  H53  1  0.13235600  0.08566200  0.44734000  1
  H  H54  1  0.05880000  0.17643600  0.41082400  1
  H  H55  1  0.10318900  0.19231000  0.49737100  1
  H  H56  1  0.73389900  0.67578000  0.68051500  1
  H  H57  1  0.69609700  0.79143100  0.71466700  1
  H  H58  1  0.85851600  0.76275900  0.62041700  1
  H  H59  1  0.86058100  0.78154600  0.71328000  1
  H  H60  1  0.81966600  0.87625800  0.65651000  1
  C  C1  1  0.33101700  0.49910800  0.49795900  1
  C  C2  1  0.66904300  0.49961100  0.50196800  1
  C  C3  1  0.50551600  0.49829500  0.36836500  1
  C  C4  1  0.49470900  0.49864500  0.63172700  1
  C  C5  1  0.56281500  0.45413900  0.74319800  1
  C  C6  1  0.57148300  0.54637600  0.25626900  1
  C  C7  1  0.43716600  0.45428800  0.25654300  1
  C  C8  1  0.42823500  0.54587600  0.74380300  1
  C  C9  1  0.56489200  0.45652600  0.81465200  1
  C  C10  1  0.57186800  0.54512000  0.18468100  1
  C  C11  1  0.43519100  0.45712400  0.18505100  1
  C  C12  1  0.42808900  0.54427000  0.81541700  1
  C  C13  1  0.49688500  0.50050000  0.85133500  1
  C  C14  1  0.50341100  0.50086600  0.14851200  1
  C  C15  1  0.49501800  0.49953500  0.70754400  1
  C  C16  1  0.50510300  0.49925500  0.29242100  1
  C  C17  1  0.49895500  0.58567600  0.96406700  1
  C  C18  1  0.50277400  0.41139900  0.03602400  1
  C  C19  1  0.50047900  0.58572000  0.03553700  1
  C  C20  1  0.49746500  0.41132400  0.96380300  1
  C  C21  1  0.50351100  0.49912600  0.07204800  1
  C  C22  1  0.49672000  0.49892900  0.92770500  1
  C  C23  1  0.09595500  0.58348800  0.47915400  1
  C  C24  1  0.90548800  0.42312900  0.47555200  1
  C  C25  1  0.90436700  0.58402200  0.52129500  1
  C  C26  1  0.09472300  0.42205200  0.52378000  1
  C  C27  1  0.18756100  0.58235500  0.47869200  1
  C  C28  1  0.81380600  0.42261800  0.47514000  1
  C  C29  1  0.81267000  0.58305200  0.52156400  1
  C  C30  1  0.18646700  0.42129400  0.52413700  1
  C  C31  1  0.23348500  0.50069100  0.49995400  1
  C  C32  1  0.76672700  0.50160400  0.49987300  1
  C  C33  1  0.04894100  0.50291200  0.50072400  1
  C  C34  1  0.95137200  0.50334800  0.49938300  1
  C  C35  1  0.57237200  0.10322600  0.52110400  1
  C  C36  1  0.45387000  0.89222200  0.45097700  1
  C  C37  1  0.42740300  0.10355900  0.47801800  1
  C  C38  1  0.54663300  0.89250300  0.54834100  1
  C  C39  1  0.57152800  0.20365200  0.52373900  1
  C  C40  1  0.45405200  0.79198600  0.45093100  1
  C  C41  1  0.42859200  0.20399000  0.47547300  1
  C  C42  1  0.54636000  0.79216500  0.54842800  1
  C  C43  1  0.49987300  0.05165400  0.49954500  1
  C  C44  1  0.50010600  0.94422500  0.49963400  1
  C  C45  1  0.50619200  0.67888300  0.92774300  1
  C  C46  1  0.59743300  0.80138700  0.87860400  1
  C  C47  1  0.69563900  0.82234800  0.86983500  1
  C  C48  1  0.50663600  0.31899200  0.07462700  1
  C  C49  1  0.57179700  0.22212700  0.16250600  1
  C  C50  1  0.64719000  0.22858600  0.21434400  1
  C  C51  1  0.49291300  0.67881300  0.07183700  1
  C  C52  1  0.40161700  0.80060800  0.12145200  1
  C  C53  1  0.30342800  0.82111500  0.13067300  1
  C  C54  1  0.49404200  0.31887600  0.92529400  1
  C  C55  1  0.42904900  0.22121000  0.83777200  1
  C  C56  1  0.35344600  0.22726100  0.78612700  1
  C  C57  1  0.65126700  0.24542200  0.55625100  1
  C  C58  1  0.80218800  0.21910800  0.58515600  1
  C  C59  1  0.88237000  0.16650900  0.55602800  1
  C  C60  1  0.40175100  0.74844100  0.39484700  1
  C  C61  1  0.26842600  0.75410900  0.32980900  1
  C  C62  1  0.17589100  0.79626300  0.33605500  1
  C  C63  1  0.34838600  0.24592200  0.44338400  1
  C  C64  1  0.19691200  0.21780500  0.41474600  1
  C  C65  1  0.11749600  0.16452400  0.44455600  1
  C  C66  1  0.59773800  0.74879900  0.60508000  1
  C  C67  1  0.73029900  0.75516000  0.67080000  1
  C  C68  1  0.82338000  0.79657500  0.66477200  1
  N  N1  1  0.49990500  0.25624900  0.50018000  1
  N  N2  1  0.49982300  0.74017300  0.49982100  1
  O  O1  1  0.37343800  0.57901400  0.47971000  1
  O  O2  1  0.62801100  0.41778400  0.48602600  1
  O  O3  1  0.62654000  0.57954000  0.52024900  1
  O  O4  1  0.37218500  0.41756900  0.51414500  1
  O  O5  1  0.52665800  0.57898900  0.40139600  1
  O  O6  1  0.51746000  0.41760800  0.59992500  1
  O  O7  1  0.47324200  0.57907600  0.59860700  1
  O  O8  1  0.48280400  0.41742400  0.40022200  1
  O  O9  1  0.44011800  0.72850200  0.91802200  1
  O  O10  1  0.58721800  0.71266700  0.91001600  1
  O  O11  1  0.45215400  0.25518200  0.06333900  1
  O  O12  1  0.56907000  0.30586900  0.12398200  1
  O  O13  1  0.55880600  0.72867000  0.08163500  1
  O  O14  1  0.41186400  0.71192300  0.09004800  1
  O  O15  1  0.54891200  0.25550200  0.93662200  1
  O  O16  1  0.43178000  0.30531100  0.87587100  1
  O  O17  1  0.64478300  0.29979300  0.60571700  1
  O  O18  1  0.73112500  0.20593600  0.54156500  1
  O  O19  1  0.43973400  0.71573800  0.34418800  1
  O  O20  1  0.31503100  0.77230500  0.38961600  1
  O  O21  1  0.35487000  0.29989100  0.39371000  1
  O  O22  1  0.26857600  0.20592600  0.45807500  1
  O  O23  1  0.55920200  0.71637800  0.65563300  1
  O  O24  1  0.68441900  0.77245800  0.61058300  1
