# generated using pymatgen
data_Zn3H17C37O12
_symmetry_space_group_name_H-M   'P 1'
_cell_length_a   28.21594600
_cell_length_b   18.92506000
_cell_length_c   16.89512500
_cell_angle_alpha   90.00000000
_cell_angle_beta   62.57225700
_cell_angle_gamma   90.00000000
_symmetry_Int_Tables_number   1
_chemical_formula_structural   Zn3H17C37O12
_chemical_formula_sum   'Zn12 H68 C148 O48'
_cell_volume   8007.68330386
_cell_formula_units_Z   4
loop_
 _symmetry_equiv_pos_site_id
 _symmetry_equiv_pos_as_xyz
  1  'x, y, z'
loop_
 _atom_site_type_symbol
 _atom_site_label
 _atom_site_symmetry_multiplicity
 _atom_site_fract_x
 _atom_site_fract_y
 _atom_site_fract_z
 _atom_site_occupancy
  Zn  Zn1  1  0.79265000  0.20890900  0.50593800  1
  Zn  Zn2  1  0.20735000  0.79109100  0.49406300  1
  Zn  Zn3  1  0.20735000  0.20890900  0.49406300  1
  Zn  Zn4  1  0.79265000  0.79109100  0.50593800  1
  Zn  Zn5  1  0.29265000  0.70890900  0.50593800  1
  Zn  Zn6  1  0.70735000  0.29109100  0.49406300  1
  Zn  Zn7  1  0.70735000  0.70890900  0.49406300  1
  Zn  Zn8  1  0.29265000  0.29109100  0.50593800  1
  Zn  Zn9  1  0.50362900  0.50000000  0.08607700  1
  Zn  Zn10  1  0.49637100  0.50000000  0.91392300  1
  Zn  Zn11  1  0.00362900  0.00000000  0.08607700  1
  Zn  Zn12  1  0.99637100  0.00000000  0.91392300  1
  H  H1  1  0.10087600  0.38823800  0.53506800  1
  H  H2  1  0.89912400  0.61176200  0.46493200  1
  H  H3  1  0.89912400  0.38823800  0.46493200  1
  H  H4  1  0.10087600  0.61176200  0.53506800  1
  H  H5  1  0.60087600  0.88823800  0.53506800  1
  H  H6  1  0.39912400  0.11176200  0.46493200  1
  H  H7  1  0.39912400  0.88823800  0.46493200  1
  H  H8  1  0.60087600  0.11176200  0.53506800  1
  H  H9  1  0.73012300  0.00000000  0.53271300  1
  H  H10  1  0.26987700  0.00000000  0.46728700  1
  H  H11  1  0.23012300  0.50000000  0.53271300  1
  H  H12  1  0.76987700  0.50000000  0.46728700  1
  H  H13  1  0.59667300  0.12580000  0.40636200  1
  H  H14  1  0.40332700  0.87420000  0.59363800  1
  H  H15  1  0.40332700  0.12580000  0.59363800  1
  H  H16  1  0.59667300  0.87420000  0.40636200  1
  H  H17  1  0.09667300  0.62580000  0.40636200  1
  H  H18  1  0.90332700  0.37420000  0.59363800  1
  H  H19  1  0.90332700  0.62580000  0.59363800  1
  H  H20  1  0.09667300  0.37420000  0.40636200  1
  H  H21  1  0.54812200  0.23768000  0.44759900  1
  H  H22  1  0.45187800  0.76232000  0.55240100  1
  H  H23  1  0.45187800  0.23768000  0.55240100  1
  H  H24  1  0.54812200  0.76232000  0.44759900  1
  H  H25  1  0.04812200  0.73768000  0.44759900  1
  H  H26  1  0.95187800  0.26232000  0.55240100  1
  H  H27  1  0.95187800  0.73768000  0.55240100  1
  H  H28  1  0.04812200  0.26232000  0.44759900  1
  H  H29  1  0.71475500  0.37063900  0.01489600  1
  H  H30  1  0.28524500  0.62936100  0.98510500  1
  H  H31  1  0.28524500  0.37063900  0.98510500  1
  H  H32  1  0.71475500  0.62936100  0.01489600  1
  H  H33  1  0.21475500  0.87063900  0.01489600  1
  H  H34  1  0.78524500  0.12936100  0.98510500  1
  H  H35  1  0.78524500  0.87063900  0.98510500  1
  H  H36  1  0.21475500  0.12936100  0.01489600  1
  H  H37  1  0.73522300  0.16214300  0.90657300  1
  H  H38  1  0.26477700  0.83785700  0.09342700  1
  H  H39  1  0.26477700  0.16214300  0.09342700  1
  H  H40  1  0.73522300  0.83785700  0.90657300  1
  H  H41  1  0.23522300  0.66214300  0.90657300  1
  H  H42  1  0.76477700  0.33785700  0.09342700  1
  H  H43  1  0.76477700  0.66214300  0.09342700  1
  H  H44  1  0.23522300  0.33785700  0.90657300  1
  H  H45  1  0.63271400  0.34908900  0.01383900  1
  H  H46  1  0.36728600  0.65091100  0.98616100  1
  H  H47  1  0.36728600  0.34908900  0.98616100  1
  H  H48  1  0.63271400  0.65091100  0.01383900  1
  H  H49  1  0.13271400  0.84908900  0.01383900  1
  H  H50  1  0.86728600  0.15091100  0.98616100  1
  H  H51  1  0.86728600  0.84908900  0.98616100  1
  H  H52  1  0.13271400  0.15091100  0.01383900  1
  H  H53  1  0.61891100  0.34996500  0.77318400  1
  H  H54  1  0.38108900  0.65003500  0.22681600  1
  H  H55  1  0.38108900  0.34996500  0.22681600  1
  H  H56  1  0.61891100  0.65003500  0.77318400  1
  H  H57  1  0.11891100  0.84996500  0.77318400  1
  H  H58  1  0.88108900  0.15003500  0.22681600  1
  H  H59  1  0.88108900  0.84996500  0.22681600  1
  H  H60  1  0.11891100  0.15003500  0.77318400  1
  H  H61  1  0.74511400  0.23605100  0.78667900  1
  H  H62  1  0.25488600  0.76394900  0.21332100  1
  H  H63  1  0.25488600  0.23605100  0.21332100  1
  H  H64  1  0.74511400  0.76394900  0.78667900  1
  H  H65  1  0.24511400  0.73605100  0.78667900  1
  H  H66  1  0.75488600  0.26394900  0.21332100  1
  H  H67  1  0.75488600  0.73605100  0.21332100  1
  H  H68  1  0.24511400  0.26394900  0.78667900  1
  C  C1  1  0.70516200  0.27179600  0.67591500  1
  C  C2  1  0.29483800  0.72820400  0.32408500  1
  C  C3  1  0.29483800  0.27179600  0.32408500  1
  C  C4  1  0.70516200  0.72820400  0.67591500  1
  C  C5  1  0.20516200  0.77179600  0.67591500  1
  C  C6  1  0.79483800  0.22820400  0.32408500  1
  C  C7  1  0.79483800  0.77179600  0.32408500  1
  C  C8  1  0.20516200  0.22820400  0.67591500  1
  C  C9  1  0.69433900  0.12921400  0.52790700  1
  C  C10  1  0.30566100  0.87078600  0.47209300  1
  C  C11  1  0.30566100  0.12921400  0.47209300  1
  C  C12  1  0.69433900  0.87078600  0.52790700  1
  C  C13  1  0.19433900  0.62921400  0.52790700  1
  C  C14  1  0.80566100  0.37078600  0.47209300  1
  C  C15  1  0.80566100  0.62921400  0.47209300  1
  C  C16  1  0.19433900  0.37078600  0.52790700  1
  C  C17  1  0.62089200  0.93794100  0.52406800  1
  C  C18  1  0.37910900  0.06205900  0.47593200  1
  C  C19  1  0.37910900  0.93794100  0.47593200  1
  C  C20  1  0.62089200  0.06205900  0.52406800  1
  C  C21  1  0.12089200  0.43794100  0.52406800  1
  C  C22  1  0.87910900  0.56205900  0.47593200  1
  C  C23  1  0.87910900  0.43794100  0.47593200  1
  C  C24  1  0.12089200  0.56205900  0.52406800  1
  C  C25  1  0.66778500  0.93764300  0.53078900  1
  C  C26  1  0.33221500  0.06235700  0.46921100  1
  C  C27  1  0.33221500  0.93764300  0.46921100  1
  C  C28  1  0.66778500  0.06235700  0.53078900  1
  C  C29  1  0.16778500  0.43764300  0.53078900  1
  C  C30  1  0.83221500  0.56235700  0.46921100  1
  C  C31  1  0.83221500  0.43764300  0.46921100  1
  C  C32  1  0.16778500  0.56235700  0.53078900  1
  C  C33  1  0.69242900  0.00000000  0.53071700  1
  C  C34  1  0.30757100  0.00000000  0.46928300  1
  C  C35  1  0.19242900  0.50000000  0.53071700  1
  C  C36  1  0.80757100  0.50000000  0.46928300  1
  C  C37  1  0.60042900  0.00000000  0.50686900  1
  C  C38  1  0.39957100  0.00000000  0.49313100  1
  C  C39  1  0.10042900  0.50000000  0.50686900  1
  C  C40  1  0.89957100  0.50000000  0.49313100  1
  C  C41  1  0.55400000  0.12524600  0.44882100  1
  C  C42  1  0.44600000  0.87475400  0.55117900  1
  C  C43  1  0.44600000  0.12524600  0.55117900  1
  C  C44  1  0.55400000  0.87475400  0.44882100  1
  C  C45  1  0.05400000  0.62524600  0.44882100  1
  C  C46  1  0.94600000  0.37475400  0.55117900  1
  C  C47  1  0.94600000  0.62524600  0.55117900  1
  C  C48  1  0.05400000  0.37475400  0.44882100  1
  C  C49  1  0.52683000  0.18840600  0.47106100  1
  C  C50  1  0.47317000  0.81159400  0.52893900  1
  C  C51  1  0.47317000  0.18840600  0.52893900  1
  C  C52  1  0.52683000  0.81159400  0.47106100  1
  C  C53  1  0.02683000  0.68840600  0.47106100  1
  C  C54  1  0.97317000  0.31159400  0.52893900  1
  C  C55  1  0.97317000  0.68840600  0.52893900  1
  C  C56  1  0.02683000  0.31159400  0.47106100  1
  C  C57  1  0.47270700  0.06255700  0.51514800  1
  C  C58  1  0.52729300  0.93744300  0.48485200  1
  C  C59  1  0.52729300  0.06255700  0.48485200  1
  C  C60  1  0.47270700  0.93744300  0.51514800  1
  C  C61  1  0.97270700  0.56255700  0.51514800  1
  C  C62  1  0.02729300  0.43744300  0.48485200  1
  C  C63  1  0.02729300  0.56255700  0.48485200  1
  C  C64  1  0.97270700  0.43744300  0.51514800  1
  C  C65  1  0.94617700  0.50000000  0.51569900  1
  C  C66  1  0.05382300  0.50000000  0.48430100  1
  C  C67  1  0.44617700  0.00000000  0.51569900  1
  C  C68  1  0.55382300  0.00000000  0.48430100  1
  C  C69  1  0.72106700  0.26873500  0.95512500  1
  C  C70  1  0.27893300  0.73126500  0.04487500  1
  C  C71  1  0.27893300  0.26873500  0.04487500  1
  C  C72  1  0.72106700  0.73126500  0.95512500  1
  C  C73  1  0.22106700  0.76873500  0.95512500  1
  C  C74  1  0.77893300  0.23126500  0.04487500  1
  C  C75  1  0.77893300  0.76873500  0.04487500  1
  C  C76  1  0.22106700  0.23126500  0.95512500  1
  C  C77  1  0.74202900  0.20148700  0.94657200  1
  C  C78  1  0.25797100  0.79851300  0.05342800  1
  C  C79  1  0.25797100  0.20148700  0.05342800  1
  C  C80  1  0.74202900  0.79851300  0.94657200  1
  C  C81  1  0.24202900  0.70148700  0.94657200  1
  C  C82  1  0.75797100  0.29851300  0.05342800  1
  C  C83  1  0.75797100  0.70148700  0.05342800  1
  C  C84  1  0.24202900  0.29851300  0.94657200  1
  C  C85  1  0.77066900  0.18289000  0.99110900  1
  C  C86  1  0.22933100  0.81711000  0.00889100  1
  C  C87  1  0.22933100  0.18289000  0.00889100  1
  C  C88  1  0.77066900  0.81711000  0.99110900  1
  C  C89  1  0.27066900  0.68289000  0.99110900  1
  C  C90  1  0.72933100  0.31711000  0.00889100  1
  C  C91  1  0.72933100  0.68289000  0.00889100  1
  C  C92  1  0.27066900  0.31711000  0.99110900  1
  C  C93  1  0.64695300  0.33224700  0.94558200  1
  C  C94  1  0.35304700  0.66775300  0.05441800  1
  C  C95  1  0.35304700  0.33224700  0.05441800  1
  C  C96  1  0.64695300  0.66775300  0.94558200  1
  C  C97  1  0.14695300  0.83224700  0.94558200  1
  C  C98  1  0.85304700  0.16775300  0.05441800  1
  C  C99  1  0.85304700  0.83224700  0.05441800  1
  C  C100  1  0.14695300  0.16775300  0.94558200  1
  C  C101  1  0.62066100  0.35398600  0.89805400  1
  C  C102  1  0.37933900  0.64601400  0.10194600  1
  C  C103  1  0.37933900  0.35398600  0.10194600  1
  C  C104  1  0.62066100  0.64601400  0.89805400  1
  C  C105  1  0.12066100  0.85398600  0.89805400  1
  C  C106  1  0.87933900  0.14601400  0.10194600  1
  C  C107  1  0.87933900  0.85398600  0.10194600  1
  C  C108  1  0.12066100  0.14601400  0.89805400  1
  C  C109  1  0.63871800  0.33192200  0.81097700  1
  C  C110  1  0.36128200  0.66807800  0.18902300  1
  C  C111  1  0.36128200  0.33192200  0.18902300  1
  C  C112  1  0.63871800  0.66807800  0.81097700  1
  C  C113  1  0.13871800  0.83192200  0.81097700  1
  C  C114  1  0.86128200  0.16807800  0.18902300  1
  C  C115  1  0.86128200  0.83192200  0.18902300  1
  C  C116  1  0.13871800  0.16807800  0.81097700  1
  C  C117  1  0.68318800  0.28908200  0.77093300  1
  C  C118  1  0.31681200  0.71091800  0.22906700  1
  C  C119  1  0.31681200  0.28908200  0.22906700  1
  C  C120  1  0.68318800  0.71091800  0.77093300  1
  C  C121  1  0.18318800  0.78908200  0.77093300  1
  C  C122  1  0.81681200  0.21091800  0.22906700  1
  C  C123  1  0.81681200  0.78908200  0.22906700  1
  C  C124  1  0.18318800  0.21091800  0.77093300  1
  C  C125  1  0.70922400  0.26740100  0.81884400  1
  C  C126  1  0.29077600  0.73259900  0.18115600  1
  C  C127  1  0.29077600  0.26740100  0.18115600  1
  C  C128  1  0.70922400  0.73259900  0.81884400  1
  C  C129  1  0.20922400  0.76740100  0.81884400  1
  C  C130  1  0.79077600  0.23259900  0.18115600  1
  C  C131  1  0.79077600  0.76740100  0.18115600  1
  C  C132  1  0.20922400  0.23259900  0.81884400  1
  C  C133  1  0.69141400  0.28902200  0.90618400  1
  C  C134  1  0.30858600  0.71097800  0.09381600  1
  C  C135  1  0.30858600  0.28902200  0.09381600  1
  C  C136  1  0.69141400  0.71097800  0.90618400  1
  C  C137  1  0.19141400  0.78902200  0.90618400  1
  C  C138  1  0.80858600  0.21097800  0.09381600  1
  C  C139  1  0.80858600  0.78902200  0.09381600  1
  C  C140  1  0.19141400  0.21097800  0.90618400  1
  C  C141  1  0.07596400  0.09607700  0.93749900  1
  C  C142  1  0.92403600  0.90392300  0.06250100  1
  C  C143  1  0.92403600  0.09607700  0.06250100  1
  C  C144  1  0.07596400  0.90392300  0.93749900  1
  C  C145  1  0.57596400  0.59607700  0.93749900  1
  C  C146  1  0.42403600  0.40392300  0.06250100  1
  C  C147  1  0.42403600  0.59607700  0.06250100  1
  C  C148  1  0.57596400  0.40392300  0.93749900  1
  O  O1  1  0.74978200  0.23580900  0.63601900  1
  O  O2  1  0.25021800  0.76419100  0.36398100  1
  O  O3  1  0.25021800  0.23580900  0.36398100  1
  O  O4  1  0.74978200  0.76419100  0.63601900  1
  O  O5  1  0.24978200  0.73580900  0.63601900  1
  O  O6  1  0.75021800  0.26419100  0.36398100  1
  O  O7  1  0.75021800  0.73580900  0.36398100  1
  O  O8  1  0.24978200  0.26419100  0.63601900  1
  O  O9  1  0.67381100  0.18857600  0.51775500  1
  O  O10  1  0.32619000  0.81142400  0.48224500  1
  O  O11  1  0.32619000  0.18857600  0.48224500  1
  O  O12  1  0.67381100  0.81142400  0.51775500  1
  O  O13  1  0.17381100  0.68857600  0.51775500  1
  O  O14  1  0.82619000  0.31142400  0.48224500  1
  O  O15  1  0.82619000  0.68857600  0.48224500  1
  O  O16  1  0.17381100  0.31142400  0.51775500  1
  O  O17  1  0.74160100  0.12875000  0.52484900  1
  O  O18  1  0.25839900  0.87125000  0.47515100  1
  O  O19  1  0.25839900  0.12875000  0.47515100  1
  O  O20  1  0.74160100  0.87125000  0.52484900  1
  O  O21  1  0.24160100  0.62875000  0.52484900  1
  O  O22  1  0.75839900  0.37125000  0.47515100  1
  O  O23  1  0.75839900  0.62875000  0.47515100  1
  O  O24  1  0.24160100  0.37125000  0.52484900  1
  O  O25  1  0.68218000  0.29663200  0.62954700  1
  O  O26  1  0.31782000  0.70336800  0.37045300  1
  O  O27  1  0.31782000  0.29663200  0.37045300  1
  O  O28  1  0.68218000  0.70336800  0.62954700  1
  O  O29  1  0.18218000  0.79663200  0.62954700  1
  O  O30  1  0.81782000  0.20336800  0.37045300  1
  O  O31  1  0.81782000  0.79663200  0.37045300  1
  O  O32  1  0.18218000  0.20336800  0.62954700  1
  O  O33  1  0.06041300  0.07180100  0.01845800  1
  O  O34  1  0.93958700  0.92819900  0.98154200  1
  O  O35  1  0.93958700  0.07180100  0.98154200  1
  O  O36  1  0.06041300  0.92819900  0.01845800  1
  O  O37  1  0.56041300  0.57180100  0.01845800  1
  O  O38  1  0.43958700  0.42819900  0.98154200  1
  O  O39  1  0.43958700  0.57180100  0.98154200  1
  O  O40  1  0.56041300  0.42819900  0.01845800  1
  O  O41  1  0.94652300  0.07232400  0.11014600  1
  O  O42  1  0.05347700  0.92767600  0.88985400  1
  O  O43  1  0.05347700  0.07232400  0.88985400  1
  O  O44  1  0.94652300  0.92767600  0.11014600  1
  O  O45  1  0.44652300  0.57232400  0.11014600  1
  O  O46  1  0.55347700  0.42767600  0.88985400  1
  O  O47  1  0.55347700  0.57232400  0.88985400  1
  O  O48  1  0.44652300  0.42767600  0.11014600  1
