# generated using pymatgen
data_Zn6H41C78NO24
_symmetry_space_group_name_H-M   'P 1'
_cell_length_a   21.84873200
_cell_length_b   21.86489500
_cell_length_c   22.21270000
_cell_angle_alpha   60.54590600
_cell_angle_beta   119.43882500
_cell_angle_gamma   89.95932300
_symmetry_Int_Tables_number   1
_chemical_formula_structural   Zn6H41C78NO24
_chemical_formula_sum   'Zn6 H41 C78 N1 O24'
_cell_volume   7624.72421640
_cell_formula_units_Z   1
loop_
 _symmetry_equiv_pos_site_id
 _symmetry_equiv_pos_as_xyz
  1  'x, y, z'
loop_
 _atom_site_type_symbol
 _atom_site_label
 _atom_site_symmetry_multiplicity
 _atom_site_fract_x
 _atom_site_fract_y
 _atom_site_fract_z
 _atom_site_occupancy
  Zn  Zn1  1  0.49713600  0.43093500  0.50265300  1
  Zn  Zn2  1  0.48853100  0.57520600  0.49057100  1
  Zn  Zn3  1  0.05994700  0.00499800  0.49253900  1
  Zn  Zn4  1  0.92579200  0.00074900  0.50115200  1
  Zn  Zn5  1  0.93774900  0.54540700  0.40141100  1
  Zn  Zn6  1  0.04668800  0.46220800  0.58892300  1
  H  H1  1  0.36799300  0.77117400  0.04666700  1
  H  H2  1  0.32059500  0.71848700  0.94271500  1
  H  H3  1  0.22208500  0.86917100  0.94387800  1
  H  H4  1  0.18956700  0.75907300  0.05085300  1
  H  H5  1  0.14215100  0.70638200  0.94700300  1
  H  H6  1  0.28810300  0.60825700  0.04988800  1
  H  H7  1  0.64043200  0.60204500  0.40117400  1
  H  H8  1  0.70795100  0.38457000  0.65869100  1
  H  H9  1  0.81807600  0.27953900  0.77432400  1
  H  H10  1  0.92932600  0.26998300  0.77346500  1
  H  H11  1  0.93108500  0.36475200  0.65911600  1
  H  H12  1  0.75174000  0.59906500  0.40228700  1
  H  H13  1  0.61754200  0.34993800  0.94580700  1
  H  H14  1  0.66518400  0.19341400  0.05127700  1
  H  H15  1  0.76339900  0.34569600  0.04809600  1
  H  H16  1  0.79619400  0.34065400  0.94201800  1
  H  H17  1  0.84370600  0.18425700  0.04735000  1
  H  H18  1  0.69803800  0.18841700  0.94527200  1
  H  H19  1  0.34213400  0.40173000  0.58692400  1
  H  H20  1  0.27858100  0.62572200  0.33592100  1
  H  H21  1  0.17068200  0.73397100  0.22456500  1
  H  H22  1  0.06011200  0.74363600  0.22671400  1
  H  H23  1  0.05682200  0.64514900  0.33812600  1
  H  H24  1  0.23019100  0.40509600  0.58477400  1
  H  H25  1  0.97991500  0.76357900  0.58603700  1
  H  H26  1  0.96769800  0.94403100  0.34144700  1
  H  H27  1  0.97599000  0.94127800  0.23869300  1
  H  H28  1  0.99313400  0.82547500  0.24782800  1
  H  H29  1  0.99965000  0.71361800  0.35791600  1
  H  H30  1  0.98337400  0.65190200  0.58710200  1
  H  H31  1  0.02700200  0.23262800  0.42327100  1
  H  H32  1  0.00116700  0.06902000  0.64401900  1
  H  H33  1  0.97349000  0.08196400  0.73018700  1
  H  H34  1  0.95279800  0.20131800  0.71299400  1
  H  H35  1  0.96264600  0.30660500  0.61166000  1
  H  H36  1  0.91706100  0.40188700  0.30449300  1
  H  H37  1  0.98291800  0.35061400  0.30549300  1
  H  H38  1  0.98031500  0.44299900  0.28058500  1
  H  H39  1  0.13550900  0.28787500  0.48948800  1
  H  H40  1  0.12668100  0.38459000  0.44521600  1
  H  H41  1  0.10481300  0.34929300  0.38118700  1
  C  C1  1  0.61914800  0.50063800  0.51082300  1
  C  C2  1  0.42092300  0.57862700  0.33357100  1
  C  C3  1  0.36633800  0.50566900  0.48204500  1
  C  C4  1  0.56477900  0.42749100  0.65969500  1
  C  C5  1  0.29156100  0.72703800  0.96854100  1
  C  C6  1  0.31613600  0.75712700  0.02277100  1
  C  C7  1  0.37874300  0.61939400  0.24396500  1
  C  C8  1  0.12655100  0.86424200  0.74971000  1
  C  C9  1  0.27246300  0.66805300  0.02454600  1
  C  C10  1  0.29616500  0.69902500  0.07702200  1
  C  C11  1  0.19402500  0.72040500  0.97089900  1
  C  C12  1  0.21398200  0.77851500  0.91663700  1
  C  C13  1  0.21858100  0.75052600  0.02500300  1
  C  C14  1  0.23774200  0.80937700  0.96921800  1
  C  C15  1  0.34206200  0.65475400  0.16858600  1
  C  C16  1  0.16635600  0.82496800  0.82508500  1
  C  C17  1  0.75518800  0.38263900  0.65489400  1
  C  C18  1  0.81793900  0.32273500  0.72172900  1
  C  C19  1  0.88018500  0.31759400  0.72133600  1
  C  C20  1  0.88061800  0.37307100  0.65519600  1
  C  C21  1  0.81839400  0.43546300  0.58768100  1
  C  C22  1  0.75413500  0.43854500  0.58672100  1
  C  C23  1  0.68969000  0.49804000  0.51847400  1
  C  C24  1  0.69042700  0.55558900  0.45404500  1
  C  C25  1  0.75339700  0.55314800  0.45448700  1
  C  C26  1  0.81772800  0.49373000  0.52007200  1
  C  C27  1  0.69422300  0.22745400  0.02522100  1
  C  C28  1  0.66947500  0.31174800  0.97010500  1
  C  C29  1  0.60701500  0.38667300  0.74936000  1
  C  C30  1  0.85915600  0.14145400  0.24389000  1
  C  C31  1  0.71350900  0.22344200  0.96986600  1
  C  C32  1  0.68962400  0.30687200  0.91640100  1
  C  C33  1  0.79177900  0.22245800  0.02305100  1
  C  C34  1  0.77174600  0.22723700  0.07687200  1
  C  C35  1  0.76714300  0.30664200  0.96808000  1
  C  C36  1  0.74790600  0.31067400  0.02350000  1
  C  C37  1  0.64372000  0.35124300  0.82477600  1
  C  C38  1  0.81936100  0.18073000  0.16848100  1
  C  C39  1  0.23168200  0.62762900  0.34028800  1
  C  C40  1  0.17011800  0.68937600  0.27579300  1
  C  C41  1  0.10821400  0.69459500  0.27684400  1
  C  C42  1  0.10678700  0.63722500  0.34098900  1
  C  C43  1  0.16764300  0.57315300  0.40575300  1
  C  C44  1  0.23189900  0.56996300  0.40679200  1
  C  C45  1  0.29530700  0.50868400  0.47337100  1
  C  C46  1  0.29307000  0.44957200  0.53538100  1
  C  C47  1  0.22986500  0.45213600  0.53449200  1
  C  C48  1  0.16686200  0.51328800  0.47083800  1
  C  C49  1  0.98367400  0.89054400  0.48299400  1
  C  C50  1  0.07863200  0.91213700  0.66005300  1
  C  C51  1  0.00227000  0.11510500  0.51108500  1
  C  C52  1  0.90708800  0.09357900  0.33360200  1
  C  C53  1  0.98860300  0.62889700  0.48438300  1
  C  C54  1  0.88104000  0.49611200  0.51200100  1
  C  C55  1  0.99629900  0.37887000  0.50564400  1
  C  C56  1  0.10342000  0.51132500  0.47849000  1
  C  C57  1  0.97590700  0.89160000  0.34867300  1
  C  C58  1  0.97958500  0.89098600  0.28896200  1
  C  C59  1  0.98873500  0.82633600  0.29380400  1
  C  C60  1  0.99144400  0.76277400  0.35651500  1
  C  C61  1  0.98514100  0.76278300  0.41576700  1
  C  C62  1  0.98101800  0.82720200  0.41404600  1
  C  C63  1  0.98051200  0.82690700  0.47660800  1
  C  C64  1  0.98027100  0.76403500  0.53732900  1
  C  C65  1  0.98328400  0.70067900  0.53851600  1
  C  C66  1  0.98546800  0.69911000  0.47829000  1
  C  C67  1  0.99110700  0.12303300  0.63279200  1
  C  C68  1  0.97668000  0.12935300  0.68350200  1
  C  C69  1  0.96560800  0.19596200  0.67427600  1
  C  C70  1  0.97223700  0.25550500  0.61691900  1
  C  C71  1  0.98956100  0.24937500  0.56737300  1
  C  C72  1  0.99473100  0.18367300  0.57192900  1
  C  C73  1  0.00547600  0.17904500  0.51724500  1
  C  C74  1  0.01682600  0.23745400  0.46390700  1
  C  C75  1  0.01404500  0.30197900  0.46098600  1
  C  C76  1  0.99979800  0.30859800  0.51197800  1
  C  C77  1  0.97407600  0.39044100  0.31978900  1
  C  C78  1  0.10244000  0.34469800  0.43192400  1
  N  N1  1  0.02675100  0.36138500  0.40694700  1
  O  O1  1  0.59268400  0.44607400  0.51355300  1
  O  O2  1  0.58472300  0.55819700  0.49967300  1
  O  O3  1  0.43981400  0.50602100  0.37702700  1
  O  O4  1  0.43637300  0.61625200  0.36749100  1
  O  O5  1  0.40088500  0.44801500  0.49342700  1
  O  O6  1  0.39299500  0.56005200  0.47968700  1
  O  O7  1  0.54925100  0.38990800  0.62572700  1
  O  O8  1  0.54590800  0.50009700  0.61620500  1
  O  O9  1  0.03575600  0.92002300  0.48171500  1
  O  O10  1  0.93587000  0.91362200  0.49271800  1
  O  O11  1  0.10896300  0.93685500  0.61788300  1
  O  O12  1  0.00679300  0.93036100  0.62474700  1
  O  O13  1  0.05001000  0.09192700  0.50132900  1
  O  O14  1  0.94982900  0.08594400  0.51156200  1
  O  O15  1  0.97893900  0.07560100  0.36897400  1
  O  O16  1  0.87678300  0.06863700  0.37578300  1
  O  O17  1  0.94625600  0.62983700  0.41659200  1
  O  O18  1  0.03209100  0.56721800  0.55894600  1
  O  O19  1  0.86600400  0.52872000  0.43624600  1
  O  O20  1  0.94904700  0.46922000  0.57848600  1
  O  O21  1  0.95220100  0.44047300  0.43125500  1
  O  O22  1  0.03806700  0.37769200  0.57376700  1
  O  O23  1  0.03537700  0.53844600  0.41175700  1
  O  O24  1  0.11849800  0.47875900  0.55421700  1
