# generated using pymatgen
data_CuH33C32NO4
_symmetry_space_group_name_H-M   'P 1'
_cell_length_a   19.37540100
_cell_length_b   17.86048300
_cell_length_c   10.64258400
_cell_angle_alpha   90.00000000
_cell_angle_beta   90.01688800
_cell_angle_gamma   90.00000000
_symmetry_Int_Tables_number   1
_chemical_formula_structural   CuH33C32NO4
_chemical_formula_sum   'Cu2 H66 C64 N2 O8'
_cell_volume   3682.90881831
_cell_formula_units_Z   2
loop_
 _symmetry_equiv_pos_site_id
 _symmetry_equiv_pos_as_xyz
  1  'x, y, z'
loop_
 _atom_site_type_symbol
 _atom_site_label
 _atom_site_symmetry_multiplicity
 _atom_site_fract_x
 _atom_site_fract_y
 _atom_site_fract_z
 _atom_site_occupancy
  Cu  Cu1  1  0.50021100  0.57580400  0.50129100  1
  Cu  Cu2  1  0.49992000  0.42931900  0.50084600  1
  H  H1  1  0.44643400  0.61278500  0.08932000  1
  H  H2  1  0.55315300  0.39120200  0.90956000  1
  H  H3  1  0.55449900  0.61281300  0.91465600  1
  H  H4  1  0.44576600  0.39028900  0.08770300  1
  H  H5  1  0.84788000  0.38856500  0.48554100  1
  H  H6  1  0.15620700  0.62058400  0.43094500  1
  H  H7  1  0.15006100  0.39152900  0.51665400  1
  H  H8  1  0.84247600  0.62072800  0.55840300  1
  H  H9  1  0.94448600  0.59029000  0.64788200  1
  H  H10  1  0.05855500  0.42484200  0.34294100  1
  H  H11  1  0.06911300  0.59278200  0.62653500  1
  H  H12  1  0.93362900  0.42657600  0.35366400  1
  H  H13  1  0.44984200  0.69560100  0.32550600  1
  H  H14  1  0.54486000  0.31023000  0.68092100  1
  H  H15  1  0.54802300  0.69685700  0.67886300  1
  H  H16  1  0.45405700  0.31024700  0.32188500  1
  H  H17  1  0.45058700  0.83090800  0.32049700  1
  H  H18  1  0.54504700  0.17410500  0.68459300  1
  H  H19  1  0.54730900  0.83213400  0.68146400  1
  H  H20  1  0.45444400  0.17388300  0.31809800  1
  H  H21  1  0.60068600  0.93525800  0.58584000  1
  H  H22  1  0.40021000  0.07070100  0.41779200  1
  H  H23  1  0.40010400  0.93542900  0.41757300  1
  H  H24  1  0.60036700  0.07077000  0.58705500  1
  H  H25  1  0.33128600  0.51316100  0.04514000  1
  H  H26  1  0.35718900  0.56247300  0.77255200  1
  H  H27  1  0.35783200  0.62372300  0.90798700  1
  H  H28  1  0.27983800  0.57548300  0.86389200  1
  H  H29  1  0.35509000  0.42276500  0.80427000  1
  H  H30  1  0.27358800  0.43715200  0.88386600  1
  H  H31  1  0.34123000  0.38554800  0.96032200  1
  H  H32  1  0.66849200  0.51094400  0.95678500  1
  H  H33  1  0.64235800  0.56202100  0.22818500  1
  H  H34  1  0.64291600  0.62246800  0.09194800  1
  H  H35  1  0.72017800  0.57346500  0.13753800  1
  H  H36  1  0.64448700  0.42268900  0.20007300  1
  H  H37  1  0.72559100  0.43497900  0.11843700  1
  H  H38  1  0.65674000  0.38353500  0.04497900  1
  H  H39  1  0.66286700  0.37047600  0.41167300  1
  H  H40  1  0.79756100  0.28934400  0.38936600  1
  H  H41  1  0.77622300  0.36487200  0.28232200  1
  H  H42  1  0.71992000  0.28518100  0.29810400  1
  H  H43  1  0.76198500  0.29912600  0.60348000  1
  H  H44  1  0.68487500  0.25762700  0.53790700  1
  H  H45  1  0.67879600  0.33775800  0.64119300  1
  H  H46  1  0.34365900  0.62098700  0.35141900  1
  H  H47  1  0.20687500  0.68782300  0.27474600  1
  H  H48  1  0.24275000  0.60432400  0.20227700  1
  H  H49  1  0.29023900  0.69104700  0.20156600  1
  H  H50  1  0.23695100  0.71702000  0.49326500  1
  H  H51  1  0.31684300  0.74834200  0.42438400  1
  H  H52  1  0.31799900  0.68504300  0.55685700  1
  H  H53  1  0.33568400  0.37240400  0.59207800  1
  H  H54  1  0.20036100  0.29234000  0.61549600  1
  H  H55  1  0.22129600  0.36974700  0.71909500  1
  H  H56  1  0.27747300  0.28963800  0.70852800  1
  H  H57  1  0.23709300  0.29825100  0.40233300  1
  H  H58  1  0.31403800  0.25807600  0.47081900  1
  H  H59  1  0.32043400  0.33645400  0.36379500  1
  H  H60  1  0.65710500  0.62022700  0.64965600  1
  H  H61  1  0.79515100  0.68642900  0.72051300  1
  H  H62  1  0.75969600  0.60338700  0.79487600  1
  H  H63  1  0.71275600  0.69044800  0.79717500  1
  H  H64  1  0.76164300  0.71676200  0.50432800  1
  H  H65  1  0.68215400  0.74674500  0.57635500  1
  H  H66  1  0.68015800  0.68386300  0.44352000  1
  C  C1  1  0.36857000  0.50248900  0.48471500  1
  C  C2  1  0.63142100  0.50185100  0.51676400  1
  C  C3  1  0.50875800  0.50234100  0.26293300  1
  C  C4  1  0.49090800  0.50287800  0.73892100  1
  C  C5  1  0.47073800  0.56198900  0.04898000  1
  C  C6  1  0.52918700  0.44143200  0.95248500  1
  C  C7  1  0.52944200  0.56204200  0.95370100  1
  C  C8  1  0.47002800  0.44127800  0.04793400  1
  C  C9  1  0.43417800  0.50217100  0.97304500  1
  C  C10  1  0.56546300  0.50144900  0.02865600  1
  C  C11  1  0.49241300  0.50203300  0.87914600  1
  C  C12  1  0.50719200  0.50118700  0.12257100  1
  C  C13  1  0.74669800  0.43642900  0.49160300  1
  C  C14  1  0.25560100  0.56720500  0.43981300  1
  C  C15  1  0.25259600  0.43768200  0.50795600  1
  C  C16  1  0.74453600  0.56598000  0.55845700  1
  C  C17  1  0.81814800  0.43909600  0.49700100  1
  C  C18  1  0.18440500  0.56985400  0.45111200  1
  C  C19  1  0.18120700  0.44047100  0.49942400  1
  C  C20  1  0.81560300  0.56860500  0.54418300  1
  C  C21  1  0.85288400  0.50545500  0.51438000  1
  C  C22  1  0.14740600  0.50661000  0.47828400  1
  C  C23  1  0.70829000  0.50101500  0.52303200  1
  C  C24  1  0.29152800  0.50212200  0.47687900  1
  C  C25  1  0.96819900  0.55513900  0.57754400  1
  C  C26  1  0.03336900  0.46168200  0.40924700  1
  C  C27  1  0.03915200  0.55646000  0.56629800  1
  C  C28  1  0.96236000  0.46214500  0.41695600  1
  C  C29  1  0.07200100  0.50895700  0.48356200  1
  C  C30  1  0.92892300  0.50780700  0.50299100  1
  C  C31  1  0.47219100  0.72546000  0.40369400  1
  C  C32  1  0.52459300  0.27986900  0.60126300  1
  C  C33  1  0.52644500  0.72609600  0.59950000  1
  C  C34  1  0.47397900  0.27984900  0.40185800  1
  C  C35  1  0.47203600  0.80269200  0.40140100  1
  C  C36  1  0.52556600  0.20269500  0.60242800  1
  C  C37  1  0.52702900  0.80328700  0.60024700  1
  C  C38  1  0.47388200  0.20262900  0.40013700  1
  C  C39  1  0.50020400  0.84262200  0.50005000  1
  C  C40  1  0.50021000  0.16313600  0.50095400  1
  C  C41  1  0.55609400  0.96430800  0.54911800  1
  C  C42  1  0.44524300  0.04156000  0.45226200  1
  C  C43  1  0.44523400  0.96441100  0.45194400  1
  C  C44  1  0.55597500  0.04157300  0.54981900  1
  C  C45  1  0.50067100  0.08079600  0.50063000  1
  C  C46  1  0.50071900  0.92505500  0.49982300  1
  C  C47  1  0.35647200  0.50538800  0.95249700  1
  C  C48  1  0.33687900  0.57091600  0.86871000  1
  C  C49  1  0.33020400  0.43294400  0.89621000  1
  C  C50  1  0.64315900  0.50382500  0.04944000  1
  C  C51  1  0.66313800  0.56961500  0.13221200  1
  C  C52  1  0.66883200  0.43149400  0.10726300  1
  C  C53  1  0.71447300  0.36264100  0.45296400  1
  C  C54  1  0.75507200  0.32346900  0.34951200  1
  C  C55  1  0.70970700  0.31099200  0.56606100  1
  C  C56  1  0.29029400  0.63387700  0.37966700  1
  C  C57  1  0.25473100  0.65544000  0.25735800  1
  C  C58  1  0.29040900  0.70021900  0.46922600  1
  C  C59  1  0.28417900  0.36431400  0.55034300  1
  C  C60  1  0.24271100  0.32704700  0.65455200  1
  C  C61  1  0.28924800  0.31087400  0.43971300  1
  C  C62  1  0.71026900  0.63281200  0.61944100  1
  C  C63  1  0.74732000  0.65449400  0.74012700  1
  C  C64  1  0.70866500  0.69917200  0.53007800  1
  N  N1  1  0.50040600  0.68792200  0.50067500  1
  N  N2  1  0.49968400  0.31730300  0.50118300  1
  O  O1  1  0.40046900  0.56441200  0.52146000  1
  O  O2  1  0.59698600  0.44061400  0.54676600  1
  O  O3  1  0.59984600  0.56401300  0.48039000  1
  O  O4  1  0.40283900  0.44102200  0.45516800  1
  O  O5  1  0.48897300  0.56432300  0.31960400  1
  O  O6  1  0.47498300  0.44082600  0.67796100  1
  O  O7  1  0.51137700  0.56445200  0.68230500  1
  O  O8  1  0.52481100  0.44039600  0.32401900  1
