# generated using pymatgen
data_CuH19C27NO4
_symmetry_space_group_name_H-M   'P 1'
_cell_length_a   19.31435000
_cell_length_b   17.86289100
_cell_length_c   10.94879700
_cell_angle_alpha   90.00000000
_cell_angle_beta   90.00644200
_cell_angle_gamma   90.00000000
_symmetry_Int_Tables_number   1
_chemical_formula_structural   CuH19C27NO4
_chemical_formula_sum   'Cu2 H38 C54 N2 O8'
_cell_volume   3777.44583914
_cell_formula_units_Z   2
loop_
 _symmetry_equiv_pos_site_id
 _symmetry_equiv_pos_as_xyz
  1  'x, y, z'
loop_
 _atom_site_type_symbol
 _atom_site_label
 _atom_site_symmetry_multiplicity
 _atom_site_fract_x
 _atom_site_fract_y
 _atom_site_fract_z
 _atom_site_occupancy
  Cu  Cu1  1  0.50033200  0.57582600  0.49967200  1
  Cu  Cu2  1  0.50061100  0.42907800  0.49936400  1
  H  H1  1  0.44418900  0.63943700  0.19747800  1
  H  H2  1  0.56067700  0.63677900  0.80268700  1
  H  H3  1  0.47332400  0.75522800  0.09750600  1
  H  H4  1  0.53544800  0.75366600  0.90180400  1
  H  H5  1  0.71709600  0.40117300  0.37981400  1
  H  H6  1  0.28410500  0.40129500  0.61976300  1
  H  H7  1  0.84245300  0.40110500  0.38040800  1
  H  H8  1  0.15874100  0.40073300  0.61848300  1
  H  H9  1  0.84120300  0.59865100  0.60269400  1
  H  H10  1  0.15950100  0.59827600  0.39648400  1
  H  H11  1  0.71694000  0.60115700  0.59446000  1
  H  H12  1  0.28411500  0.60126300  0.40560300  1
  H  H13  1  0.93848900  0.61920300  0.49249800  1
  H  H14  1  0.06229700  0.61924900  0.50793700  1
  H  H15  1  0.06279400  0.37952600  0.50100100  1
  H  H16  1  0.93812500  0.37946400  0.49972200  1
  H  H17  1  0.40656000  0.69603500  0.40177300  1
  H  H18  1  0.59389000  0.69556700  0.59868800  1
  H  H19  1  0.40361300  0.83146300  0.40588700  1
  H  H20  1  0.59651500  0.83064700  0.59830400  1
  H  H21  1  0.54494700  0.93577500  0.68048500  1
  H  H22  1  0.45447900  0.93577100  0.32324200  1
  H  H23  1  0.54705600  0.07117800  0.67796900  1
  H  H24  1  0.45426600  0.07116100  0.32394300  1
  H  H25  1  0.39658300  0.17361900  0.43325400  1
  H  H26  1  0.60361400  0.17326400  0.57070700  1
  H  H27  1  0.39889600  0.31010300  0.43216500  1
  H  H28  1  0.60221600  0.30962000  0.57053800  1
  H  H29  1  0.44552300  0.32082600  0.05332900  1
  H  H30  1  0.42526600  0.36639100  0.18442500  1
  H  H31  1  0.57679500  0.35383800  0.19552900  1
  H  H32  1  0.48171800  0.21724900  0.18380400  1
  H  H33  1  0.57265300  0.22232000  0.24369100  1
  H  H34  1  0.54511500  0.31764900  0.94435000  1
  H  H35  1  0.56959900  0.36292000  0.81524300  1
  H  H36  1  0.41648900  0.35924400  0.80353900  1
  H  H37  1  0.50569700  0.21781400  0.80322700  1
  H  H38  1  0.41455900  0.22930100  0.74746600  1
  C  C1  1  0.36894700  0.50211200  0.51285400  1
  C  C2  1  0.63204600  0.50231400  0.48651200  1
  C  C3  1  0.48937700  0.50279400  0.26564600  1
  C  C4  1  0.51091500  0.50255300  0.73367200  1
  C  C5  1  0.47237200  0.63618800  0.11279500  1
  C  C6  1  0.53181400  0.63476700  0.88681700  1
  C  C7  1  0.48643500  0.70259900  0.05460800  1
  C  C8  1  0.52002100  0.70176400  0.94465300  1
  C  C9  1  0.51080600  0.56737500  0.93866800  1
  C  C10  1  0.49087400  0.56781300  0.06087400  1
  C  C11  1  0.48684800  0.50099600  0.12750600  1
  C  C12  1  0.51290900  0.50052000  0.87178200  1
  C  C13  1  0.49002900  0.43302900  0.06195800  1
  C  C14  1  0.50725000  0.43268800  0.93700400  1
  C  C15  1  0.74409500  0.44495800  0.42853000  1
  C  C16  1  0.25691000  0.44500600  0.57122400  1
  C  C17  1  0.81560500  0.44452300  0.43015900  1
  C  C18  1  0.18544300  0.44450600  0.56944100  1
  C  C19  1  0.85188500  0.49976000  0.49189200  1
  C  C20  1  0.14908300  0.49983700  0.50809200  1
  C  C21  1  0.81514700  0.55578400  0.55050300  1
  C  C22  1  0.18574100  0.55583400  0.44930500  1
  C  C23  1  0.74391300  0.55704900  0.54658800  1
  C  C24  1  0.25700900  0.55718000  0.45340500  1
  C  C25  1  0.70791600  0.50157800  0.48616400  1
  C  C26  1  0.29305300  0.50153900  0.51370200  1
  C  C27  1  0.96479900  0.56593600  0.49752700  1
  C  C28  1  0.03604800  0.56596600  0.50325900  1
  C  C29  1  0.07266400  0.49938400  0.50486000  1
  C  C30  1  0.92828400  0.49931600  0.49564400  1
  C  C31  1  0.03619600  0.43268100  0.50233600  1
  C  C32  1  0.96476000  0.43263500  0.49859600  1
  C  C33  1  0.44817400  0.72575400  0.44621000  1
  C  C34  1  0.55208200  0.72546600  0.55515600  1
  C  C35  1  0.44713600  0.80295900  0.44665900  1
  C  C36  1  0.55306100  0.80263900  0.55608200  1
  C  C37  1  0.50012600  0.84254300  0.50134600  1
  C  C38  1  0.52640100  0.96449500  0.60008200  1
  C  C39  1  0.47396300  0.96456600  0.40290100  1
  C  C40  1  0.52720500  0.04168100  0.59928300  1
  C  C41  1  0.47385100  0.04177100  0.40307600  1
  C  C42  1  0.50035900  0.08081700  0.50137200  1
  C  C43  1  0.50001800  0.92511000  0.50159600  1
  C  C44  1  0.44297000  0.20245200  0.46252500  1
  C  C45  1  0.55763400  0.20231500  0.54069000  1
  C  C46  1  0.44400900  0.27969000  0.46293100  1
  C  C47  1  0.55709200  0.27949300  0.53926900  1
  C  C48  1  0.50032000  0.16299000  0.50142100  1
  C  C49  1  0.46889700  0.35956900  0.12016500  1
  C  C50  1  0.52975400  0.32233000  0.17891500  1
  C  C51  1  0.52785700  0.24954900  0.20385800  1
  C  C52  1  0.52478400  0.35830100  0.87777500  1
  C  C53  1  0.46240400  0.32530700  0.81694000  1
  C  C54  1  0.46097800  0.25314500  0.78720300  1
  N  N1  1  0.50048600  0.68789300  0.49923300  1
  N  N2  1  0.50095900  0.31706400  0.49933500  1
  O  O1  1  0.40029600  0.56461300  0.48190500  1
  O  O2  1  0.60042400  0.56465100  0.51739300  1
  O  O3  1  0.40267100  0.44014100  0.53996000  1
  O  O4  1  0.59865600  0.44040300  0.45909600  1
  O  O5  1  0.51028100  0.56426000  0.32285400  1
  O  O6  1  0.49029000  0.56422600  0.67642600  1
  O  O7  1  0.47772300  0.44064700  0.32692300  1
  O  O8  1  0.52354300  0.44065900  0.67198700  1
