# generated using pymatgen
data_Fe2H15C40NO17
_symmetry_space_group_name_H-M   'P 1'
_cell_length_a   15.67026200
_cell_length_b   9.45312000
_cell_length_c   15.80157500
_cell_angle_alpha   87.53433600
_cell_angle_beta   85.67401200
_cell_angle_gamma   108.20312800
_symmetry_Int_Tables_number   1
_chemical_formula_structural   Fe2H15C40NO17
_chemical_formula_sum   'Fe2 H15 C40 N1 O17'
_cell_volume   2211.77115402
_cell_formula_units_Z   1
loop_
 _symmetry_equiv_pos_site_id
 _symmetry_equiv_pos_as_xyz
  1  'x, y, z'
loop_
 _atom_site_type_symbol
 _atom_site_label
 _atom_site_symmetry_multiplicity
 _atom_site_fract_x
 _atom_site_fract_y
 _atom_site_fract_z
 _atom_site_occupancy
  Fe  Fe1  1  0.51100700  0.98775700  0.15340200  1
  Fe  Fe2  1  0.51738100  0.00371900  0.77919900  1
  H  H1  1  0.94730300  0.08955800  0.83321700  1
  H  H2  1  0.19490200  0.00926200  0.83561500  1
  H  H3  1  0.04996600  0.01034000  0.86608700  1
  H  H4  1  0.80599200  0.09153300  0.79194700  1
  H  H5  1  0.22898600  0.95809000  0.14059200  1
  H  H6  1  0.07698300  0.95849000  0.17181700  1
  H  H7  1  0.93093600  0.97350200  0.20406600  1
  H  H8  1  0.79208600  0.99286900  0.16260500  1
  H  H9  1  0.51397100  0.53998300  0.75030600  1
  H  H10  1  0.51764300  0.73725800  0.50709800  1
  H  H11  1  0.49317300  0.70353500  0.38355500  1
  H  H12  1  0.49731700  0.12425000  0.42501300  1
  H  H13  1  0.34099300  0.37688200  0.21568300  1
  H  H14  1  0.36079000  0.22637300  0.15901100  1
  H  H15  1  0.36070600  0.39550100  0.10117100  1
  C  C1  1  0.89234700  0.05955800  0.88246000  1
  C  C2  1  0.28491900  0.99415100  0.92844300  1
  C  C3  1  0.20333100  0.99807900  0.90251700  1
  C  C4  1  0.13250900  0.99204300  0.96123200  1
  C  C5  1  0.05346900  0.00429800  0.93371200  1
  C  C6  1  0.98208800  0.00476000  0.99167600  1
  C  C7  1  0.81133500  0.06587900  0.85826300  1
  C  C8  1  0.73621800  0.02792500  0.91562200  1
  C  C9  1  0.90123700  0.02036100  0.96637100  1
  C  C10  1  0.82823600  0.00071000  0.02678200  1
  C  C11  1  0.74385100  0.99685400  0.00097900  1
  C  C12  1  0.29429900  0.97979300  0.01509500  1
  C  C13  1  0.22132800  0.96638400  0.07332200  1
  C  C14  1  0.14127100  0.97553900  0.04643900  1
  C  C15  1  0.07043300  0.97150000  0.10455400  1
  C  C16  1  0.99148300  0.98560600  0.07738700  1
  C  C17  1  0.92251400  0.98296200  0.13701000  1
  C  C18  1  0.84175100  0.99001500  0.11238900  1
  C  C19  1  0.66325400  0.96175900  0.06279100  1
  C  C20  1  0.48326900  0.69974100  0.21992000  1
  C  C21  1  0.38201600  0.99809300  0.04771000  1
  C  C22  1  0.48452300  0.18370000  0.26924500  1
  C  C23  1  0.52289400  0.79190800  0.66492700  1
  C  C24  1  0.64875200  0.00677300  0.88234500  1
  C  C25  1  0.51362900  0.26993300  0.70852800  1
  C  C26  1  0.35828000  0.00362900  0.86256600  1
  C  C27  1  0.51120000  0.52687900  0.68290300  1
  C  C28  1  0.51445500  0.64810500  0.63001400  1
  C  C29  1  0.51336500  0.63675200  0.54377700  1
  C  C30  1  0.51058100  0.39391400  0.64947600  1
  C  C31  1  0.50644600  0.38104500  0.56218000  1
  C  C32  1  0.50537400  0.50126900  0.50857900  1
  C  C33  1  0.49712900  0.48251500  0.42141600  1
  C  C34  1  0.49253800  0.59616600  0.36403500  1
  C  C35  1  0.48481100  0.57471500  0.27858400  1
  C  C36  1  0.49794200  0.23129900  0.44641500  1
  C  C37  1  0.49292600  0.34531500  0.39094300  1
  C  C38  1  0.48576100  0.32415200  0.30495600  1
  C  C39  1  0.48068500  0.43723600  0.24949700  1
  C  C40  1  0.37908600  0.34928700  0.16026700  1
  N  N1  1  0.50346400  0.25094700  0.52961400  1
  O  O1  1  0.60348600  0.03193900  0.05500500  1
  O  O2  1  0.46871500  0.67960200  0.13996700  1
  O  O3  1  0.65017500  0.85909300  0.12513800  1
  O  O4  1  0.50328000  0.83533400  0.24615500  1
  O  O5  1  0.39029400  0.90476100  0.10825500  1
  O  O6  1  0.44928000  0.12055600  0.02526700  1
  O  O7  1  0.54288000  0.18580700  0.20479300  1
  O  O8  1  0.41820700  0.06063600  0.29305800  1
  O  O9  1  0.47890800  0.79720800  0.73809800  1
  O  O10  1  0.57733100  0.91505000  0.62470800  1
  O  O11  1  0.64192700  0.08987800  0.81590000  1
  O  O12  1  0.58013600  0.88912900  0.90984500  1
  O  O13  1  0.34856100  0.03238000  0.78254300  1
  O  O14  1  0.52092100  0.14419800  0.68132500  1
  O  O15  1  0.43193000  0.97720000  0.88186200  1
  O  O16  1  0.50962100  0.28567400  0.79070300  1
  O  O17  1  0.47183000  0.41100600  0.16561800  1
