# generated using pymatgen
data_ZnH42C56NO8
_symmetry_space_group_name_H-M   'P 1'
_cell_length_a   27.41589000
_cell_length_b   27.45692900
_cell_length_c   18.28361700
_cell_angle_alpha   90.00000000
_cell_angle_beta   90.00000000
_cell_angle_gamma   90.00000000
_symmetry_Int_Tables_number   1
_chemical_formula_structural   ZnH42C56NO8
_chemical_formula_sum   'Zn4 H168 C224 N4 O32'
_cell_volume   13763.10505327
_cell_formula_units_Z   4
loop_
 _symmetry_equiv_pos_site_id
 _symmetry_equiv_pos_as_xyz
  1  'x, y, z'
loop_
 _atom_site_type_symbol
 _atom_site_label
 _atom_site_symmetry_multiplicity
 _atom_site_fract_x
 _atom_site_fract_y
 _atom_site_fract_z
 _atom_site_occupancy
  Zn  Zn1  1  0.00000000  0.50000000  0.58329600  1
  Zn  Zn2  1  0.00000000  0.50000000  0.41671000  1
  Zn  Zn3  1  0.50000000  0.00000000  0.58328800  1
  Zn  Zn4  1  0.50000000  0.00000000  0.41670200  1
  H  H1  1  0.04433800  0.56258800  0.70006700  1
  H  H2  1  0.04568200  0.43837700  0.29989900  1
  H  H3  1  0.95566200  0.43741200  0.70006700  1
  H  H4  1  0.95431800  0.56162300  0.29989900  1
  H  H5  1  0.54548600  0.06176600  0.70009300  1
  H  H6  1  0.54453200  0.93754900  0.29992500  1
  H  H7  1  0.45451400  0.93823400  0.70009400  1
  H  H8  1  0.45546800  0.06245100  0.29992500  1
  H  H9  1  0.04621500  0.56277700  0.83256600  1
  H  H10  1  0.04752900  0.43821300  0.16742000  1
  H  H11  1  0.95378500  0.43722300  0.83256600  1
  H  H12  1  0.95247100  0.56178700  0.16742000  1
  H  H13  1  0.54733800  0.06193300  0.83257500  1
  H  H14  1  0.54640600  0.93736400  0.16743000  1
  H  H15  1  0.45266100  0.93806700  0.83257500  1
  H  H16  1  0.45359400  0.06263600  0.16743000  1
  H  H17  1  0.07218200  0.64575100  0.41387800  1
  H  H18  1  0.85393700  0.42846000  0.58606000  1
  H  H19  1  0.92781700  0.35424900  0.41387800  1
  H  H20  1  0.14606200  0.57154000  0.58606000  1
  H  H21  1  0.92784700  0.64578900  0.58612500  1
  H  H22  1  0.14602800  0.42843800  0.41395400  1
  H  H23  1  0.07215300  0.35421100  0.58612500  1
  H  H24  1  0.85397200  0.57156200  0.41395400  1
  H  H25  1  0.57215600  0.14578400  0.41387300  1
  H  H26  1  0.35396700  0.92844000  0.58604500  1
  H  H27  1  0.42784400  0.85421600  0.41387300  1
  H  H28  1  0.64603200  0.07156000  0.58604500  1
  H  H29  1  0.42782000  0.14575600  0.58612000  1
  H  H30  1  0.64605700  0.92845800  0.41393800  1
  H  H31  1  0.57217900  0.85424400  0.58612000  1
  H  H32  1  0.35394200  0.07154200  0.41393800  1
  H  H33  1  0.13334100  0.70993800  0.41675400  1
  H  H34  1  0.78919000  0.36786300  0.58301700  1
  H  H35  1  0.86665900  0.29006200  0.41675400  1
  H  H36  1  0.21081000  0.63213700  0.58301700  1
  H  H37  1  0.86667800  0.70996800  0.58324800  1
  H  H38  1  0.21078500  0.36785300  0.41700000  1
  H  H39  1  0.13332100  0.29003200  0.58324800  1
  H  H40  1  0.78921500  0.63214800  0.41700000  1
  H  H41  1  0.63332200  0.20996500  0.41675000  1
  H  H42  1  0.28921200  0.86785300  0.58299900  1
  H  H43  1  0.36667700  0.79003600  0.41675000  1
  H  H44  1  0.71078800  0.13214700  0.58299900  1
  H  H45  1  0.36666000  0.20994100  0.58324400  1
  H  H46  1  0.71080700  0.86786300  0.41698200  1
  H  H47  1  0.63334000  0.79005900  0.58324400  1
  H  H48  1  0.28919300  0.13213700  0.41698200  1
  H  H49  1  0.00177500  0.42208200  0.93405900  1
  H  H50  1  0.00020300  0.57793600  0.06594500  1
  H  H51  1  0.99822500  0.57791800  0.93405900  1
  H  H52  1  0.99979600  0.42206400  0.06594500  1
  H  H53  1  0.50043100  0.92206400  0.93405300  1
  H  H54  1  0.50154700  0.07792300  0.06593800  1
  H  H55  1  0.49956800  0.07793600  0.93405300  1
  H  H56  1  0.49845300  0.92207700  0.06593800  1
  H  H57  1  0.15685200  0.76907200  0.63441600  1
  H  H58  1  0.20726200  0.77756200  0.69661500  1
  H  H59  1  0.22266500  0.70007900  0.78155500  1
  H  H60  1  0.17987400  0.65148500  0.87428700  1
  H  H61  1  0.09038700  0.64546300  0.87194700  1
  H  H62  1  0.04368600  0.68813900  0.77670200  1
  H  H63  1  0.08603600  0.73677400  0.68405000  1
  H  H64  1  0.72912100  0.34447200  0.36636200  1
  H  H65  1  0.71795000  0.29246500  0.30862000  1
  H  H66  1  0.79299900  0.27390700  0.21875600  1
  H  H67  1  0.83680300  0.31349600  0.11794000  1
  H  H68  1  0.84125100  0.40285900  0.11170100  1
  H  H69  1  0.80171000  0.45261400  0.20651100  1
  H  H70  1  0.75793500  0.41343900  0.30737500  1
  H  H71  1  0.84314800  0.23092700  0.63441600  1
  H  H72  1  0.79273700  0.22243800  0.69661500  1
  H  H73  1  0.77733500  0.29992200  0.78155400  1
  H  H74  1  0.82012600  0.34851600  0.87428700  1
  H  H75  1  0.90961400  0.35453600  0.87194700  1
  H  H76  1  0.95631400  0.31186000  0.77670200  1
  H  H77  1  0.91396300  0.26322600  0.68405000  1
  H  H78  1  0.27087900  0.65552800  0.36636200  1
  H  H79  1  0.28205000  0.70753500  0.30861900  1
  H  H80  1  0.20700100  0.72609300  0.21875600  1
  H  H81  1  0.16319700  0.68650400  0.11794000  1
  H  H82  1  0.15874800  0.59714100  0.11170100  1
  H  H83  1  0.19829000  0.54738600  0.20651100  1
  H  H84  1  0.24206500  0.58656100  0.30737500  1
  H  H85  1  0.84312900  0.76910400  0.36552900  1
  H  H86  1  0.79271600  0.77752600  0.30331200  1
  H  H87  1  0.77736500  0.69995600  0.21850400  1
  H  H88  1  0.82019100  0.65131900  0.12585600  1
  H  H89  1  0.90968400  0.64537200  0.12819700  1
  H  H90  1  0.95635400  0.68817100  0.22335000  1
  H  H91  1  0.91396900  0.73684600  0.31591900  1
  H  H92  1  0.27086400  0.34444900  0.63364300  1
  H  H93  1  0.28203200  0.29244100  0.69138500  1
  H  H94  1  0.20697200  0.27388600  0.78123700  1
  H  H95  1  0.16316700  0.31347600  0.88205100  1
  H  H96  1  0.15873000  0.40283900  0.88829900  1
  H  H97  1  0.19828600  0.45259300  0.79350100  1
  H  H98  1  0.24206100  0.41341700  0.69263900  1
  H  H99  1  0.15687100  0.23089600  0.36552900  1
  H  H100  1  0.20728300  0.22247400  0.30331200  1
  H  H101  1  0.22263500  0.30004400  0.21850300  1
  H  H102  1  0.17981000  0.34868100  0.12585600  1
  H  H103  1  0.09031600  0.35462800  0.12819600  1
  H  H104  1  0.04364600  0.31183000  0.22335000  1
  H  H105  1  0.08603100  0.26315500  0.31591900  1
  H  H106  1  0.72913600  0.65555100  0.63364300  1
  H  H107  1  0.71796800  0.70755900  0.69138500  1
  H  H108  1  0.79302800  0.72611500  0.78123700  1
  H  H109  1  0.83683300  0.68652400  0.88205100  1
  H  H110  1  0.84127000  0.59716100  0.88829900  1
  H  H111  1  0.80171400  0.54740700  0.79350100  1
  H  H112  1  0.75793900  0.58658300  0.69263900  1
  H  H113  1  0.65686400  0.26909800  0.63446200  1
  H  H114  1  0.70727800  0.27753300  0.69667300  1
  H  H115  1  0.72264300  0.19997800  0.78150300  1
  H  H116  1  0.67982700  0.15134700  0.87416700  1
  H  H117  1  0.59033500  0.14538400  0.87183200  1
  H  H118  1  0.54365500  0.18816100  0.77666600  1
  H  H119  1  0.58603100  0.23683100  0.68408100  1
  H  H120  1  0.22913400  0.84444900  0.36635600  1
  H  H121  1  0.21796700  0.79244100  0.30861400  1
  H  H122  1  0.29302600  0.77388700  0.21876000  1
  H  H123  1  0.33683000  0.81347800  0.11794600  1
  H  H124  1  0.34126700  0.90284100  0.11169900  1
  H  H125  1  0.30171100  0.95259500  0.20649900  1
  H  H126  1  0.25793700  0.91341800  0.30736100  1
  H  H127  1  0.34313600  0.73090300  0.63446200  1
  H  H128  1  0.29272200  0.72246700  0.69667300  1
  H  H129  1  0.27735700  0.80002200  0.78150300  1
  H  H130  1  0.32017300  0.84865300  0.87416700  1
  H  H131  1  0.40966500  0.85461600  0.87183200  1
  H  H132  1  0.45634400  0.81183900  0.77666600  1
  H  H133  1  0.41396900  0.76317000  0.68408100  1
  H  H134  1  0.77086600  0.15555100  0.36635600  1
  H  H135  1  0.78203300  0.20755900  0.30861400  1
  H  H136  1  0.70697300  0.22611400  0.21876000  1
  H  H137  1  0.66316900  0.18652300  0.11794600  1
  H  H138  1  0.65873300  0.09715900  0.11169900  1
  H  H139  1  0.69828800  0.04740600  0.20649800  1
  H  H140  1  0.74206300  0.08658300  0.30736100  1
  H  H141  1  0.34314100  0.26907900  0.36557500  1
  H  H142  1  0.29273200  0.27755600  0.30337100  1
  H  H143  1  0.27734200  0.20005800  0.21845100  1
  H  H144  1  0.32014300  0.15145900  0.12573500  1
  H  H145  1  0.40963200  0.14545300  0.12807900  1
  H  H146  1  0.45632400  0.18815000  0.22331300  1
  H  H147  1  0.41396300  0.23678900  0.31595000  1
  H  H148  1  0.77087700  0.84447200  0.63363700  1
  H  H149  1  0.78204900  0.79246500  0.69137900  1
  H  H150  1  0.70699900  0.77390600  0.78124100  1
  H  H151  1  0.66319400  0.81349400  0.88205700  1
  H  H152  1  0.65874500  0.90285700  0.88829800  1
  H  H153  1  0.69828700  0.95261300  0.79348900  1
  H  H154  1  0.74206300  0.91343900  0.69262500  1
  H  H155  1  0.65685800  0.73092100  0.36557500  1
  H  H156  1  0.70726800  0.72244500  0.30337100  1
  H  H157  1  0.72265700  0.79994300  0.21845100  1
  H  H158  1  0.67985600  0.84854200  0.12573500  1
  H  H159  1  0.59036800  0.85454700  0.12808000  1
  H  H160  1  0.54367600  0.81185000  0.22331300  1
  H  H161  1  0.58603700  0.76321100  0.31595000  1
  H  H162  1  0.22912200  0.15552800  0.63363700  1
  H  H163  1  0.21795100  0.20753500  0.69137900  1
  H  H164  1  0.29300100  0.22609400  0.78124100  1
  H  H165  1  0.33680500  0.18650600  0.88205700  1
  H  H166  1  0.34125400  0.09714300  0.88829800  1
  H  H167  1  0.30171200  0.04738700  0.79348900  1
  H  H168  1  0.25793600  0.08656100  0.69262500  1
  C  C1  1  0.06736000  0.43272000  0.50005200  1
  C  C2  1  0.93263900  0.56728000  0.50005200  1
  C  C3  1  0.93260500  0.43275400  0.49995600  1
  C  C4  1  0.06739500  0.56724600  0.49995600  1
  C  C5  1  0.56739000  0.93275000  0.50004200  1
  C  C6  1  0.43261000  0.06725000  0.50004200  1
  C  C7  1  0.43263500  0.93272500  0.49994700  1
  C  C8  1  0.56736500  0.06727500  0.49994700  1
  C  C9  1  0.02458400  0.53476000  0.72942000  1
  C  C10  1  0.02532200  0.46577300  0.27057100  1
  C  C11  1  0.97541600  0.46524000  0.72942000  1
  C  C12  1  0.97467800  0.53422700  0.27057100  1
  C  C13  1  0.52521400  0.03430600  0.72942500  1
  C  C14  1  0.52469000  0.96531500  0.27057600  1
  C  C15  1  0.47478600  0.96569400  0.72942500  1
  C  C16  1  0.47530900  0.03468500  0.27057600  1
  C  C17  1  0.02511400  0.53518900  0.80478400  1
  C  C18  1  0.02585100  0.46535000  0.19520700  1
  C  C19  1  0.97488600  0.46481100  0.80478400  1
  C  C20  1  0.97414900  0.53465000  0.19520700  1
  C  C21  1  0.52574400  0.03473000  0.80478900  1
  C  C22  1  0.52522100  0.96488800  0.19521200  1
  C  C23  1  0.47425600  0.96527000  0.80478900  1
  C  C24  1  0.47477900  0.03511200  0.19521200  1
  C  C25  1  0.10253200  0.64290500  0.45137100  1
  C  C26  1  0.85656900  0.39817000  0.54850500  1
  C  C27  1  0.89746800  0.35709500  0.45137100  1
  C  C28  1  0.14343000  0.60183000  0.54850500  1
  C  C29  1  0.89749700  0.64293900  0.54863400  1
  C  C30  1  0.14339800  0.39814500  0.45150600  1
  C  C31  1  0.10250300  0.35706100  0.54863400  1
  C  C32  1  0.85660100  0.60185500  0.45150600  1
  C  C33  1  0.60250600  0.14293500  0.45136400  1
  C  C34  1  0.35659700  0.89814800  0.54849300  1
  C  C35  1  0.39749400  0.85706500  0.45136400  1
  C  C36  1  0.64340200  0.10185200  0.54849200  1
  C  C37  1  0.39747100  0.14291000  0.54862700  1
  C  C38  1  0.64342600  0.89816700  0.45149400  1
  C  C39  1  0.60252900  0.85709000  0.54862700  1
  C  C40  1  0.35657400  0.10183300  0.45149400  1
  C  C41  1  0.13744000  0.67897200  0.45270400  1
  C  C42  1  0.82016900  0.36359400  0.54705300  1
  C  C43  1  0.86255900  0.32102800  0.45270400  1
  C  C44  1  0.17983100  0.63640600  0.54705300  1
  C  C45  1  0.86258300  0.67900000  0.54730100  1
  C  C46  1  0.17980500  0.36357600  0.45295900  1
  C  C47  1  0.13741700  0.32100000  0.54730100  1
  C  C48  1  0.82019500  0.63642400  0.45295900  1
  C  C49  1  0.63741900  0.17899700  0.45269700  1
  C  C50  1  0.32019200  0.86357700  0.54704000  1
  C  C51  1  0.36258100  0.82100300  0.45269700  1
  C  C52  1  0.67980800  0.13642300  0.54703900  1
  C  C53  1  0.36256100  0.17897500  0.54729400  1
  C  C54  1  0.67982800  0.86359200  0.45294500  1
  C  C55  1  0.63743900  0.82102500  0.54729400  1
  C  C56  1  0.32017200  0.13640800  0.45294500  1
  C  C57  1  0.17680800  0.67572900  0.49986900  1
  C  C58  1  0.82319200  0.32427100  0.49986900  1
  C  C59  1  0.82321400  0.67574900  0.50013800  1
  C  C60  1  0.17678600  0.32425100  0.50013800  1
  C  C61  1  0.67678700  0.17574800  0.49986000  1
  C  C62  1  0.32321200  0.82425200  0.49986000  1
  C  C63  1  0.32319400  0.17573000  0.50012900  1
  C  C64  1  0.67680600  0.82427000  0.50012900  1
  C  C65  1  0.00047800  0.45660700  0.96231400  1
  C  C66  1  0.99960500  0.54339300  0.03768500  1
  C  C67  1  0.99952100  0.54339300  0.96231400  1
  C  C68  1  0.00039500  0.45660700  0.03768500  1
  C  C69  1  0.49973200  0.95660600  0.96231300  1
  C  C70  1  0.50035200  0.04339400  0.03768300  1
  C  C71  1  0.50026800  0.04339400  0.96231300  1
  C  C72  1  0.49964800  0.95660600  0.03768300  1
  C  C73  1  0.00000000  0.50000000  0.84345800  1
  C  C74  1  0.00000000  0.50000000  0.15653500  1
  C  C75  1  0.50000000  0.00000000  0.84346200  1
  C  C76  1  0.50000000  0.00000000  0.15653800  1
  C  C77  1  0.10510000  0.60466300  0.49997100  1
  C  C78  1  0.89489900  0.39533700  0.49997100  1
  C  C79  1  0.89493400  0.60469600  0.50003500  1
  C  C80  1  0.10506600  0.39530400  0.50003500  1
  C  C81  1  0.60507000  0.10469200  0.49996300  1
  C  C82  1  0.39492900  0.89530800  0.49996300  1
  C  C83  1  0.39490400  0.10466700  0.50002700  1
  C  C84  1  0.60509600  0.89533300  0.50002700  1
  C  C85  1  0.23148600  0.73286000  0.56541200  1
  C  C86  1  0.76650400  0.26907000  0.43465400  1
  C  C87  1  0.76851400  0.26714000  0.56541200  1
  C  C88  1  0.23349600  0.73093000  0.43465400  1
  C  C89  1  0.76853100  0.73287200  0.43458800  1
  C  C90  1  0.23347800  0.26905100  0.56534700  1
  C  C91  1  0.23146900  0.26712800  0.43458800  1
  C  C92  1  0.76652100  0.73094900  0.56534700  1
  C  C93  1  0.73146900  0.23287200  0.56541000  1
  C  C94  1  0.26652100  0.76905100  0.43465100  1
  C  C95  1  0.26853100  0.76712800  0.56541000  1
  C  C96  1  0.73347900  0.23094900  0.43465100  1
  C  C97  1  0.26851400  0.23286100  0.43458600  1
  C  C98  1  0.73349500  0.76907000  0.56534500  1
  C  C99  1  0.73148600  0.76714000  0.43458600  1
  C  C100  1  0.26650400  0.23093000  0.56534400  1
  C  C101  1  0.78527100  0.28624300  0.50000500  1
  C  C102  1  0.21472900  0.71375700  0.50000500  1
  C  C103  1  0.21471000  0.28622700  0.49999800  1
  C  C104  1  0.78529000  0.71377400  0.49999800  1
  C  C105  1  0.28528900  0.78622700  0.50000100  1
  C  C106  1  0.71471100  0.21377300  0.50000000  1
  C  C107  1  0.71472800  0.78624300  0.49999300  1
  C  C108  1  0.28527200  0.21375700  0.49999300  1
  C  C109  1  0.00000000  0.50000000  0.07606100  1
  C  C110  1  0.00000000  0.50000000  0.92393500  1
  C  C111  1  0.50000000  0.00000000  0.07606200  1
  C  C112  1  0.50000000  0.00000000  0.92393600  1
  C  C113  1  0.18347500  0.75016500  0.67011500  1
  C  C114  1  0.15719300  0.72180700  0.72716800  1
  C  C115  1  0.18333000  0.69766300  0.78047400  1
  C  C116  1  0.15933800  0.67034800  0.83252800  1
  C  C117  1  0.10918300  0.66695900  0.83121500  1
  C  C118  1  0.08300500  0.69094400  0.77787800  1
  C  C119  1  0.10693200  0.71839800  0.72590200  1
  C  C120  1  0.74654300  0.31673700  0.33090600  1
  C  C121  1  0.77253400  0.34100700  0.26946800  1
  C  C122  1  0.79480800  0.31317100  0.21626600  1
  C  C123  1  0.81940800  0.33537400  0.15959300  1
  C  C124  1  0.82188900  0.38545600  0.15607800  1
  C  C125  1  0.79970100  0.41333900  0.20921200  1
  C  C126  1  0.77501600  0.39119100  0.26587300  1
  C  C127  1  0.81652500  0.24983500  0.67011500  1
  C  C128  1  0.84280700  0.27819300  0.72716800  1
  C  C129  1  0.81667000  0.30233700  0.78047400  1
  C  C130  1  0.84066200  0.32965200  0.83252800  1
  C  C131  1  0.89081700  0.33304100  0.83121500  1
  C  C132  1  0.91699500  0.30905600  0.77787800  1
  C  C133  1  0.89306800  0.28160100  0.72590200  1
  C  C134  1  0.25345600  0.68326300  0.33090600  1
  C  C135  1  0.22746600  0.65899300  0.26946800  1
  C  C136  1  0.20519100  0.68682900  0.21626600  1
  C  C137  1  0.18059100  0.66462600  0.15959300  1
  C  C138  1  0.17811100  0.61454400  0.15607800  1
  C  C139  1  0.20029900  0.58666100  0.20921200  1
  C  C140  1  0.22498400  0.60880900  0.26587300  1
  C  C141  1  0.81651900  0.75016000  0.32985100  1
  C  C142  1  0.84282300  0.72178400  0.27283900  1
  C  C143  1  0.81670200  0.69757400  0.21958100  1
  C  C144  1  0.84071400  0.67023500  0.16757500  1
  C  C145  1  0.89087200  0.66688800  0.16888800  1
  C  C146  1  0.91703200  0.69094200  0.22217500  1
  C  C147  1  0.89308600  0.71841900  0.27410300  1
  C  C148  1  0.25344000  0.31671400  0.66909700  1
  C  C149  1  0.22744900  0.34098500  0.73053500  1
  C  C150  1  0.20516800  0.31314900  0.78373200  1
  C  C151  1  0.18056700  0.33535400  0.84040300  1
  C  C152  1  0.17809300  0.38543500  0.84392300  1
  C  C153  1  0.20028900  0.41331800  0.79079600  1
  C  C154  1  0.22497500  0.39116900  0.73413500  1
  C  C155  1  0.18348000  0.24984100  0.32985100  1
  C  C156  1  0.15717700  0.27821700  0.27283900  1
  C  C157  1  0.18329800  0.30242600  0.21958100  1
  C  C158  1  0.15928700  0.32976500  0.16757500  1
  C  C159  1  0.10912900  0.33311200  0.16888800  1
  C  C160  1  0.08296800  0.30905900  0.22217400  1
  C  C161  1  0.10691400  0.28158200  0.27410300  1
  C  C162  1  0.74656000  0.68328600  0.66909700  1
  C  C163  1  0.77255000  0.65901500  0.73053500  1
  C  C164  1  0.79483200  0.68685100  0.78373200  1
  C  C165  1  0.81943300  0.66464700  0.84040300  1
  C  C166  1  0.82190700  0.61456500  0.84392300  1
  C  C167  1  0.79971100  0.58668200  0.79079600  1
  C  C168  1  0.77502500  0.60883100  0.73413500  1
  C  C169  1  0.68347800  0.25016100  0.67014200  1
  C  C170  1  0.65718000  0.22178700  0.72716300  1
  C  C171  1  0.68330600  0.19758900  0.78042700  1
  C  C172  1  0.65930000  0.17025300  0.83244300  1
  C  C173  1  0.60914300  0.16689700  0.83113300  1
  C  C174  1  0.58297700  0.19093900  0.77783900  1
  C  C175  1  0.60691700  0.21841300  0.72590200  1
  C  C176  1  0.24655900  0.81671500  0.33090100  1
  C  C177  1  0.27254800  0.84098600  0.26946300  1
  C  C178  1  0.29483000  0.81315100  0.21626600  1
  C  C179  1  0.31943000  0.83535500  0.15959500  1
  C  C180  1  0.32190400  0.88543700  0.15607600  1
  C  C181  1  0.29970900  0.91331900  0.20920300  1
  C  C182  1  0.27502300  0.89117000  0.26586400  1
  C  C183  1  0.31652200  0.74984000  0.67014200  1
  C  C184  1  0.34281900  0.77821300  0.72716300  1
  C  C185  1  0.31669400  0.80241100  0.78042700  1
  C  C186  1  0.34070000  0.82974700  0.83244300  1
  C  C187  1  0.39085700  0.83310300  0.83113300  1
  C  C188  1  0.41702300  0.80906200  0.77783900  1
  C  C189  1  0.39308200  0.78158700  0.72590200  1
  C  C190  1  0.75344100  0.18328600  0.33090100  1
  C  C191  1  0.72745100  0.15901500  0.26946300  1
  C  C192  1  0.70517000  0.18685000  0.21626600  1
  C  C193  1  0.68056900  0.16464500  0.15959500  1
  C  C194  1  0.67809500  0.11456300  0.15607500  1
  C  C195  1  0.70029100  0.08668100  0.20920300  1
  C  C196  1  0.72497600  0.10883000  0.26586400  1
  C  C197  1  0.31652200  0.25016400  0.32987900  1
  C  C198  1  0.34281000  0.22180400  0.27283400  1
  C  C199  1  0.31667800  0.19764900  0.21953400  1
  C  C200  1  0.34067500  0.17033100  0.16748800  1
  C  C201  1  0.39083100  0.16695100  0.16880400  1
  C  C202  1  0.41700300  0.19094800  0.22213500  1
  C  C203  1  0.39307100  0.21840400  0.27410200  1
  C  C204  1  0.75345500  0.81673700  0.66909200  1
  C  C205  1  0.72746400  0.84100600  0.73053100  1
  C  C206  1  0.70518900  0.81317000  0.78373200  1
  C  C207  1  0.68058900  0.83537200  0.84040400  1
  C  C208  1  0.67810800  0.88545400  0.84392000  1
  C  C209  1  0.70029600  0.91333700  0.79078700  1
  C  C210  1  0.72498200  0.89119000  0.73412600  1
  C  C211  1  0.68347800  0.74983600  0.32987900  1
  C  C212  1  0.65718900  0.77819600  0.27283400  1
  C  C213  1  0.68332200  0.80235100  0.21953400  1
  C  C214  1  0.65932400  0.82966900  0.16748900  1
  C  C215  1  0.60916900  0.83304900  0.16880400  1
  C  C216  1  0.58299600  0.80905200  0.22213500  1
  C  C217  1  0.60692800  0.78159500  0.27410200  1
  C  C218  1  0.24654400  0.18326300  0.66909200  1
  C  C219  1  0.27253500  0.15899400  0.73053000  1
  C  C220  1  0.29481000  0.18683000  0.78373200  1
  C  C221  1  0.31941100  0.16462700  0.84040400  1
  C  C222  1  0.32189100  0.11454600  0.84392000  1
  C  C223  1  0.29970300  0.08666200  0.79078700  1
  C  C224  1  0.27501700  0.10881000  0.73412600  1
  N  N1  1  0.00000000  0.50000000  0.69274500  1
  N  N2  1  0.00000000  0.50000000  0.30725800  1
  N  N3  1  0.50000000  0.00000000  0.69274000  1
  N  N4  1  0.50000000  0.00000000  0.30725300  1
  O  O1  1  0.05065200  0.44797800  0.56323700  1
  O  O2  1  0.94794400  0.55060500  0.43688600  1
  O  O3  1  0.94934800  0.55202200  0.56323700  1
  O  O4  1  0.05205600  0.44939500  0.43688600  1
  O  O5  1  0.94932100  0.44800400  0.43677000  1
  O  O6  1  0.05208400  0.55057700  0.56312300  1
  O  O7  1  0.05067900  0.55199600  0.43677000  1
  O  O8  1  0.94791600  0.44942300  0.56312300  1
  O  O9  1  0.55067500  0.94800100  0.56322800  1
  O  O10  1  0.44792000  0.05058100  0.43687600  1
  O  O11  1  0.44932400  0.05199900  0.56322800  1
  O  O12  1  0.55208000  0.94941900  0.43687600  1
  O  O13  1  0.44934400  0.94798100  0.43676100  1
  O  O14  1  0.55206000  0.05060100  0.56311200  1
  O  O15  1  0.55065500  0.05201900  0.43676100  1
  O  O16  1  0.44794000  0.94939900  0.56311200  1
  O  O17  1  0.21053800  0.71864700  0.62843300  1
  O  O18  1  0.77955300  0.29075600  0.37161300  1
  O  O19  1  0.78946200  0.28135300  0.62843300  1
  O  O20  1  0.22044700  0.70924400  0.37161300  1
  O  O21  1  0.78947500  0.71864800  0.37156900  1
  O  O22  1  0.22043000  0.29073500  0.62838900  1
  O  O23  1  0.21052500  0.28135200  0.37156900  1
  O  O24  1  0.77957000  0.70926600  0.62838900  1
  O  O25  1  0.71052500  0.21864800  0.62842900  1
  O  O26  1  0.27956900  0.79073500  0.37160900  1
  O  O27  1  0.28947400  0.78135200  0.62842900  1
  O  O28  1  0.72043100  0.20926500  0.37160900  1
  O  O29  1  0.28946200  0.21864700  0.37156500  1
  O  O30  1  0.72044600  0.79075500  0.62838500  1
  O  O31  1  0.71053700  0.78135400  0.37156500  1
  O  O32  1  0.27955400  0.20924500  0.62838500  1
