# generated using pymatgen
data_V2H14(C3O2)5
_symmetry_space_group_name_H-M   'P 1'
_cell_length_a   6.71731600
_cell_length_b   13.72405400
_cell_length_c   16.07413100
_cell_angle_alpha   90.55284900
_cell_angle_beta   89.94777900
_cell_angle_gamma   90.00744500
_symmetry_Int_Tables_number   1
_chemical_formula_structural   V2H14(C3O2)5
_chemical_formula_sum   'V4 H28 C30 O20'
_cell_volume   1481.78535977
_cell_formula_units_Z   2
loop_
 _symmetry_equiv_pos_site_id
 _symmetry_equiv_pos_as_xyz
  1  'x, y, z'
loop_
 _atom_site_type_symbol
 _atom_site_label
 _atom_site_symmetry_multiplicity
 _atom_site_fract_x
 _atom_site_fract_y
 _atom_site_fract_z
 _atom_site_occupancy
  V  V1  1  0.93836000  0.49107800  0.49863500  1
  V  V2  1  0.43840600  0.51598900  0.49900400  1
  V  V3  1  0.33777200  0.00451100  0.99414800  1
  V  V4  1  0.83794000  0.98259300  0.99342000  1
  H  H1  1  0.84083800  0.73697200  0.67415200  1
  H  H2  1  0.87565800  0.62718000  0.73428900  1
  H  H3  1  0.92764300  0.71246300  0.85501200  1
  H  H4  1  0.81344500  0.81311200  0.80062200  1
  H  H5  1  0.13089200  0.80948700  0.59903500  1
  H  H6  1  0.03356300  0.90856300  0.70639500  1
  H  H7  1  0.43118000  0.64210700  0.73201400  1
  H  H8  1  0.21734300  0.59684600  0.78866700  1
  H  H9  1  0.29453000  0.71585300  0.88334500  1
  H  H10  1  0.44712900  0.78179400  0.80978400  1
  H  H11  1  0.37462700  0.78895000  0.64383500  1
  H  H12  1  0.29750100  0.91766300  0.72871500  1
  H  H13  1  0.83571000  0.69022000  0.31370900  1
  H  H14  1  0.28342200  0.72000600  0.29006700  1
  H  H15  1  0.81674800  0.82336500  0.20503900  1
  H  H16  1  0.25089300  0.76518900  0.17489200  1
  H  H17  1  0.91884800  0.14262100  0.77885100  1
  H  H18  1  0.49994900  0.22332400  0.80893400  1
  H  H19  1  0.94181300  0.27676900  0.67292500  1
  H  H20  1  0.49595100  0.29922600  0.70689800  1
  H  H21  1  0.47027500  0.20017700  0.20539800  1
  H  H22  1  0.94355200  0.28713400  0.30579500  1
  H  H23  1  0.49401400  0.30889900  0.28263400  1
  H  H24  1  0.18879500  0.23222000  0.24788600  1
  H  H25  1  0.06132100  0.13417600  0.30080300  1
  H  H26  1  0.24628700  0.10609700  0.22261100  1
  H  H27  1  0.93313500  0.08021400  0.15775300  1
  H  H28  1  0.02031400  0.19605900  0.11866100  1
  C  C1  1  0.65564600  0.38546900  0.61454900  1
  C  C2  1  0.65659200  0.38777300  0.37924400  1
  C  C3  1  0.15707000  0.62110000  0.38281600  1
  C  C4  1  0.15611800  0.61966100  0.61816400  1
  C  C5  1  0.93581300  0.70065600  0.72096600  1
  C  C6  1  0.93976200  0.76108600  0.80053300  1
  C  C7  1  0.21245700  0.79101800  0.65672700  1
  C  C8  1  0.28239500  0.66109500  0.75735000  1
  C  C9  1  0.14600700  0.69223500  0.68757600  1
  C  C10  1  0.13499900  0.81626200  0.80507200  1
  C  C11  1  0.16921200  0.86714700  0.72320300  1
  C  C12  1  0.30248000  0.74449700  0.81915000  1
  C  C13  1  0.97071600  0.71727600  0.28504500  1
  C  C14  1  0.14669200  0.69011300  0.31462900  1
  C  C15  1  0.95684500  0.78676100  0.21665100  1
  C  C16  1  0.11209300  0.80412200  0.16753500  1
  C  C17  1  0.79000700  0.18832900  0.76808000  1
  C  C18  1  0.62872000  0.17684300  0.81523600  1
  C  C19  1  0.80074600  0.26329900  0.70353400  1
  C  C20  1  0.64068500  0.31317200  0.68020100  1
  C  C21  1  0.78341500  0.20408500  0.20763700  1
  C  C22  1  0.60759400  0.17541600  0.17766900  1
  C  C23  1  0.79887900  0.27316000  0.27839000  1
  C  C24  1  0.64006400  0.31944800  0.30912400  1
  C  C25  1  0.59541000  0.10426900  0.10941200  1
  C  C26  1  0.62735900  0.10323300  0.88010300  1
  C  C27  1  0.13016900  0.88895600  0.87449100  1
  C  C28  1  0.09450500  0.87601700  0.10183300  1
  C  C29  1  0.96716100  0.15698000  0.17451900  1
  C  C30  1  0.12672800  0.15771400  0.24089600  1
  O  O1  1  0.49043100  0.42325200  0.40739700  1
  O  O2  1  0.83044800  0.40082800  0.58232800  1
  O  O3  1  0.98940200  0.58333800  0.59078800  1
  O  O4  1  0.83152400  0.40281800  0.41173500  1
  O  O5  1  0.99022800  0.58550500  0.40977200  1
  O  O6  1  0.48941800  0.42219200  0.58834900  1
  O  O7  1  0.66444800  0.56450800  0.49972000  1
  O  O8  1  0.33151400  0.60559900  0.41475700  1
  O  O9  1  0.33040600  0.60470000  0.58527600  1
  O  O10  1  0.16426900  0.44257100  0.49790000  1
  O  O11  1  0.79599900  0.05361500  0.88907100  1
  O  O12  1  0.42730300  0.05493400  0.10332400  1
  O  O13  1  0.24874500  0.88544900  0.05110500  1
  O  O14  1  0.47933800  0.11004100  0.93539900  1
  O  O15  1  0.29676100  0.94018500  0.88550700  1
  O  O16  1  0.74925100  0.09820300  0.05779600  1
  O  O17  1  0.61268100  0.92922000  0.99088600  1
  O  O18  1  0.97931700  0.88064700  0.92842600  1
  O  O19  1  0.92770200  0.92641400  0.09958800  1
  O  O20  1  0.11278200  0.05814100  0.99439200  1
