# generated using pymatgen
data_Zn2H21C46N9O14
_symmetry_space_group_name_H-M   'P 1'
_cell_length_a   9.23446400
_cell_length_b   13.50511700
_cell_length_c   16.10538400
_cell_angle_alpha   90.04852300
_cell_angle_beta   94.79967400
_cell_angle_gamma   90.59428400
_symmetry_Int_Tables_number   1
_chemical_formula_structural   Zn2H21C46N9O14
_chemical_formula_sum   'Zn2 H21 C46 N9 O14'
_cell_volume   2001.38905932
_cell_formula_units_Z   1
loop_
 _symmetry_equiv_pos_site_id
 _symmetry_equiv_pos_as_xyz
  1  'x, y, z'
loop_
 _atom_site_type_symbol
 _atom_site_label
 _atom_site_symmetry_multiplicity
 _atom_site_fract_x
 _atom_site_fract_y
 _atom_site_fract_z
 _atom_site_occupancy
  Zn  Zn1  1  0.16303000  0.49097100  0.51019600  1
  Zn  Zn2  1  0.84057400  0.50824100  0.49662100  1
  H  H1  1  0.80362100  0.29771800  0.98054200  1
  H  H2  1  0.17198300  0.69770800  0.02396000  1
  H  H3  1  0.05299100  0.00877600  0.72373700  1
  H  H4  1  0.87743700  0.03475300  0.04741000  1
  H  H5  1  0.11026200  0.96717200  0.95981000  1
  H  H6  1  0.12073500  0.60683200  0.90687700  1
  H  H7  1  0.99991300  0.83139900  0.66774000  1
  H  H8  1  0.05892700  0.16945700  0.66780400  1
  H  H9  1  0.87278800  0.44588100  0.73129400  1
  H  H10  1  0.81838600  0.38278100  0.86585100  1
  H  H11  1  0.00357700  0.17241300  0.33860300  1
  H  H12  1  0.91616500  0.81809400  0.33499500  1
  H  H13  1  0.14885200  0.55940400  0.27793100  1
  H  H14  1  0.19405300  0.62326000  0.14279100  1
  H  H15  1  0.08534600  0.54058900  0.76560900  1
  H  H16  1  0.93950200  0.46269000  0.24163200  1
  H  H17  1  0.62603500  0.65909300  0.52644500  1
  H  H18  1  0.36469700  0.64389300  0.53894600  1
  H  H19  1  0.35894200  0.28667800  0.41572600  1
  H  H20  1  0.66396100  0.27910000  0.51004900  1
  H  H21  1  0.61893600  0.30621000  0.39603200  1
  C  C1  1  0.96800300  0.17988300  0.78672000  1
  C  C2  1  0.90487000  0.23903600  0.84134700  1
  C  C3  1  0.89818800  0.18717800  0.91402500  1
  C  C4  1  0.99091400  0.08995400  0.82576400  1
  C  C5  1  0.85578500  0.22672100  0.98402800  1
  C  C6  1  0.89954700  0.18938800  0.06767200  1
  C  C7  1  0.92753000  0.24675900  0.13878400  1
  C  C8  1  0.95143100  0.18350700  0.20459100  1
  C  C9  1  0.94023200  0.08777000  0.17110600  1
  C  C10  1  0.95499700  0.99352400  0.21682300  1
  C  C11  1  0.00022600  0.91052600  0.18073600  1
  C  C12  1  0.02259700  0.81941800  0.21922100  1
  C  C13  1  0.08935500  0.76192500  0.16475000  1
  C  C14  1  0.09473700  0.81386800  0.09208700  1
  C  C15  1  0.13411700  0.77287600  0.02162100  1
  C  C16  1  0.10307300  0.81289700  0.93759700  1
  C  C17  1  0.08330800  0.75645200  0.86598500  1
  C  C18  1  0.05210900  0.81885100  0.80074000  1
  C  C19  1  0.05541800  0.91406200  0.83478300  1
  C  C20  1  0.03628700  0.00791400  0.78947800  1
  C  C21  1  0.09338400  0.65610800  0.85532700  1
  C  C22  1  0.07149600  0.61882800  0.77549300  1
  C  C23  1  0.03355300  0.67952300  0.70769000  1
  C  C24  1  0.02462900  0.78220400  0.71978800  1
  C  C25  1  0.00634900  0.21519800  0.71116100  1
  C  C26  1  0.97520400  0.31338700  0.69338300  1
  C  C27  1  0.90238100  0.37078900  0.74770500  1
  C  C28  1  0.86949500  0.33509700  0.82341400  1
  C  C29  1  0.93054700  0.34823100  0.15003700  1
  C  C30  1  0.94439700  0.38412900  0.23063800  1
  C  C31  1  0.97189000  0.32201700  0.29837200  1
  C  C32  1  0.97943400  0.21994000  0.28572100  1
  C  C33  1  0.98199300  0.77999300  0.29329700  1
  C  C34  1  0.02741200  0.68519500  0.31303400  1
  C  C35  1  0.10925500  0.63210100  0.26045600  1
  C  C36  1  0.13555200  0.66812500  0.18390700  1
  C  C37  1  0.01864000  0.62984500  0.62537900  1
  C  C38  1  0.99569100  0.35969600  0.61427500  1
  C  C39  1  0.98526100  0.36996200  0.38122500  1
  C  C40  1  0.00762700  0.63872600  0.39208700  1
  C  C41  1  0.57449300  0.42449400  0.48122000  1
  C  C42  1  0.57276000  0.58817500  0.51504000  1
  C  C43  1  0.42389600  0.57841400  0.52462300  1
  C  C44  1  0.43506600  0.41510800  0.49154300  1
  C  C45  1  0.42757300  0.30784500  0.47288200  1
  C  C46  1  0.59430200  0.31821200  0.46146900  1
  N  N1  1  0.95152300  0.09529800  0.90503300  1
  N  N2  1  0.90670100  0.09302400  0.08793400  1
  N  N3  1  0.04117000  0.90577000  0.10156800  1
  N  N4  1  0.08802600  0.90897500  0.91819500  1
  N  N5  1  0.64975800  0.50976600  0.49211600  1
  N  N6  1  0.35377300  0.48973400  0.51471200  1
  N  N7  1  0.92989900  0.41596100  0.08214900  1
  N  N8  1  0.93419800  0.99442200  0.30345800  1
  N  N9  1  0.40048100  0.25040800  0.54617300  1
  O  O1  1  0.88864000  0.60403700  0.59160400  1
  O  O2  1  0.13727500  0.59197300  0.59984800  1
  O  O3  1  0.12682700  0.38653100  0.59579300  1
  O  O4  1  0.87736100  0.39877800  0.57979900  1
  O  O5  1  0.11524300  0.39529500  0.41519300  1
  O  O6  1  0.86613100  0.40733000  0.40686500  1
  O  O7  1  0.87668400  0.61258500  0.41099100  1
  O  O8  1  0.12614700  0.60030600  0.42691300  1
  O  O9  1  0.01861100  0.40176900  0.02476100  1
  O  O10  1  0.87534900  0.50350200  0.09009100  1
  O  O11  1  0.81704000  0.03336800  0.32830600  1
  O  O12  1  0.04449500  0.97848400  0.35730700  1
  O  O13  1  0.45966900  0.27706900  0.61895800  1
  O  O14  1  0.30761800  0.17722700  0.54002400  1
