# generated using pymatgen
data_ZnH8C15(NO2)2
_symmetry_space_group_name_H-M   'P 1'
_cell_length_a   8.52467100
_cell_length_b   10.85629400
_cell_length_c   12.13161200
_cell_angle_alpha   108.23153100
_cell_angle_beta   90.08675400
_cell_angle_gamma   90.01477700
_symmetry_Int_Tables_number   1
_chemical_formula_structural   ZnH8C15(NO2)2
_chemical_formula_sum   'Zn2 H16 C30 N4 O8'
_cell_volume   1066.37335305
_cell_formula_units_Z   2
loop_
 _symmetry_equiv_pos_site_id
 _symmetry_equiv_pos_as_xyz
  1  'x, y, z'
loop_
 _atom_site_type_symbol
 _atom_site_label
 _atom_site_symmetry_multiplicity
 _atom_site_fract_x
 _atom_site_fract_y
 _atom_site_fract_z
 _atom_site_occupancy
  Zn  Zn1  1  0.46103300  0.82928700  0.71569800  1
  Zn  Zn2  1  0.46156000  0.89837400  0.97413000  1
  H  H1  1  0.57118600  0.47254800  0.83911600  1
  H  H2  1  0.57133100  0.25492700  0.85160100  1
  H  H3  1  0.21663400  0.26540100  0.82852900  1
  H  H4  1  0.21663300  0.46246800  0.86189400  1
  H  H5  1  0.95828000  0.76203700  0.79923900  1
  H  H6  1  0.95873900  0.96559100  0.89103000  1
  H  H7  1  0.46437800  0.13838300  0.13086000  1
  H  H8  1  0.46578500  0.22229000  0.33913300  1
  H  H9  1  0.46062400  0.75724100  0.13566900  1
  H  H10  1  0.46090000  0.63511600  0.23207500  1
  H  H11  1  0.46037700  0.50007200  0.35099500  1
  H  H12  1  0.46085900  0.04282200  0.63952400  1
  H  H13  1  0.55896500  0.50732700  0.55080100  1
  H  H14  1  0.36080600  0.50787900  0.55069500  1
  H  H15  1  0.46963600  0.23885400  0.62829100  1
  H  H16  1  0.34943600  0.25350400  0.52280900  1
  C  C1  1  0.96431900  0.42751500  0.84283200  1
  C  C2  1  0.82199400  0.48916900  0.83876000  1
  C  C3  1  0.68235600  0.42602400  0.84229200  1
  C  C4  1  0.68243800  0.30154200  0.84836400  1
  C  C5  1  0.82216000  0.23850300  0.85180500  1
  C  C6  1  0.96439500  0.30025400  0.84769400  1
  C  C7  1  0.82137300  0.11456500  0.86196500  1
  C  C8  1  0.96008600  0.05783900  0.87590800  1
  C  C9  1  0.10010500  0.11149400  0.86078300  1
  C  C10  1  0.10332200  0.23099600  0.84420900  1
  C  C11  1  0.10323400  0.49681500  0.84623000  1
  C  C12  1  0.09993700  0.61624600  0.82954700  1
  C  C13  1  0.95973400  0.66984100  0.81445800  1
  C  C14  1  0.82101700  0.61308000  0.82850400  1
  C  C15  1  0.67973200  0.03627100  0.85545500  1
  C  C16  1  0.67919900  0.69123900  0.83492200  1
  C  C17  1  0.24184300  0.69314100  0.83523200  1
  C  C18  1  0.24179900  0.03453000  0.85502000  1
  C  C19  1  0.46350600  0.11842400  0.29898900  1
  C  C20  1  0.46061200  0.65484200  0.50991200  1
  C  C21  1  0.46061600  0.60405900  0.39153400  1
  C  C22  1  0.46088200  0.68329800  0.32384800  1
  C  C23  1  0.46113400  0.81661500  0.37517300  1
  C  C24  1  0.46132700  0.86616000  0.49664100  1
  C  C25  1  0.46137500  0.90123900  0.30791200  1
  C  C26  1  0.46167100  0.03382700  0.36336900  1
  C  C27  1  0.46106400  0.08245000  0.48262800  1
  C  C28  1  0.46152000  0.99947300  0.54797200  1
  C  C29  1  0.46134900  0.85778600  0.18623200  1
  C  C30  1  0.46341300  0.07127400  0.18045800  1
  N  N1  1  0.46201600  0.94299900  0.12601000  1
  N  N2  1  0.46092300  0.78493000  0.56314800  1
  N  N3  1  0.46017200  0.56641300  0.57511900  1
  N  N4  1  0.45890800  0.21936600  0.53879100  1
  O  O1  1  0.63076200  0.01767100  0.95125900  1
  O  O2  1  0.62565600  0.96988700  0.75247900  1
  O  O3  1  0.63008200  0.70993300  0.73892800  1
  O  O4  1  0.62512600  0.75722300  0.93804900  1
  O  O5  1  0.29130400  0.71044700  0.73876600  1
  O  O6  1  0.29764500  0.75747700  0.93822100  1
  O  O7  1  0.29183600  0.01725600  0.95130100  1
  O  O8  1  0.29664300  0.96970900  0.75218600  1
