# generated using pymatgen
data_Cu3H34C58(ClO6)2
_symmetry_space_group_name_H-M   'P 1'
_cell_length_a   47.38705800
_cell_length_b   35.27589100
_cell_length_c   31.70949000
_cell_angle_alpha   90.00000000
_cell_angle_beta   132.09832500
_cell_angle_gamma   90.00000000
_symmetry_Int_Tables_number   1
_chemical_formula_structural   Cu3H34C58(ClO6)2
_chemical_formula_sum   'Cu12 H136 C232 Cl8 O48'
_cell_volume   39330.38811111
_cell_formula_units_Z   4
loop_
 _symmetry_equiv_pos_site_id
 _symmetry_equiv_pos_as_xyz
  1  'x, y, z'
loop_
 _atom_site_type_symbol
 _atom_site_label
 _atom_site_symmetry_multiplicity
 _atom_site_fract_x
 _atom_site_fract_y
 _atom_site_fract_z
 _atom_site_occupancy
  Cu  Cu1  1  0.00000000  0.04053600  0.50000000  1
  Cu  Cu2  1  0.50000000  0.54053600  0.50000000  1
  Cu  Cu3  1  0.00000000  0.96650200  0.50000100  1
  Cu  Cu4  1  0.50000000  0.46650200  0.50000000  1
  Cu  Cu5  1  0.03788800  0.99867500  0.03867000  1
  Cu  Cu6  1  0.96211200  0.99867500  0.96133000  1
  Cu  Cu7  1  0.53788800  0.49867500  0.03867000  1
  Cu  Cu8  1  0.46211200  0.49867500  0.96133000  1
  Cu  Cu9  1  0.49954900  0.99858400  0.95840200  1
  Cu  Cu10  1  0.50045200  0.99858400  0.04159900  1
  Cu  Cu11  1  0.99954900  0.49858400  0.95840200  1
  Cu  Cu12  1  0.00045200  0.49858400  0.04159900  1
  H  H1  1  0.05382200  0.02555700  0.26574000  1
  H  H2  1  0.94617800  0.02555700  0.73426100  1
  H  H3  1  0.55382200  0.52555700  0.26574000  1
  H  H4  1  0.44617800  0.52555700  0.73426100  1
  H  H5  1  0.05681200  0.01816900  0.33934300  1
  H  H6  1  0.94318800  0.01816900  0.66065700  1
  H  H7  1  0.55681200  0.51816900  0.33934300  1
  H  H8  1  0.44318800  0.51816900  0.66065700  1
  H  H9  1  0.98284800  0.94317800  0.26765500  1
  H  H10  1  0.01715200  0.94317700  0.73234500  1
  H  H11  1  0.48284800  0.44317800  0.26765500  1
  H  H12  1  0.51715200  0.44317700  0.73234500  1
  H  H13  1  0.03330400  0.95202800  0.32250500  1
  H  H14  1  0.96669600  0.95202700  0.67749500  1
  H  H15  1  0.53330400  0.45202800  0.32250500  1
  H  H16  1  0.46669600  0.45202700  0.67749500  1
  H  H17  1  0.03951800  0.95657200  0.25792600  1
  H  H18  1  0.96048200  0.95657200  0.74207400  1
  H  H19  1  0.53951800  0.45657200  0.25792600  1
  H  H20  1  0.46048200  0.45657200  0.74207400  1
  H  H21  1  0.99107300  0.93992500  0.20525400  1
  H  H22  1  0.00892700  0.93992600  0.79474600  1
  H  H23  1  0.49107300  0.43992500  0.20525400  1
  H  H24  1  0.50892700  0.43992600  0.79474600  1
  H  H25  1  0.95445600  0.04461100  0.23709000  1
  H  H26  1  0.04554500  0.04461100  0.76291100  1
  H  H27  1  0.45445600  0.54461100  0.23709000  1
  H  H28  1  0.54554500  0.54461100  0.76291100  1
  H  H29  1  0.93688200  0.99678800  0.22546100  1
  H  H30  1  0.06311800  0.99678800  0.77454000  1
  H  H31  1  0.43688200  0.49678800  0.22546100  1
  H  H32  1  0.56311800  0.49678800  0.77454000  1
  H  H33  1  0.94812500  0.03692400  0.16026300  1
  H  H34  1  0.05187500  0.03692400  0.83973700  1
  H  H35  1  0.44812500  0.53692400  0.16026300  1
  H  H36  1  0.55187500  0.53692400  0.83973700  1
  H  H37  1  0.02414300  0.05757000  0.31099400  1
  H  H38  1  0.97585700  0.05757000  0.68900600  1
  H  H39  1  0.52414300  0.55757000  0.31099400  1
  H  H40  1  0.47585700  0.55757000  0.68900600  1
  H  H41  1  0.01519600  0.05909500  0.23143400  1
  H  H42  1  0.98480500  0.05909500  0.76856700  1
  H  H43  1  0.51519600  0.55909500  0.23143400  1
  H  H44  1  0.48480500  0.55909500  0.76856700  1
  H  H45  1  0.93831300  0.98694000  0.15641100  1
  H  H46  1  0.06168700  0.98694000  0.84358900  1
  H  H47  1  0.43831300  0.48694000  0.15641100  1
  H  H48  1  0.56168700  0.48694000  0.84358900  1
  H  H49  1  0.31261900  0.97890000  0.87809900  1
  H  H50  1  0.68738200  0.97889900  0.12190200  1
  H  H51  1  0.81261900  0.47890000  0.87809900  1
  H  H52  1  0.18738200  0.47889900  0.12190200  1
  H  H53  1  0.38198900  0.97848000  0.94718600  1
  H  H54  1  0.61801100  0.97847900  0.05281500  1
  H  H55  1  0.88198900  0.47848000  0.94718600  1
  H  H56  1  0.11801100  0.47847900  0.05281500  1
  H  H57  1  0.38082000  0.01883400  0.81849800  1
  H  H58  1  0.61918100  0.01883300  0.18150300  1
  H  H59  1  0.88082000  0.51883400  0.81849800  1
  H  H60  1  0.11918100  0.51883300  0.18150300  1
  H  H61  1  0.31153000  0.01895000  0.75042400  1
  H  H62  1  0.68847100  0.01894900  0.24957700  1
  H  H63  1  0.81153000  0.51895000  0.75042400  1
  H  H64  1  0.18847100  0.51894900  0.24957700  1
  H  H65  1  0.18603500  0.95638100  0.73201000  1
  H  H66  1  0.81396600  0.95638000  0.26799100  1
  H  H67  1  0.68603500  0.45638100  0.73201000  1
  H  H68  1  0.31396600  0.45638000  0.26799100  1
  H  H69  1  0.11679600  0.95795600  0.66064900  1
  H  H70  1  0.88320500  0.95795600  0.33935200  1
  H  H71  1  0.61679600  0.45795600  0.66064900  1
  H  H72  1  0.38320500  0.45795600  0.33935200  1
  H  H73  1  0.19097100  0.04510400  0.64652600  1
  H  H74  1  0.80902900  0.04510400  0.35347400  1
  H  H75  1  0.69097100  0.54510400  0.64652600  1
  H  H76  1  0.30902900  0.54510400  0.35347400  1
  H  H77  1  0.47598100  0.81096400  0.91435800  1
  H  H78  1  0.52401800  0.81096400  0.08564200  1
  H  H79  1  0.97598100  0.31096400  0.91435800  1
  H  H80  1  0.02401800  0.31096400  0.08564200  1
  H  H81  1  0.47589400  0.88012100  0.91378400  1
  H  H82  1  0.52410600  0.88012100  0.08621600  1
  H  H83  1  0.97589400  0.38012100  0.91378400  1
  H  H84  1  0.02410600  0.38012100  0.08621600  1
  H  H85  1  0.93934700  0.11802700  0.93353600  1
  H  H86  1  0.06065200  0.11802800  0.06646400  1
  H  H87  1  0.43934700  0.61802700  0.93353600  1
  H  H88  1  0.56065200  0.61802700  0.06646400  1
  H  H89  1  0.48065300  0.18621200  0.04419500  1
  H  H90  1  0.51934800  0.18621200  0.95580600  1
  H  H91  1  0.98065300  0.68621200  0.04419500  1
  H  H92  1  0.01934800  0.68621200  0.95580600  1
  H  H93  1  0.48051300  0.11708200  0.04450100  1
  H  H94  1  0.51948800  0.11708200  0.95550100  1
  H  H95  1  0.98051300  0.61708200  0.04450100  1
  H  H96  1  0.01948800  0.61708200  0.95550100  1
  H  H97  1  0.93952800  0.81002600  0.94189600  1
  H  H98  1  0.06047300  0.81002600  0.05810500  1
  H  H99  1  0.43952800  0.31002600  0.94189600  1
  H  H100  1  0.56047300  0.31002600  0.05810500  1
  H  H101  1  0.93910600  0.87916500  0.94149000  1
  H  H102  1  0.06089400  0.87916500  0.05851100  1
  H  H103  1  0.43910600  0.37916500  0.94149000  1
  H  H104  1  0.56089400  0.37916500  0.05851100  1
  H  H105  1  0.10223600  0.14625000  0.52750200  1
  H  H106  1  0.07229700  0.12003800  0.43377900  1
  H  H107  1  0.07155400  0.05118800  0.42146500  1
  H  H108  1  0.10047700  0.00843000  0.50238300  1
  H  H109  1  0.89776400  0.14625000  0.47249700  1
  H  H110  1  0.92770300  0.12003800  0.56622100  1
  H  H111  1  0.92844600  0.05118900  0.57853500  1
  H  H112  1  0.89952300  0.00843000  0.49761800  1
  H  H113  1  0.60223600  0.64625000  0.52750200  1
  H  H114  1  0.57229700  0.62003800  0.43377900  1
  H  H115  1  0.57155400  0.55118800  0.42146500  1
  H  H116  1  0.60047700  0.50843000  0.50238300  1
  H  H117  1  0.39776400  0.64625000  0.47249700  1
  H  H118  1  0.42770300  0.62003800  0.56622100  1
  H  H119  1  0.42844600  0.55118900  0.57853500  1
  H  H120  1  0.39952300  0.50843000  0.49761800  1
  H  H121  1  0.85030500  0.21272000  0.89688500  1
  H  H122  1  0.83625100  0.24689900  0.81707200  1
  H  H123  1  0.88246300  0.24638300  0.80515800  1
  H  H124  1  0.94253900  0.21150200  0.87273500  1
  H  H125  1  0.14969400  0.21272100  0.10311400  1
  H  H126  1  0.16374800  0.24690000  0.18292700  1
  H  H127  1  0.11753600  0.24638300  0.19484100  1
  H  H128  1  0.05746000  0.21150200  0.12726400  1
  H  H129  1  0.35030500  0.71272000  0.89688500  1
  H  H130  1  0.33625100  0.74689900  0.81707200  1
  H  H131  1  0.38246300  0.74638200  0.80515800  1
  H  H132  1  0.44253900  0.71150200  0.87273600  1
  H  H133  1  0.64969400  0.71272100  0.10311400  1
  H  H134  1  0.66374800  0.74690000  0.18292700  1
  H  H135  1  0.61753600  0.74638300  0.19484100  1
  H  H136  1  0.55746000  0.71150200  0.12726400  1
  C  C1  1  0.07216600  0.00335600  0.57079600  1
  C  C2  1  0.92783400  0.00335600  0.42920500  1
  C  C3  1  0.57216600  0.50335600  0.57079600  1
  C  C4  1  0.42783400  0.50335600  0.42920500  1
  C  C5  1  0.99920400  0.00349800  0.41926900  1
  C  C6  1  0.00079600  0.00349800  0.58073100  1
  C  C7  1  0.49920400  0.50349800  0.41926900  1
  C  C8  1  0.50079600  0.50349800  0.58073100  1
  C  C9  1  0.02826600  0.02880900  0.30177400  1
  C  C10  1  0.97173400  0.02881000  0.69822600  1
  C  C11  1  0.52826600  0.52880900  0.30177400  1
  C  C12  1  0.47173400  0.52881000  0.69822600  1
  C  C13  1  0.00630300  0.96229900  0.28145900  1
  C  C14  1  0.99369700  0.96230000  0.71854100  1
  C  C15  1  0.50630300  0.46229900  0.28145900  1
  C  C16  1  0.49369700  0.46230000  0.71854100  1
  C  C17  1  0.00963800  0.96234500  0.23715500  1
  C  C18  1  0.99036200  0.96234500  0.76284500  1
  C  C19  1  0.50963800  0.46234500  0.23715500  1
  C  C20  1  0.49036200  0.46234500  0.76284500  1
  C  C21  1  0.99788700  0.99922900  0.12420000  1
  C  C22  1  0.00211300  0.99922900  0.87580000  1
  C  C23  1  0.49788700  0.49922900  0.12420000  1
  C  C24  1  0.50211300  0.49922900  0.87580000  1
  C  C25  1  0.99807500  0.00218500  0.28846000  1
  C  C26  1  0.00192500  0.00218500  0.71154000  1
  C  C27  1  0.49807500  0.50218500  0.28846000  1
  C  C28  1  0.50192500  0.50218500  0.71154000  1
  C  C29  1  0.02538700  0.03063500  0.25127600  1
  C  C30  1  0.97461300  0.03063500  0.74872500  1
  C  C31  1  0.52538700  0.53063500  0.25127600  1
  C  C32  1  0.47461300  0.53063500  0.74872500  1
  C  C33  1  0.99767700  0.00072900  0.20826400  1
  C  C34  1  0.00232300  0.00072900  0.79173600  1
  C  C35  1  0.49767700  0.50072900  0.20826400  1
  C  C36  1  0.50232300  0.50072900  0.79173600  1
  C  C37  1  0.95819300  0.01012100  0.18481000  1
  C  C38  1  0.04180700  0.01012100  0.81519000  1
  C  C39  1  0.45819300  0.51012100  0.18481000  1
  C  C40  1  0.54180700  0.51012100  0.81519000  1
  C  C41  1  0.95942300  0.01451800  0.23358700  1
  C  C42  1  0.04057700  0.01451800  0.76641300  1
  C  C43  1  0.45942300  0.51451800  0.23358700  1
  C  C44  1  0.54057700  0.51451800  0.76641300  1
  C  C45  1  0.99762800  0.99988800  0.16199000  1
  C  C46  1  0.00237200  0.99988800  0.83801000  1
  C  C47  1  0.49762800  0.49988800  0.16199000  1
  C  C48  1  0.50237200  0.49988800  0.83801000  1
  C  C49  1  0.99836100  0.00295900  0.33499400  1
  C  C50  1  0.00163900  0.00295900  0.66500600  1
  C  C51  1  0.49836100  0.50295900  0.33499400  1
  C  C52  1  0.50163900  0.50295900  0.66500600  1
  C  C53  1  0.99869200  0.00335800  0.37339100  1
  C  C54  1  0.00130900  0.00335800  0.62660900  1
  C  C55  1  0.49869200  0.50335800  0.37339100  1
  C  C56  1  0.50130900  0.50335800  0.62660900  1
  C  C57  1  0.32780400  0.98760600  0.86530300  1
  C  C58  1  0.67219600  0.98760500  0.13469800  1
  C  C59  1  0.82780400  0.48760600  0.86530300  1
  C  C60  1  0.17219600  0.48760500  0.13469800  1
  C  C61  1  0.36697400  0.98744100  0.90414000  1
  C  C62  1  0.63302600  0.98744100  0.09586100  1
  C  C63  1  0.86697400  0.48744100  0.90414000  1
  C  C64  1  0.13302600  0.48744100  0.09586100  1
  C  C65  1  0.38642400  0.99864100  0.88781100  1
  C  C66  1  0.61357600  0.99864100  0.11219000  1
  C  C67  1  0.88642400  0.49864100  0.88781100  1
  C  C68  1  0.11357600  0.49864100  0.11219000  1
  C  C69  1  0.36634100  0.00993600  0.83236400  1
  C  C70  1  0.63365900  0.00993500  0.16763800  1
  C  C71  1  0.86634100  0.50993600  0.83236400  1
  C  C72  1  0.13365900  0.50993500  0.16763800  1
  C  C73  1  0.32720200  0.01005500  0.79373000  1
  C  C74  1  0.67279800  0.01005400  0.20627100  1
  C  C75  1  0.82720200  0.51005500  0.79373000  1
  C  C76  1  0.17279800  0.51005400  0.20627100  1
  C  C77  1  0.30799700  0.99892000  0.81020600  1
  C  C78  1  0.69200300  0.99891900  0.18979500  1
  C  C79  1  0.80799700  0.49892000  0.81020600  1
  C  C80  1  0.19200300  0.49891900  0.18979500  1
  C  C81  1  0.26732800  0.99933000  0.76984800  1
  C  C82  1  0.73267200  0.99932900  0.23015200  1
  C  C83  1  0.76732800  0.49933000  0.76984800  1
  C  C84  1  0.23267200  0.49932900  0.23015200  1
  C  C85  1  0.23314800  0.99995200  0.73542400  1
  C  C86  1  0.76685300  0.99995200  0.26457600  1
  C  C87  1  0.73314800  0.49995200  0.73542400  1
  C  C88  1  0.26685300  0.49995200  0.26457600  1
  C  C89  1  0.17169800  0.97641800  0.69734300  1
  C  C90  1  0.82830300  0.97641800  0.30265700  1
  C  C91  1  0.67169800  0.47641800  0.69734300  1
  C  C92  1  0.32830300  0.47641800  0.30265700  1
  C  C93  1  0.13258700  0.97727400  0.65666100  1
  C  C94  1  0.86741300  0.97727300  0.34334000  1
  C  C95  1  0.63258700  0.47727400  0.65666100  1
  C  C96  1  0.36741300  0.47727300  0.34334000  1
  C  C97  1  0.11393700  0.00296300  0.61227200  1
  C  C98  1  0.88606400  0.00296200  0.38772900  1
  C  C99  1  0.61393700  0.50296300  0.61227200  1
  C  C100  1  0.38606400  0.50296200  0.38772900  1
  C  C101  1  0.13521200  0.02772500  0.60880600  1
  C  C102  1  0.86478900  0.02772400  0.39119500  1
  C  C103  1  0.63521200  0.52772500  0.60880600  1
  C  C104  1  0.36478900  0.52772400  0.39119500  1
  C  C105  1  0.17435600  0.02644400  0.64967200  1
  C  C106  1  0.82564400  0.02644400  0.35032800  1
  C  C107  1  0.67435600  0.52644400  0.64967200  1
  C  C108  1  0.32564400  0.52644400  0.35032800  1
  C  C109  1  0.19250300  0.00106500  0.69383000  1
  C  C110  1  0.80749700  0.00106400  0.30617100  1
  C  C111  1  0.69250300  0.50106500  0.69383000  1
  C  C112  1  0.30749700  0.50106400  0.30617100  1
  C  C113  1  0.00000000  0.07153500  0.00000000  1
  C  C114  1  0.50000000  0.57153500  0.00000000  1
  C  C115  1  0.99849400  0.99849000  0.07946600  1
  C  C116  1  0.00150600  0.99849000  0.92053400  1
  C  C117  1  0.49849400  0.49849000  0.07946600  1
  C  C118  1  0.50150600  0.49849000  0.92053400  1
  C  C119  1  0.00000000  0.92579300  0.00000000  1
  C  C120  1  0.50000000  0.42579300  0.00000000  1
  C  C121  1  0.50000000  0.92673100  0.00000000  1
  C  C122  1  0.00000000  0.42673100  0.00000000  1
  C  C123  1  0.42801100  0.99860600  0.92891800  1
  C  C124  1  0.57198900  0.99860600  0.07108300  1
  C  C125  1  0.92801100  0.49860600  0.92891800  1
  C  C126  1  0.07198900  0.49860600  0.07108300  1
  C  C127  1  0.50000000  0.07044400  0.00000100  1
  C  C128  1  0.00000000  0.57044400  0.00000100  1
  C  C129  1  0.48656200  0.82634200  0.95201000  1
  C  C130  1  0.51343800  0.82634100  0.04799000  1
  C  C131  1  0.98656200  0.32634200  0.95201000  1
  C  C132  1  0.01343800  0.32634100  0.04799000  1
  C  C133  1  0.48659900  0.86541400  0.95193500  1
  C  C134  1  0.51340000  0.86541400  0.04806500  1
  C  C135  1  0.98659900  0.36541400  0.95193500  1
  C  C136  1  0.01340000  0.36541400  0.04806500  1
  C  C137  1  0.50000000  0.88518100  0.00000000  1
  C  C138  1  0.00000000  0.38518100  0.00000000  1
  C  C139  1  0.50000000  0.80684500  0.00000000  1
  C  C140  1  0.00000000  0.30684500  0.00000000  1
  C  C141  1  0.50000000  0.76624500  0.00000000  1
  C  C142  1  0.00000000  0.26624500  0.00000000  1
  C  C143  1  0.00000000  0.23212500  0.00000000  1
  C  C144  1  0.50000000  0.73212500  0.00000000  1
  C  C145  1  0.96614000  0.17190800  0.96310200  1
  C  C146  1  0.03386000  0.17190800  0.03689700  1
  C  C147  1  0.46614000  0.67190800  0.96310200  1
  C  C148  1  0.53386000  0.67190800  0.03689700  1
  C  C149  1  0.96614100  0.13281000  0.96315700  1
  C  C150  1  0.03385800  0.13281000  0.03684200  1
  C  C151  1  0.46614100  0.63281000  0.96315700  1
  C  C152  1  0.53385800  0.63281000  0.03684200  1
  C  C153  1  0.00000000  0.11307200  0.00000000  1
  C  C154  1  0.50000000  0.61307200  0.00000000  1
  C  C155  1  0.00000000  0.19145800  0.00000000  1
  C  C156  1  0.50000000  0.69145800  0.00000000  1
  C  C157  1  0.48916100  0.17086200  0.02476800  1
  C  C158  1  0.51084000  0.17086200  0.97523400  1
  C  C159  1  0.98916100  0.67086200  0.02476800  1
  C  C160  1  0.01084000  0.67086200  0.97523400  1
  C  C161  1  0.48914000  0.13178300  0.02482900  1
  C  C162  1  0.51086100  0.13178300  0.97517200  1
  C  C163  1  0.98914000  0.63178300  0.02482900  1
  C  C164  1  0.01086100  0.63178300  0.97517200  1
  C  C165  1  0.50000000  0.11200500  0.00000100  1
  C  C166  1  0.00000000  0.61200500  0.00000100  1
  C  C167  1  0.50000000  0.19039300  0.00000100  1
  C  C168  1  0.00000000  0.69039300  0.00000100  1
  C  C169  1  0.50000000  0.23104700  0.00000100  1
  C  C170  1  0.00000000  0.73104700  0.00000100  1
  C  C171  1  0.00000000  0.76519100  0.00000100  1
  C  C172  1  0.50000000  0.26519100  0.00000100  1
  C  C173  1  0.96611400  0.82537500  0.96744100  1
  C  C174  1  0.03388600  0.82537600  0.03256000  1
  C  C175  1  0.46611400  0.32537500  0.96744100  1
  C  C176  1  0.53388600  0.32537600  0.03256000  1
  C  C177  1  0.96603800  0.86445500  0.96736500  1
  C  C178  1  0.03396300  0.86445500  0.03263600  1
  C  C179  1  0.46603800  0.36445500  0.96736500  1
  C  C180  1  0.53396300  0.36445500  0.03263600  1
  C  C181  1  0.00000000  0.88423100  0.00000000  1
  C  C182  1  0.50000000  0.38423100  0.00000000  1
  C  C183  1  0.00000000  0.80584500  0.00000100  1
  C  C184  1  0.50000000  0.30584500  0.00000100  1
  C  C185  1  0.11772100  0.05333300  0.56066100  1
  C  C186  1  0.11841100  0.09207500  0.56773500  1
  C  C187  1  0.10200600  0.11596700  0.52209700  1
  C  C188  1  0.08515300  0.10128400  0.46953700  1
  C  C189  1  0.08466300  0.06267700  0.46256300  1
  C  C190  1  0.10091200  0.03871100  0.50801600  1
  C  C191  1  0.88228000  0.05333300  0.43933900  1
  C  C192  1  0.88158900  0.09207500  0.43226500  1
  C  C193  1  0.89799400  0.11596700  0.47790300  1
  C  C194  1  0.91484700  0.10128400  0.53046300  1
  C  C195  1  0.91533700  0.06267700  0.53743800  1
  C  C196  1  0.89908900  0.03871100  0.49198500  1
  C  C197  1  0.61772100  0.55333300  0.56066100  1
  C  C198  1  0.61841100  0.59207500  0.56773500  1
  C  C199  1  0.60200600  0.61596700  0.52209700  1
  C  C200  1  0.58515300  0.60128400  0.46953700  1
  C  C201  1  0.58466300  0.56267700  0.46256300  1
  C  C202  1  0.60091200  0.53871100  0.50801600  1
  C  C203  1  0.38228000  0.55333300  0.43933900  1
  C  C204  1  0.38158900  0.59207500  0.43226500  1
  C  C205  1  0.39799400  0.61596700  0.47790300  1
  C  C206  1  0.41484700  0.60128400  0.53046300  1
  C  C207  1  0.41533700  0.56267700  0.53743800  1
  C  C208  1  0.39908900  0.53871100  0.49198500  1
  C  C209  1  0.93029300  0.19250900  0.92301100  1
  C  C210  1  0.90426800  0.19274700  0.92958100  1
  C  C211  1  0.87054100  0.21230700  0.89150500  1
  C  C212  1  0.86268800  0.23154300  0.84681900  1
  C  C213  1  0.88859400  0.23128500  0.84017100  1
  C  C214  1  0.92231800  0.21175400  0.87815300  1
  C  C215  1  0.06970600  0.19250900  0.07698800  1
  C  C216  1  0.09573100  0.19274700  0.07041800  1
  C  C217  1  0.12945800  0.21230700  0.10849400  1
  C  C218  1  0.13731100  0.23154400  0.15318000  1
  C  C219  1  0.11140500  0.23128500  0.15982900  1
  C  C220  1  0.07768100  0.21175400  0.12184700  1
  C  C221  1  0.43029300  0.69250900  0.92301100  1
  C  C222  1  0.40426800  0.69274700  0.92958100  1
  C  C223  1  0.37054100  0.71230700  0.89150500  1
  C  C224  1  0.36268800  0.73154300  0.84681900  1
  C  C225  1  0.38859400  0.73128500  0.84017100  1
  C  C226  1  0.42231800  0.71175400  0.87815300  1
  C  C227  1  0.56970600  0.69250900  0.07698800  1
  C  C228  1  0.59573100  0.69274700  0.07041800  1
  C  C229  1  0.62945800  0.71230700  0.10849400  1
  C  C230  1  0.63731100  0.73154400  0.15318000  1
  C  C231  1  0.61140500  0.73128500  0.15982900  1
  C  C232  1  0.57768100  0.71175400  0.12184700  1
  Cl  Cl1  1  0.13855400  0.11113900  0.63379200  1
  Cl  Cl2  1  0.86144600  0.11113900  0.36620800  1
  Cl  Cl3  1  0.63855400  0.61113900  0.63379200  1
  Cl  Cl4  1  0.36144600  0.61113900  0.36620800  1
  Cl  Cl5  1  0.91434400  0.16966100  0.98731400  1
  Cl  Cl6  1  0.08565500  0.16966200  0.01268500  1
  Cl  Cl7  1  0.41434400  0.66966100  0.98731400  1
  Cl  Cl8  1  0.58565500  0.66966200  0.01268500  1
  O  O1  1  0.05410800  0.03473600  0.54194500  1
  O  O2  1  0.94589200  0.03473600  0.45805500  1
  O  O3  1  0.55410800  0.53473600  0.54194500  1
  O  O4  1  0.44589200  0.53473600  0.45805500  1
  O  O5  1  0.05439900  0.97228000  0.56537500  1
  O  O6  1  0.94560100  0.97228000  0.43462600  1
  O  O7  1  0.55439900  0.47228000  0.56537500  1
  O  O8  1  0.44560100  0.47228000  0.43462600  1
  O  O9  1  0.98894300  0.03478900  0.42886900  1
  O  O10  1  0.01105700  0.03478900  0.57113100  1
  O  O11  1  0.48894300  0.53478900  0.42886900  1
  O  O12  1  0.51105700  0.53478900  0.57113100  1
  O  O13  1  0.00985000  0.97222700  0.44956400  1
  O  O14  1  0.99015100  0.97222700  0.55043600  1
  O  O15  1  0.50985000  0.47222700  0.44956400  1
  O  O16  1  0.49015100  0.47222600  0.55043600  1
  O  O17  1  0.03281300  0.05378400  0.03188600  1
  O  O18  1  0.96718700  0.05378400  0.96811400  1
  O  O19  1  0.53281300  0.55378400  0.03188600  1
  O  O20  1  0.46718700  0.55378400  0.96811400  1
  O  O21  1  0.03155800  0.99999600  0.09351400  1
  O  O22  1  0.96844200  0.99999600  0.90648600  1
  O  O23  1  0.53155800  0.49999600  0.09351400  1
  O  O24  1  0.46844200  0.49999600  0.90648600  1
  O  O25  1  0.96602700  0.00023600  0.02667500  1
  O  O26  1  0.03397300  0.00023600  0.97332500  1
  O  O27  1  0.46602700  0.50023600  0.02667500  1
  O  O28  1  0.53397300  0.50023600  0.97332600  1
  O  O29  1  0.03272800  0.94358000  0.03153700  1
  O  O30  1  0.96727200  0.94358000  0.96846300  1
  O  O31  1  0.53272800  0.44358000  0.03153700  1
  O  O32  1  0.46727200  0.44358000  0.96846300  1
  O  O33  1  0.48896500  0.94454700  0.95438600  1
  O  O34  1  0.51103500  0.94454700  0.04561500  1
  O  O35  1  0.98896500  0.44454700  0.95438600  1
  O  O36  1  0.01103500  0.44454700  0.04561500  1
  O  O37  1  0.44543300  0.00922500  0.91141100  1
  O  O38  1  0.55456700  0.00922400  0.08859000  1
  O  O39  1  0.94543300  0.50922500  0.91141100  1
  O  O40  1  0.05456700  0.50922400  0.08859000  1
  O  O41  1  0.44623500  0.98796600  0.98162500  1
  O  O42  1  0.55376500  0.98796500  0.01837600  1
  O  O43  1  0.94623500  0.48796600  0.98162500  1
  O  O44  1  0.05376500  0.48796500  0.01837600  1
  O  O45  1  0.51027100  0.05262200  0.97544000  1
  O  O46  1  0.48973000  0.05262200  0.02456200  1
  O  O47  1  0.01027100  0.55262200  0.97544000  1
  O  O48  1  0.98973000  0.55262200  0.02456200  1
