# generated using pymatgen
data_Cu3H17C29O14
_symmetry_space_group_name_H-M   'P 1'
_cell_length_a   18.53723300
_cell_length_b   18.82954300
_cell_length_c   18.90336000
_cell_angle_alpha   70.54893700
_cell_angle_beta   70.65762700
_cell_angle_gamma   109.15556800
_symmetry_Int_Tables_number   1
_chemical_formula_structural   Cu3H17C29O14
_chemical_formula_sum   'Cu6 H34 C58 O28'
_cell_volume   5108.16926867
_cell_formula_units_Z   2
loop_
 _symmetry_equiv_pos_site_id
 _symmetry_equiv_pos_as_xyz
  1  'x, y, z'
loop_
 _atom_site_type_symbol
 _atom_site_label
 _atom_site_symmetry_multiplicity
 _atom_site_fract_x
 _atom_site_fract_y
 _atom_site_fract_z
 _atom_site_occupancy
  Cu  Cu1  1  0.94575900  0.51790400  0.05094100  1
  Cu  Cu2  1  0.06867200  0.51582800  0.93566000  1
  Cu  Cu3  1  0.05754300  0.07014300  0.49882400  1
  Cu  Cu4  1  0.93116100  0.95630500  0.49339800  1
  Cu  Cu5  1  0.49873300  0.08132700  0.93561100  1
  Cu  Cu6  1  0.50404600  0.96060700  0.05415100  1
  H  H1  1  0.02906600  0.89467900  0.73384800  1
  H  H2  1  0.94692400  0.75291900  0.69491200  1
  H  H3  1  0.99185600  0.76746400  0.86759100  1
  H  H4  1  0.02503000  0.69476700  0.74489100  1
  H  H5  1  0.87358200  0.24375900  0.01321900  1
  H  H6  1  0.75606300  0.13143100  0.01639000  1
  H  H7  1  0.65748600  0.35576100  0.89791500  1
  H  H8  1  0.58617600  0.30444300  0.01823100  1
  H  H9  1  0.77097600  0.46464400  0.90028300  1
  H  H10  1  0.69916700  0.41369700  0.02044000  1
  H  H11  1  0.14777000  0.39796300  0.12351900  1
  H  H12  1  0.14567200  0.28622300  0.23905000  1
  H  H13  1  0.81131600  0.08756800  0.35744000  1
  H  H14  1  0.80428800  0.14416500  0.42312100  1
  H  H15  1  0.81304200  0.20124500  0.24630900  1
  H  H16  1  0.80520000  0.25754500  0.31225600  1
  H  H17  1  0.27714900  0.77148300  0.85612700  1
  H  H18  1  0.38745100  0.88732500  0.85606000  1
  H  H19  1  0.22452300  0.71239700  0.19471400  1
  H  H20  1  0.17337500  0.78330700  0.17387900  1
  H  H21  1  0.11445300  0.00706300  0.23678500  1
  H  H22  1  0.23264700  0.01426400  0.12097700  1
  H  H23  1  0.37164900  0.95069600  0.32011900  1
  H  H24  1  0.43100500  0.07281800  0.25945300  1
  H  H25  1  0.25730800  0.94945200  0.43187900  1
  H  H26  1  0.31721000  0.07156700  0.37146000  1
  H  H27  1  0.73305400  0.02488000  0.61642400  1
  H  H28  1  0.62340400  0.02997200  0.72873500  1
  H  H29  1  0.82401500  0.07395000  0.86821600  1
  H  H30  1  0.76112000  0.95193800  0.92510300  1
  H  H31  1  0.93610600  0.07535600  0.75417200  1
  H  H32  1  0.87269200  0.95338300  0.81064700  1
  H  H33  1  0.12839200  0.48234900  0.21145900  1
  H  H34  1  0.93050600  0.65645200  0.27239200  1
  C  C1  1  0.89189100  0.39988800  0.99222700  1
  C  C2  1  0.00795900  0.63078100  0.87448900  1
  C  C3  1  0.12245900  0.63502300  0.99346600  1
  C  C4  1  0.00695800  0.40318300  0.11191200  1
  C  C5  1  0.00596700  0.83133700  0.73906000  1
  C  C6  1  0.97874000  0.81761700  0.68522000  1
  C  C7  1  0.99867600  0.76140100  0.81101500  1
  C  C8  1  0.00934900  0.69665400  0.80453800  1
  C  C9  1  0.75905600  0.34331100  0.97917800  1
  C  C10  1  0.82490800  0.33312800  0.99097200  1
  C  C11  1  0.82380500  0.25586600  0.00294300  1
  C  C12  1  0.75659100  0.19178500  0.00531900  1
  C  C13  1  0.69201200  0.20572100  0.99173100  1
  C  C14  1  0.69762900  0.28410600  0.97727600  1
  C  C15  1  0.65250800  0.33493900  0.96235100  1
  C  C16  1  0.72512800  0.40488400  0.96394500  1
  C  C17  1  0.93115200  0.26600700  0.24961200  1
  C  C18  1  0.00736600  0.33739600  0.18008900  1
  C  C19  1  0.08536300  0.34322600  0.17667500  1
  C  C20  1  0.08429100  0.27998300  0.24267700  1
  C  C21  1  0.00534900  0.20768400  0.31050800  1
  C  C22  1  0.93043200  0.20378600  0.30985100  1
  C  C23  1  0.83343500  0.14910900  0.35894500  1
  C  C24  1  0.83428400  0.22202900  0.28776600  1
  C  C25  1  0.17921000  0.70822800  0.06680500  1
  C  C26  1  0.18901600  0.70431700  0.99290800  1
  C  C27  1  0.26587900  0.77007200  0.91656400  1
  C  C28  1  0.32862100  0.83635200  0.91622800  1
  C  C29  1  0.31734600  0.83569800  0.99271800  1
  C  C30  1  0.24151300  0.76924800  0.06636700  1
  C  C31  1  0.19266600  0.73745700  0.16021800  1
  C  C32  1  0.11957200  0.66578700  0.16125500  1
  C  C33  1  0.11072300  0.00823000  0.38077600  1
  C  C34  1  0.98512300  0.88896900  0.61607400  1
  C  C35  1  0.87806300  0.01839000  0.61137400  1
  C  C36  1  0.00160200  0.13747500  0.37800600  1
  C  C37  1  0.62034200  0.02367200  0.87445700  1
  C  C38  1  0.62124200  0.13903300  0.99424400  1
  C  C39  1  0.38126200  0.01716000  0.11518700  1
  C  C40  1  0.38300300  0.90303400  0.99434400  1
  C  C41  1  0.25089800  0.00945800  0.31639800  1
  C  C42  1  0.17736900  0.00750400  0.31368800  1
  C  C43  1  0.17064500  0.00763300  0.24271200  1
  C  C44  1  0.23803900  0.01245400  0.17668800  1
  C  C45  1  0.31061800  0.01290400  0.18310900  1
  C  C46  1  0.31274600  0.00954700  0.25578800  1
  C  C47  1  0.36790000  0.01111800  0.29748900  1
  C  C48  1  0.29474200  0.01043500  0.36922900  1
  C  C49  1  0.81777800  0.02000400  0.74768700  1
  C  C50  1  0.81214200  0.02096700  0.67701600  1
  C  C51  1  0.74031600  0.02351700  0.67121800  1
  C  C52  1  0.67853900  0.02694000  0.73455900  1
  C  C53  1  0.68573200  0.02313900  0.80632200  1
  C  C54  1  0.75657800  0.01849200  0.81016900  1
  C  C55  1  0.79986100  0.01429700  0.86364300  1
  C  C56  1  0.87168200  0.01534900  0.79027600  1
  C  C57  1  0.10577100  0.57779700  0.21106200  1
  C  C58  1  0.03776600  0.67237600  0.18367000  1
  O  O1  1  0.86879300  0.44736900  0.02273900  1
  O  O2  1  0.97200100  0.40964600  0.96311200  1
  O  O3  1  0.97404800  0.62186300  0.95260400  1
  O  O4  1  0.04118700  0.58306200  0.85550200  1
  O  O5  1  0.04220400  0.58831400  0.06076300  1
  O  O6  1  0.14574000  0.62237700  0.92645500  1
  O  O7  1  0.93699600  0.41361600  0.13098200  1
  O  O8  1  0.07680100  0.44896300  0.03401100  1
  O  O9  1  0.13682700  0.05424300  0.41523200  1
  O  O10  1  0.02817200  0.96441400  0.40234400  1
  O  O11  1  0.04367800  0.96837800  0.58785800  1
  O  O12  1  0.93749600  0.87002700  0.58007000  1
  O  O13  1  0.96076300  0.06519900  0.58699900  1
  O  O14  1  0.85155400  0.96911800  0.57998500  1
  O  O15  1  0.05860600  0.15611800  0.40480400  1
  O  O16  1  0.94626000  0.05797300  0.40312800  1
  O  O17  1  0.58886300  0.07498600  0.85204200  1
  O  O18  1  0.59483000  0.97175000  0.95483300  1
  O  O19  1  0.58977300  0.16256400  0.94317300  1
  O  O20  1  0.59337200  0.05801100  0.04681900  1
  O  O21  1  0.40412500  0.06606900  0.03493100  1
  O  O22  1  0.41763300  0.97089100  0.13733700  1
  O  O23  1  0.41374000  0.98398500  0.93882100  1
  O  O24  1  0.40926900  0.87961500  0.05033200  1
  O  O25  1  0.06669900  0.54025200  0.28972800  1
  O  O26  1  0.14073400  0.53993800  0.16800300  1
  O  O27  1  0.02117700  0.70287300  0.12728200  1
  O  O28  1  0.98185000  0.64664700  0.26856500  1
