# generated using pymatgen
data_CuH18C26(NO)4
_symmetry_space_group_name_H-M   'P 1'
_cell_length_a   23.98501500
_cell_length_b   24.08944100
_cell_length_c   15.53870000
_cell_angle_alpha   90.00000000
_cell_angle_beta   99.17805900
_cell_angle_gamma   90.00000000
_symmetry_Int_Tables_number   1
_chemical_formula_structural   CuH18C26(NO)4
_chemical_formula_sum   'Cu4 H72 C104 N16 O16'
_cell_volume   8863.09510390
_cell_formula_units_Z   4
loop_
 _symmetry_equiv_pos_site_id
 _symmetry_equiv_pos_as_xyz
  1  'x, y, z'
loop_
 _atom_site_type_symbol
 _atom_site_label
 _atom_site_symmetry_multiplicity
 _atom_site_fract_x
 _atom_site_fract_y
 _atom_site_fract_z
 _atom_site_occupancy
  Cu  Cu1  1  0.49678100  0.99821000  0.41310400  1
  Cu  Cu2  1  0.50338700  0.00110600  0.58646900  1
  Cu  Cu3  1  0.99657100  0.50122000  0.41334100  1
  Cu  Cu4  1  0.00305900  0.49788500  0.58663500  1
  H  H1  1  0.61502700  0.12429800  0.37349100  1
  H  H2  1  0.38447100  0.87567900  0.62630500  1
  H  H3  1  0.37729000  0.12053500  0.61456400  1
  H  H4  1  0.62158200  0.87776100  0.38485500  1
  H  H5  1  0.12177200  0.62163700  0.38541900  1
  H  H6  1  0.87703400  0.37912900  0.61432300  1
  H  H7  1  0.88503900  0.62514600  0.62662100  1
  H  H8  1  0.11463100  0.37408800  0.37391900  1
  H  H9  1  0.68537400  0.19546600  0.37846600  1
  H  H10  1  0.31480200  0.80377900  0.62154900  1
  H  H11  1  0.30646700  0.19059700  0.60632500  1
  H  H12  1  0.69356100  0.80880300  0.39355500  1
  H  H13  1  0.19337100  0.69102600  0.39417300  1
  H  H14  1  0.80624700  0.30891200  0.60577000  1
  H  H15  1  0.81536900  0.69690600  0.62057100  1
  H  H16  1  0.18502100  0.30308000  0.37917300  1
  H  H17  1  0.29887700  0.79883600  0.34324600  1
  H  H18  1  0.70050900  0.20069000  0.65692700  1
  H  H19  1  0.70696800  0.80679600  0.67208300  1
  H  H20  1  0.29325300  0.19305000  0.32780400  1
  H  H21  1  0.79324900  0.30688200  0.32714700  1
  H  H22  1  0.20697500  0.69269500  0.67257200  1
  H  H23  1  0.20120200  0.29856700  0.65762500  1
  H  H24  1  0.79945000  0.69984700  0.34197200  1
  H  H25  1  0.36959900  0.87185500  0.34818600  1
  H  H26  1  0.62921000  0.12833800  0.65145900  1
  H  H27  1  0.63348300  0.87758700  0.66270600  1
  H  H28  1  0.36554300  0.12125600  0.33672400  1
  H  H29  1  0.86603900  0.37839800  0.33682500  1
  H  H30  1  0.13376600  0.62166400  0.66320700  1
  H  H31  1  0.12984900  0.37101500  0.65227700  1
  H  H32  1  0.87032200  0.62703000  0.34845200  1
  H  H33  1  0.58021100  0.99767700  0.29339900  1
  H  H34  1  0.41973100  0.00079200  0.70568000  1
  H  H35  1  0.07992400  0.50027700  0.29374500  1
  H  H36  1  0.91966300  0.49803400  0.70596000  1
  H  H37  1  0.60033000  0.01946400  0.89945100  1
  H  H38  1  0.39925800  0.97978400  0.10090700  1
  H  H39  1  0.10046200  0.47974800  0.89912000  1
  H  H40  1  0.89987100  0.52466700  0.10137500  1
  H  H41  1  0.59657700  0.01232800  0.74107100  1
  H  H42  1  0.40337800  0.98742500  0.25922000  1
  H  H43  1  0.09650400  0.48722000  0.74085000  1
  H  H44  1  0.90392700  0.51827100  0.25950700  1
  H  H45  1  0.57381900  0.90814500  0.06324300  1
  H  H46  1  0.66504000  0.89962900  0.01350400  1
  H  H47  1  0.75619000  0.93239100  0.00682100  1
  H  H48  1  0.78776200  0.96869100  0.10457500  1
  H  H49  1  0.76066900  0.00742200  0.00714600  1
  H  H50  1  0.72021700  0.04983800  0.14542300  1
  H  H51  1  0.62863500  0.05912900  0.19433000  1
  H  H52  1  0.37200900  0.93864600  0.80617600  1
  H  H53  1  0.28053100  0.94708800  0.85470900  1
  H  H54  1  0.21814100  0.99346000  0.92927300  1
  H  H55  1  0.22558800  0.06812600  0.92713600  1
  H  H56  1  0.25204300  0.02974100  0.02545000  1
  H  H57  1  0.33362300  0.09885400  0.98393700  1
  H  H58  1  0.42525700  0.09073100  0.93448200  1
  H  H59  1  0.12492900  0.43591100  0.19329400  1
  H  H60  1  0.21663400  0.44091800  0.14475900  1
  H  H61  1  0.28034700  0.48389800  0.06930100  1
  H  H62  1  0.27704800  0.55870300  0.07170200  1
  H  H63  1  0.24782100  0.52131300  0.97378500  1
  H  H64  1  0.16891500  0.59419400  0.01584300  1
  H  H65  1  0.07712000  0.58945600  0.06593800  1
  H  H66  1  0.92459300  0.41057800  0.93786400  1
  H  H67  1  0.83312400  0.40372800  0.98701300  1
  H  H68  1  0.74323300  0.43833500  0.99466900  1
  H  H69  1  0.71178500  0.47437400  0.89655900  1
  H  H70  1  0.73965400  0.51336400  0.99353700  1
  H  H71  1  0.78078600  0.55442900  0.85390900  1
  H  H72  1  0.87292200  0.56207700  0.80606500  1
  C  C1  1  0.42181700  0.07374200  0.48394600  1
  C  C2  1  0.57827900  0.92568700  0.51559900  1
  C  C3  1  0.57451000  0.07702800  0.50774000  1
  C  C4  1  0.42533100  0.92249500  0.49176800  1
  C  C5  1  0.92547600  0.57705200  0.49218000  1
  C  C6  1  0.07422200  0.42201100  0.50797900  1
  C  C7  1  0.07841100  0.57329500  0.51614800  1
  C  C8  1  0.92151900  0.42569100  0.48380500  1
  C  C9  1  0.38263600  0.87869100  0.48776000  1
  C  C10  1  0.61725800  0.12087300  0.51195000  1
  C  C11  1  0.62268800  0.88335100  0.52319200  1
  C  C12  1  0.37750900  0.11628200  0.47649500  1
  C  C13  1  0.87735500  0.38320500  0.47637400  1
  C  C14  1  0.12292800  0.61571700  0.52364100  1
  C  C15  1  0.11706900  0.37807000  0.51253100  1
  C  C16  1  0.88288300  0.62091200  0.48790900  1
  C  C17  1  0.36628900  0.85894400  0.56358800  1
  C  C18  1  0.63364800  0.14064700  0.43625300  1
  C  C19  1  0.64032100  0.86312500  0.44871600  1
  C  C20  1  0.35967500  0.13630100  0.55095600  1
  C  C21  1  0.85943600  0.36324700  0.55070700  1
  C  C22  1  0.14051800  0.63619400  0.44924600  1
  C  C23  1  0.13334000  0.35807100  0.43692500  1
  C  C24  1  0.86670900  0.64124300  0.56346300  1
  C  C25  1  0.32601300  0.81777800  0.56045200  1
  C  C26  1  0.67399800  0.18172300  0.43956600  1
  C  C27  1  0.68177900  0.82310700  0.45406300  1
  C  C28  1  0.31859500  0.17669800  0.54574500  1
  C  C29  1  0.81846800  0.32282500  0.54527000  1
  C  C30  1  0.18184500  0.67641900  0.45474600  1
  C  C31  1  0.17388500  0.31715200  0.44030800  1
  C  C32  1  0.82648100  0.68250100  0.55966200  1
  C  C33  1  0.30152100  0.79602500  0.48064900  1
  C  C34  1  0.69831100  0.20361700  0.51935600  1
  C  C35  1  0.70612700  0.80258200  0.53479300  1
  C  C36  1  0.29458100  0.19747800  0.46497700  1
  C  C37  1  0.79457100  0.30195700  0.46447400  1
  C  C38  1  0.20623100  0.69678700  0.53561400  1
  C  C39  1  0.19858400  0.29567100  0.52020800  1
  C  C40  1  0.80192200  0.70376200  0.47954000  1
  C  C41  1  0.31789200  0.81586600  0.40536700  1
  C  C42  1  0.68167400  0.18385300  0.59459700  1
  C  C43  1  0.68845600  0.82283700  0.60902600  1
  C  C44  1  0.31209100  0.17716200  0.39081100  1
  C  C45  1  0.81212600  0.32244600  0.39031400  1
  C  C46  1  0.18853900  0.67642800  0.60964700  1
  C  C47  1  0.18213600  0.31549200  0.59539100  1
  C  C48  1  0.81835400  0.68342600  0.40450300  1
  C  C49  1  0.35807800  0.85696000  0.40855500  1
  C  C50  1  0.64144600  0.14273300  0.59125800  1
  C  C51  1  0.64695500  0.86291100  0.60357200  1
  C  C52  1  0.35318600  0.13672200  0.39615000  1
  C  C53  1  0.85331600  0.36284500  0.39598000  1
  C  C54  1  0.14713800  0.63622600  0.60403600  1
  C  C55  1  0.14173000  0.35645500  0.59200900  1
  C  C56  1  0.85848800  0.64226700  0.40837000  1
  C  C57  1  0.45953000  0.00363500  0.74925200  1
  C  C58  1  0.54041800  0.99513700  0.24993400  1
  C  C59  1  0.95942000  0.49542200  0.74956800  1
  C  C60  1  0.04018500  0.50335500  0.25031700  1
  C  C61  1  0.45966000  0.00876800  0.83785700  1
  C  C62  1  0.53999400  0.98989200  0.16125100  1
  C  C63  1  0.95969000  0.49074100  0.83832600  1
  C  C64  1  0.03998700  0.50861000  0.16171200  1
  C  C65  1  0.51119100  0.01343600  0.89325100  1
  C  C66  1  0.48830900  0.98542500  0.10629100  1
  C  C67  1  0.01123800  0.48605400  0.89346300  1
  C  C68  1  0.98859500  0.51483200  0.10655100  1
  C  C69  1  0.56004400  0.01545800  0.85728700  1
  C  C70  1  0.43961400  0.98378200  0.14269300  1
  C  C71  1  0.06004600  0.48370600  0.85728300  1
  C  C72  1  0.94005500  0.51875600  0.14294500  1
  C  C73  1  0.55791000  0.01105200  0.76834800  1
  C  C74  1  0.44203600  0.98849500  0.23159600  1
  C  C75  1  0.05782500  0.48822400  0.76836500  1
  C  C76  1  0.94228100  0.51400600  0.23188300  1
  C  C77  1  0.59468100  0.98473000  0.13074600  1
  C  C78  1  0.60559900  0.93975800  0.08073800  1
  C  C79  1  0.65720300  0.93480400  0.05305300  1
  C  C80  1  0.69831200  0.97459200  0.07598700  1
  C  C81  1  0.75417200  0.97030200  0.04661300  1
  C  C82  1  0.68789000  0.01887400  0.12715300  1
  C  C83  1  0.63637300  0.02385300  0.15487100  1
  C  C84  1  0.40500900  0.01368300  0.86824400  1
  C  C85  1  0.36384200  0.97395700  0.84525300  1
  C  C86  1  0.31230300  0.97856900  0.87308200  1
  C  C87  1  0.30147900  0.02327100  0.92344200  1
  C  C88  1  0.24581900  0.02890100  0.95317000  1
  C  C89  1  0.34222900  0.06339800  0.94549900  1
  C  C90  1  0.39380800  0.05872100  0.91781900  1
  C  C91  1  0.09472800  0.51183100  0.13148300  1
  C  C92  1  0.13453400  0.47089200  0.15463600  1
  C  C93  1  0.18620500  0.47366800  0.12692100  1
  C  C94  1  0.19865100  0.51775300  0.07657100  1
  C  C95  1  0.25436000  0.52059400  0.04601600  1
  C  C96  1  0.15933800  0.55934000  0.05479600  1
  C  C97  1  0.10758100  0.55653600  0.08252500  1
  C  C98  1  0.90501500  0.48690900  0.86909100  1
  C  C99  1  0.89337600  0.44260800  0.91991800  1
  C  C100  1  0.84171600  0.43878200  0.94767700  1
  C  C101  1  0.80134500  0.47921800  0.92445500  1
  C  C102  1  0.74554000  0.47596600  0.95428600  1
  C  C103  1  0.81265000  0.52310000  0.87297700  1
  C  C104  1  0.86432000  0.52700100  0.84534900  1
  N  N1  1  0.25984100  0.75401700  0.47314600  1
  N  N2  1  0.74012600  0.24552200  0.52689900  1
  N  N3  1  0.74824100  0.76086700  0.54329600  1
  N  N4  1  0.25239800  0.23901300  0.45626300  1
  N  N5  1  0.75251700  0.26019700  0.45560300  1
  N  N6  1  0.24830800  0.73849100  0.54455500  1
  N  N7  1  0.24055000  0.25399700  0.52773300  1
  N  N8  1  0.76014300  0.74573700  0.47184500  1
  N  N9  1  0.50800000  0.00360200  0.71602600  1
  N  N10  1  0.49192200  0.99575600  0.28347600  1
  N  N11  1  0.00787200  0.49525900  0.71621900  1
  N  N12  1  0.99181300  0.50397800  0.28374300  1
  N  N13  1  0.51587000  0.01576100  0.98514500  1
  N  N14  1  0.48325600  0.98310400  0.01437500  1
  N  N15  1  0.01600800  0.48393000  0.98541100  1
  N  N16  1  0.98393900  0.51714600  0.01456100  1
  O  O1  1  0.43948500  0.05583200  0.41328300  1
  O  O2  1  0.56053900  0.94362200  0.58622800  1
  O  O3  1  0.56059100  0.05814300  0.58053700  1
  O  O4  1  0.43949600  0.94127200  0.41895300  1
  O  O5  1  0.93947400  0.55832500  0.41937600  1
  O  O6  1  0.06021300  0.44078600  0.58070300  1
  O  O7  1  0.06058100  0.55536800  0.58662800  1
  O  O8  1  0.93904900  0.44373800  0.41323900  1
  O  O9  1  0.44233900  0.05558300  0.56184700  1
  O  O10  1  0.55773700  0.94391600  0.43768100  1
  O  O11  1  0.55214200  0.05822600  0.43109500  1
  O  O12  1  0.44788200  0.94124900  0.56845500  1
  O  O13  1  0.94787600  0.55805500  0.56875500  1
  O  O14  1  0.05172500  0.44100600  0.43126500  1
  O  O15  1  0.05768400  0.55524900  0.43808200  1
  O  O16  1  0.94200400  0.44378700  0.56188500  1
