# generated using pymatgen
data_Cu3H36C64(O6F)2
_symmetry_space_group_name_H-M   'P 1'
_cell_length_a   43.94977600
_cell_length_b   38.52483500
_cell_length_c   21.48485200
_cell_angle_alpha   90.00000000
_cell_angle_beta   61.34883000
_cell_angle_gamma   90.00000000
_symmetry_Int_Tables_number   1
_chemical_formula_structural   Cu3H36C64(O6F)2
_chemical_formula_sum   'Cu12 H144 C256 O48 F8'
_cell_volume   31923.03841251
_cell_formula_units_Z   4
loop_
 _symmetry_equiv_pos_site_id
 _symmetry_equiv_pos_as_xyz
  1  'x, y, z'
loop_
 _atom_site_type_symbol
 _atom_site_label
 _atom_site_symmetry_multiplicity
 _atom_site_fract_x
 _atom_site_fract_y
 _atom_site_fract_z
 _atom_site_occupancy
  Cu  Cu1  1  0.00000000  0.53544600  0.50000000  1
  Cu  Cu2  1  0.50000000  0.03544600  0.50000000  1
  Cu  Cu3  1  0.00000000  0.46765400  0.50000000  1
  Cu  Cu4  1  0.50000000  0.96765400  0.50000000  1
  Cu  Cu5  1  0.96625000  0.50062300  0.02897200  1
  Cu  Cu6  1  0.03375000  0.50062300  0.97102700  1
  Cu  Cu7  1  0.46625000  0.00062300  0.02897200  1
  Cu  Cu8  1  0.53375000  0.00062300  0.97102700  1
  Cu  Cu9  1  0.49974100  0.50043400  0.06102300  1
  Cu  Cu10  1  0.50026000  0.50043400  0.93897700  1
  Cu  Cu11  1  0.99974100  0.00043400  0.06102300  1
  Cu  Cu12  1  0.00026000  0.00043400  0.93897700  1
  H  H1  1  0.95716400  0.52412200  0.73593000  1
  H  H2  1  0.04283600  0.52412200  0.26406900  1
  H  H3  1  0.45716400  0.02412200  0.73593000  1
  H  H4  1  0.54283600  0.02412200  0.26406900  1
  H  H5  1  0.06904600  0.48267900  0.56836600  1
  H  H6  1  0.93095500  0.48267900  0.43163300  1
  H  H7  1  0.56904600  0.98267900  0.56836600  1
  H  H8  1  0.43095500  0.98267900  0.43163300  1
  H  H9  1  0.11668800  0.45698000  0.57724200  1
  H  H10  1  0.88331200  0.45698000  0.42275800  1
  H  H11  1  0.61668800  0.95698000  0.57724200  1
  H  H12  1  0.38331200  0.95698000  0.42275800  1
  H  H13  1  0.11320500  0.44776600  0.69342900  1
  H  H14  1  0.88679500  0.44776600  0.30657000  1
  H  H15  1  0.61320500  0.94776600  0.69342900  1
  H  H16  1  0.38679500  0.94776600  0.30657000  1
  H  H17  1  0.06266800  0.46536700  0.80024200  1
  H  H18  1  0.93733200  0.46536700  0.19975800  1
  H  H19  1  0.56266800  0.96536700  0.80024200  1
  H  H20  1  0.43733200  0.96536700  0.19975800  1
  H  H21  1  0.95679600  0.52237200  0.84930600  1
  H  H22  1  0.04320500  0.52237200  0.15069300  1
  H  H23  1  0.45679600  0.02237200  0.84930600  1
  H  H24  1  0.54320500  0.02237200  0.15069300  1
  H  H25  1  0.39187100  0.49169800  0.00641900  1
  H  H26  1  0.60812900  0.49169800  0.99358100  1
  H  H27  1  0.89187100  0.99169800  0.00641900  1
  H  H28  1  0.10812900  0.99169800  0.99358100  1
  H  H29  1  0.32921600  0.49241200  0.06707300  1
  H  H30  1  0.67078400  0.49241200  0.93292600  1
  H  H31  1  0.82921600  0.99241200  0.06707300  1
  H  H32  1  0.17078400  0.99241200  0.93292600  1
  H  H33  1  0.32871500  0.50789500  0.26484300  1
  H  H34  1  0.67128500  0.50789500  0.73515700  1
  H  H35  1  0.82871500  0.00789500  0.26484300  1
  H  H36  1  0.17128500  0.00789500  0.73515700  1
  H  H37  1  0.39131600  0.50883600  0.20368400  1
  H  H38  1  0.60868400  0.50883600  0.79631600  1
  H  H39  1  0.89131600  0.00883600  0.20368400  1
  H  H40  1  0.10868400  0.00883600  0.79631600  1
  H  H41  1  0.28120300  0.54036400  0.28148000  1
  H  H42  1  0.71879800  0.54036400  0.71852000  1
  H  H43  1  0.78120300  0.04036400  0.28148000  1
  H  H44  1  0.21879800  0.04036400  0.71852000  1
  H  H45  1  0.21873100  0.53953600  0.34448100  1
  H  H46  1  0.78126900  0.53953600  0.65551800  1
  H  H47  1  0.71873100  0.03953600  0.34448100  1
  H  H48  1  0.28126900  0.03953600  0.65551800  1
  H  H49  1  0.21851400  0.46163700  0.20272200  1
  H  H50  1  0.78148600  0.46163700  0.79727700  1
  H  H51  1  0.71851400  0.96163700  0.20272200  1
  H  H52  1  0.28148600  0.96163700  0.79727700  1
  H  H53  1  0.28107400  0.46034000  0.14348500  1
  H  H54  1  0.71892600  0.46034000  0.85651500  1
  H  H55  1  0.78107400  0.96034000  0.14348500  1
  H  H56  1  0.21892600  0.96034000  0.85651500  1
  H  H57  1  0.17038200  0.44580800  0.30801300  1
  H  H58  1  0.82961800  0.44580800  0.69198700  1
  H  H59  1  0.67038200  0.94580800  0.30801300  1
  H  H60  1  0.32961800  0.94580800  0.69198700  1
  H  H61  1  0.10769400  0.44632400  0.36981800  1
  H  H62  1  0.89230700  0.44632400  0.63018200  1
  H  H63  1  0.60769400  0.94632400  0.36981800  1
  H  H64  1  0.39230700  0.94632400  0.63018200  1
  H  H65  1  0.10865300  0.55620700  0.39740400  1
  H  H66  1  0.89134700  0.55620700  0.60259600  1
  H  H67  1  0.60865300  0.05620700  0.39740400  1
  H  H68  1  0.39134700  0.05620700  0.60259600  1
  H  H69  1  0.17121100  0.55599200  0.33276100  1
  H  H70  1  0.82878900  0.55599200  0.66723900  1
  H  H71  1  0.67121100  0.05599200  0.33276100  1
  H  H72  1  0.32878900  0.05599200  0.66723900  1
  H  H73  1  0.52030200  0.60898500  0.07280600  1
  H  H74  1  0.47969800  0.60898500  0.92719300  1
  H  H75  1  0.02030200  0.10898500  0.07280600  1
  H  H76  1  0.97969800  0.10898500  0.92719300  1
  H  H77  1  0.51993600  0.67180500  0.07327500  1
  H  H78  1  0.48006400  0.67180600  0.92672500  1
  H  H79  1  0.01993600  0.17180500  0.07327500  1
  H  H80  1  0.98006400  0.17180600  0.92672500  1
  H  H81  1  0.45062900  0.71910000  0.00320800  1
  H  H82  1  0.54937100  0.71909900  0.99679200  1
  H  H83  1  0.95062900  0.21910000  0.00320800  1
  H  H84  1  0.04937100  0.21909900  0.99679200  1
  H  H85  1  0.95098700  0.28199700  0.00162100  1
  H  H86  1  0.04901400  0.28199700  0.99837900  1
  H  H87  1  0.45098700  0.78199700  0.00162100  1
  H  H88  1  0.54901400  0.78199700  0.99837900  1
  H  H89  1  0.05376100  0.32928900  0.92309900  1
  H  H90  1  0.94623900  0.32929000  0.07690100  1
  H  H91  1  0.55376100  0.82928900  0.92309900  1
  H  H92  1  0.44623900  0.82929000  0.07690100  1
  H  H93  1  0.05391600  0.39211000  0.92348900  1
  H  H94  1  0.94608400  0.39211000  0.07651000  1
  H  H95  1  0.55391600  0.89211000  0.92348900  1
  H  H96  1  0.44608400  0.89211000  0.07651000  1
  H  H97  1  0.52449400  0.39194200  0.88658300  1
  H  H98  1  0.47550600  0.39194200  0.11341600  1
  H  H99  1  0.02449400  0.89194200  0.88658300  1
  H  H100  1  0.97550600  0.89194200  0.11341600  1
  H  H101  1  0.52426100  0.32905500  0.88678900  1
  H  H102  1  0.47573900  0.32905500  0.11321100  1
  H  H103  1  0.02426100  0.82905500  0.88678900  1
  H  H104  1  0.97573900  0.82905500  0.11321100  1
  H  H105  1  0.44816500  0.28227100  0.08507200  1
  H  H106  1  0.55183600  0.28227100  0.91492800  1
  H  H107  1  0.94816500  0.78227100  0.08507200  1
  H  H108  1  0.05183600  0.78227100  0.91492800  1
  H  H109  1  0.01070900  0.67228000  0.89244100  1
  H  H110  1  0.98929100  0.67228000  0.10755900  1
  H  H111  1  0.51070900  0.17228000  0.89244100  1
  H  H112  1  0.48929100  0.17228000  0.10755900  1
  H  H113  1  0.93725000  0.73797100  0.18902200  1
  H  H114  1  0.88394400  0.70789400  0.27247800  1
  H  H115  1  0.87953500  0.65826400  0.09988000  1
  H  H116  1  0.93242800  0.68869600  0.01604900  1
  H  H117  1  0.06275100  0.73797100  0.81097800  1
  H  H118  1  0.11605600  0.70789400  0.72752200  1
  H  H119  1  0.12046500  0.65826400  0.90012000  1
  H  H120  1  0.06757200  0.68869600  0.98395100  1
  H  H121  1  0.43725000  0.23797100  0.18902200  1
  H  H122  1  0.38394400  0.20789400  0.27247800  1
  H  H123  1  0.37953500  0.15826400  0.09988000  1
  H  H124  1  0.43242800  0.18869600  0.01604900  1
  H  H125  1  0.56275100  0.23797100  0.81097800  1
  H  H126  1  0.61605600  0.20789400  0.72752200  1
  H  H127  1  0.62046500  0.15826400  0.90012000  1
  H  H128  1  0.56757200  0.18869600  0.98395100  1
  H  H129  1  0.06451600  0.58523300  0.86345700  1
  H  H130  1  0.08537500  0.56195700  0.74348700  1
  H  H131  1  0.99527600  0.60106700  0.74135900  1
  H  H132  1  0.97408400  0.62403000  0.86175700  1
  H  H133  1  0.93548500  0.58523300  0.13654300  1
  H  H134  1  0.91462500  0.56195700  0.25651300  1
  H  H135  1  0.00472400  0.60106700  0.25864100  1
  H  H136  1  0.02591600  0.62403000  0.13824200  1
  H  H137  1  0.56451600  0.08523300  0.86345700  1
  H  H138  1  0.58537500  0.06195700  0.74348700  1
  H  H139  1  0.49527600  0.10106700  0.74135900  1
  H  H140  1  0.47408400  0.12403000  0.86175700  1
  H  H141  1  0.43548500  0.08523300  0.13654300  1
  H  H142  1  0.41462500  0.06195700  0.25651300  1
  H  H143  1  0.50472400  0.10106700  0.25864100  1
  H  H144  1  0.52591600  0.12403000  0.13824200  1
  C  C1  1  0.06559900  0.50151000  0.42808700  1
  C  C2  1  0.93440100  0.50151000  0.57191300  1
  C  C3  1  0.56559900  0.00151000  0.42808700  1
  C  C4  1  0.43440100  0.00151000  0.57191300  1
  C  C5  1  0.00525200  0.50183000  0.61237500  1
  C  C6  1  0.99474800  0.50183000  0.38762500  1
  C  C7  1  0.50525200  0.00183000  0.61237500  1
  C  C8  1  0.49474800  0.00183000  0.38762500  1
  C  C9  1  0.06608800  0.47891800  0.62070000  1
  C  C10  1  0.93391200  0.47891800  0.37929900  1
  C  C11  1  0.56608800  0.97891800  0.62070000  1
  C  C12  1  0.43391200  0.97891800  0.37929900  1
  C  C13  1  0.09369300  0.46469000  0.62501300  1
  C  C14  1  0.90630700  0.46469000  0.37498700  1
  C  C15  1  0.59369300  0.96469000  0.62501300  1
  C  C16  1  0.40630700  0.96469000  0.37498700  1
  C  C17  1  0.09183900  0.45976700  0.68996000  1
  C  C18  1  0.90816100  0.45976700  0.31003900  1
  C  C19  1  0.59183900  0.95976700  0.68996000  1
  C  C20  1  0.40816100  0.95976700  0.31003900  1
  C  C21  1  0.06301100  0.47046700  0.75062600  1
  C  C22  1  0.93699000  0.47046700  0.24937400  1
  C  C23  1  0.56301100  0.97046700  0.75062600  1
  C  C24  1  0.43699000  0.97046700  0.24937400  1
  C  C25  1  0.03548800  0.48632900  0.74701000  1
  C  C26  1  0.96451300  0.48632900  0.25299000  1
  C  C27  1  0.53548800  0.98632900  0.74701000  1
  C  C28  1  0.46451300  0.98632900  0.25299000  1
  C  C29  1  0.03623500  0.48870300  0.68170600  1
  C  C30  1  0.96376500  0.48870300  0.31829400  1
  C  C31  1  0.53623500  0.98870300  0.68170600  1
  C  C32  1  0.46376500  0.98870300  0.31829400  1
  C  C33  1  0.00756400  0.50178000  0.67808600  1
  C  C34  1  0.99243600  0.50178000  0.32191400  1
  C  C35  1  0.50756400  0.00178000  0.67808600  1
  C  C36  1  0.49243600  0.00178000  0.32191400  1
  C  C37  1  0.97944900  0.51392300  0.73848000  1
  C  C38  1  0.02055100  0.51392300  0.26151900  1
  C  C39  1  0.47944900  0.01392300  0.73848000  1
  C  C40  1  0.52055100  0.01392300  0.26151900  1
  C  C41  1  0.97901900  0.51236400  0.80268300  1
  C  C42  1  0.02098100  0.51236400  0.19731600  1
  C  C43  1  0.47901900  0.01236400  0.80268300  1
  C  C44  1  0.52098100  0.01236400  0.19731600  1
  C  C45  1  0.00682500  0.49893700  0.80765600  1
  C  C46  1  0.99317500  0.49893700  0.19234400  1
  C  C47  1  0.50682500  0.99893700  0.80765600  1
  C  C48  1  0.49317500  0.99893700  0.19234400  1
  C  C49  1  0.37825800  0.49527300  0.06324900  1
  C  C50  1  0.62174200  0.49527300  0.93675100  1
  C  C51  1  0.87825800  0.99527300  0.06324900  1
  C  C52  1  0.12174200  0.99527300  0.93675100  1
  C  C53  1  0.34250600  0.49537300  0.09797200  1
  C  C54  1  0.65749400  0.49537300  0.90202800  1
  C  C55  1  0.84250600  0.99537300  0.09797200  1
  C  C56  1  0.15749400  0.99537300  0.90202800  1
  C  C57  1  0.32415200  0.50018600  0.17062600  1
  C  C58  1  0.67584800  0.50018600  0.82937400  1
  C  C59  1  0.82415200  0.00018600  0.17062600  1
  C  C60  1  0.17584800  0.00018600  0.82937400  1
  C  C61  1  0.34221900  0.50498400  0.20786700  1
  C  C62  1  0.65778100  0.50498400  0.79213300  1
  C  C63  1  0.84221900  0.00498400  0.20786700  1
  C  C64  1  0.15778100  0.00498400  0.79213300  1
  C  C65  1  0.37795700  0.50522200  0.17306800  1
  C  C66  1  0.62204400  0.50522200  0.82693200  1
  C  C67  1  0.87795700  0.00522200  0.17306800  1
  C  C68  1  0.12204400  0.00522200  0.82693200  1
  C  C69  1  0.39620300  0.50031400  0.10055700  1
  C  C70  1  0.60379700  0.50031400  0.89944200  1
  C  C71  1  0.89620300  0.00031400  0.10055700  1
  C  C72  1  0.10379700  0.00031400  0.89944200  1
  C  C73  1  0.26779300  0.52241400  0.26443800  1
  C  C74  1  0.73220800  0.52241400  0.73556200  1
  C  C75  1  0.76779300  0.02241400  0.26443800  1
  C  C76  1  0.23220800  0.02241400  0.73556200  1
  C  C77  1  0.23206400  0.52249100  0.29946600  1
  C  C78  1  0.76793600  0.52249100  0.70053400  1
  C  C79  1  0.73206400  0.02249100  0.29946600  1
  C  C80  1  0.26793600  0.02249100  0.70053400  1
  C  C81  1  0.21379200  0.50064300  0.27824600  1
  C  C82  1  0.78620800  0.50064300  0.72175300  1
  C  C83  1  0.71379200  0.00064300  0.27824600  1
  C  C84  1  0.28620800  0.00064300  0.72175300  1
  C  C85  1  0.23195600  0.47860000  0.22147500  1
  C  C86  1  0.76804400  0.47860000  0.77852400  1
  C  C87  1  0.73195600  0.97860000  0.22147500  1
  C  C88  1  0.26804400  0.97860000  0.77852400  1
  C  C89  1  0.26771000  0.47838300  0.18667600  1
  C  C90  1  0.73229000  0.47838300  0.81332400  1
  C  C91  1  0.76771000  0.97838300  0.18667600  1
  C  C92  1  0.23229000  0.97838300  0.81332400  1
  C  C93  1  0.28596900  0.50031900  0.20778800  1
  C  C94  1  0.71403100  0.50031900  0.79221200  1
  C  C95  1  0.78596900  0.00031900  0.20778800  1
  C  C96  1  0.21403100  0.00031900  0.79221200  1
  C  C97  1  0.15715800  0.47036200  0.32601200  1
  C  C98  1  0.84284200  0.47036200  0.67398700  1
  C  C99  1  0.65715800  0.97036200  0.32601200  1
  C  C100  1  0.34284200  0.97036200  0.67398700  1
  C  C101  1  0.12140000  0.47059700  0.36174300  1
  C  C102  1  0.87860000  0.47059700  0.63825700  1
  C  C103  1  0.62140000  0.97059700  0.36174300  1
  C  C104  1  0.37860000  0.97059700  0.63825700  1
  C  C105  1  0.10357600  0.50129000  0.38821300  1
  C  C106  1  0.89642400  0.50129000  0.61178700  1
  C  C107  1  0.60357600  0.00129000  0.38821300  1
  C  C108  1  0.39642400  0.00129000  0.61178700  1
  C  C109  1  0.12192400  0.53177900  0.37787300  1
  C  C110  1  0.87807700  0.53177900  0.62212600  1
  C  C111  1  0.62192400  0.03177900  0.37787300  1
  C  C112  1  0.37807700  0.03177900  0.62212600  1
  C  C113  1  0.15764300  0.53159500  0.34155400  1
  C  C114  1  0.84235700  0.53159500  0.65844600  1
  C  C115  1  0.65764300  0.03159500  0.34155400  1
  C  C116  1  0.34235700  0.03159500  0.65844600  1
  C  C117  1  0.17561000  0.50086200  0.31568200  1
  C  C118  1  0.82439000  0.50086200  0.68431800  1
  C  C119  1  0.67561000  0.00086200  0.31568200  1
  C  C120  1  0.32439000  0.00086200  0.68431800  1
  C  C121  1  0.00000000  0.43481800  0.00000000  1
  C  C122  1  0.50000000  0.93481800  0.00000000  1
  C  C123  1  0.00477100  0.49925300  0.87776300  1
  C  C124  1  0.99522900  0.49925300  0.12223600  1
  C  C125  1  0.50477100  0.99925300  0.87776300  1
  C  C126  1  0.49522900  0.99925300  0.12223600  1
  C  C127  1  0.00000000  0.56635900  0.00000000  1
  C  C128  1  0.50000000  0.06635900  0.00000000  1
  C  C129  1  0.50000000  0.43460800  0.00000000  1
  C  C130  1  0.00000000  0.93460800  0.00000000  1
  C  C131  1  0.43421900  0.50042300  0.06365100  1
  C  C132  1  0.56578100  0.50042300  0.93634900  1
  C  C133  1  0.93421900  0.00042300  0.06365100  1
  C  C134  1  0.06578100  0.00042300  0.93634900  1
  C  C135  1  0.50000000  0.56626700  0.00000000  1
  C  C136  1  0.00000000  0.06626700  0.00000000  1
  C  C137  1  0.51136200  0.62245300  0.04049500  1
  C  C138  1  0.48863800  0.62245300  0.95950500  1
  C  C139  1  0.01136200  0.12245300  0.04049500  1
  C  C140  1  0.98863800  0.12245300  0.95950500  1
  C  C141  1  0.51147200  0.65823500  0.04027300  1
  C  C142  1  0.48852800  0.65823500  0.95972600  1
  C  C143  1  0.01147200  0.15823500  0.04027300  1
  C  C144  1  0.98852800  0.15823500  0.95972600  1
  C  C145  1  0.50000000  0.67638100  0.00000000  1
  C  C146  1  0.00000000  0.17638100  0.00000000  1
  C  C147  1  0.50000000  0.60433200  0.00000000  1
  C  C148  1  0.00000000  0.10433200  0.00000000  1
  C  C149  1  0.47260700  0.73265900  0.00117500  1
  C  C150  1  0.52739300  0.73265900  0.99882500  1
  C  C151  1  0.97260700  0.23265900  0.00117500  1
  C  C152  1  0.02739300  0.23265900  0.99882500  1
  C  C153  1  0.97253000  0.26843700  0.00151700  1
  C  C154  1  0.02747000  0.26843700  0.99848200  1
  C  C155  1  0.47253000  0.76843700  0.00151700  1
  C  C156  1  0.52747000  0.76843700  0.99848200  1
  C  C157  1  0.00000000  0.28658700  0.00000000  1
  C  C158  1  0.50000000  0.78658700  0.00000000  1
  C  C159  1  0.50000000  0.71450900  0.00000000  1
  C  C160  1  0.00000000  0.21450900  0.00000000  1
  C  C161  1  0.03007700  0.34286100  0.95769200  1
  C  C162  1  0.96992300  0.34286100  0.04230700  1
  C  C163  1  0.53007700  0.84286100  0.95769200  1
  C  C164  1  0.46992300  0.84286100  0.04230700  1
  C  C165  1  0.03006700  0.37864200  0.95748700  1
  C  C166  1  0.96993300  0.37864200  0.04251300  1
  C  C167  1  0.53006700  0.87864200  0.95748700  1
  C  C168  1  0.46993300  0.87864200  0.04251300  1
  C  C169  1  0.00000000  0.39675900  0.00000000  1
  C  C170  1  0.50000000  0.89675900  0.00000000  1
  C  C171  1  0.00000000  0.32471500  0.00000000  1
  C  C172  1  0.50000000  0.82471500  0.00000000  1
  C  C173  1  0.51365900  0.37845500  0.93677400  1
  C  C174  1  0.48634100  0.37845500  0.06322500  1
  C  C175  1  0.01365900  0.87845500  0.93677400  1
  C  C176  1  0.98634100  0.87845500  0.06322500  1
  C  C177  1  0.51384100  0.34267800  0.93679700  1
  C  C178  1  0.48615900  0.34267800  0.06320200  1
  C  C179  1  0.01384100  0.84267800  0.93679700  1
  C  C180  1  0.98615900  0.84267800  0.06320200  1
  C  C181  1  0.50000000  0.32456600  0.00000000  1
  C  C182  1  0.00000000  0.82456600  0.00000000  1
  C  C183  1  0.50000000  0.39656000  0.00000000  1
  C  C184  1  0.00000000  0.89656000  0.00000000  1
  C  C185  1  0.47125800  0.26842900  0.04846700  1
  C  C186  1  0.52874200  0.26842900  0.95153300  1
  C  C187  1  0.97125800  0.76842900  0.04846700  1
  C  C188  1  0.02874200  0.76842900  0.95153300  1
  C  C189  1  0.97078000  0.73263800  0.04781800  1
  C  C190  1  0.02922000  0.73263800  0.95218200  1
  C  C191  1  0.47078000  0.23263800  0.04781800  1
  C  C192  1  0.52922000  0.23263800  0.95218200  1
  C  C193  1  0.00000000  0.71441400  0.00000000  1
  C  C194  1  0.50000000  0.21441400  0.00000000  1
  C  C195  1  0.50000000  0.28648200  0.00000000  1
  C  C196  1  0.00000000  0.78648200  0.00000000  1
  C  C197  1  0.00581400  0.65827100  0.93992300  1
  C  C198  1  0.99418600  0.65827100  0.06007600  1
  C  C199  1  0.50581400  0.15827100  0.93992300  1
  C  C200  1  0.49418600  0.15827100  0.06007600  1
  C  C201  1  0.00695100  0.62253000  0.93890000  1
  C  C202  1  0.99305000  0.62253000  0.06110000  1
  C  C203  1  0.50695100  0.12253000  0.93890000  1
  C  C204  1  0.49305000  0.12253000  0.06110000  1
  C  C205  1  0.00000000  0.60434700  0.00000000  1
  C  C206  1  0.50000000  0.10434700  0.00000000  1
  C  C207  1  0.00000000  0.67629900  0.00000000  1
  C  C208  1  0.50000000  0.17629900  0.00000000  1
  C  C209  1  0.93869000  0.71484200  0.09716300  1
  C  C210  1  0.92456000  0.72062900  0.16913900  1
  C  C211  1  0.89470100  0.70362200  0.21611100  1
  C  C212  1  0.87864700  0.68105600  0.19128900  1
  C  C213  1  0.89227400  0.67574300  0.11940800  1
  C  C214  1  0.92211100  0.69274700  0.07237000  1
  C  C215  1  0.06131000  0.71484200  0.90283700  1
  C  C216  1  0.07544000  0.72062900  0.83086100  1
  C  C217  1  0.10529900  0.70362200  0.78388900  1
  C  C218  1  0.12135300  0.68105600  0.80871100  1
  C  C219  1  0.10772600  0.67574300  0.88059200  1
  C  C220  1  0.07789000  0.69274700  0.92763000  1
  C  C221  1  0.43869000  0.21484200  0.09716300  1
  C  C222  1  0.42456000  0.22062900  0.16913900  1
  C  C223  1  0.39470100  0.20362200  0.21611100  1
  C  C224  1  0.37864700  0.18105600  0.19128900  1
  C  C225  1  0.39227400  0.17574300  0.11940800  1
  C  C226  1  0.42211100  0.19274700  0.07237000  1
  C  C227  1  0.56131000  0.21484200  0.90283700  1
  C  C228  1  0.57544000  0.22062900  0.83086100  1
  C  C229  1  0.60529900  0.20362200  0.78388900  1
  C  C230  1  0.62135300  0.18105600  0.80871100  1
  C  C231  1  0.60772600  0.17574300  0.88059200  1
  C  C232  1  0.57789000  0.19274700  0.92763000  1
  C  C233  1  0.01735100  0.60504300  0.87130900  1
  C  C234  1  0.04872800  0.58786500  0.83765600  1
  C  C235  1  0.06070400  0.57520700  0.76987900  1
  C  C236  1  0.04157700  0.58007800  0.73519000  1
  C  C237  1  0.01023100  0.59716900  0.76865700  1
  C  C238  1  0.99825700  0.60986000  0.83640600  1
  C  C239  1  0.98264900  0.60504300  0.12869100  1
  C  C240  1  0.95127200  0.58786500  0.16234300  1
  C  C241  1  0.93929700  0.57520700  0.23012100  1
  C  C242  1  0.95842300  0.58007800  0.26480900  1
  C  C243  1  0.98976900  0.59716900  0.23134200  1
  C  C244  1  0.00174300  0.60986000  0.16359300  1
  C  C245  1  0.51735100  0.10504300  0.87130900  1
  C  C246  1  0.54872800  0.08786500  0.83765600  1
  C  C247  1  0.56070400  0.07520700  0.76987900  1
  C  C248  1  0.54157700  0.08007800  0.73519000  1
  C  C249  1  0.51023100  0.09716900  0.76865700  1
  C  C250  1  0.49825700  0.10986000  0.83640600  1
  C  C251  1  0.48264900  0.10504300  0.12869100  1
  C  C252  1  0.45127200  0.08786500  0.16234300  1
  C  C253  1  0.43929700  0.07520700  0.23012100  1
  C  C254  1  0.45842300  0.08007800  0.26480900  1
  C  C255  1  0.48976900  0.09716900  0.23134200  1
  C  C256  1  0.50174300  0.10986000  0.16359300  1
  O  O1  1  0.04997500  0.53016600  0.46221700  1
  O  O2  1  0.95002600  0.53016600  0.53778200  1
  O  O3  1  0.54997500  0.03016600  0.46221700  1
  O  O4  1  0.45002600  0.03016600  0.53778200  1
  O  O5  1  0.04868500  0.47294300  0.42917400  1
  O  O6  1  0.95131600  0.47294300  0.57082600  1
  O  O7  1  0.54868500  0.97294300  0.42917400  1
  O  O8  1  0.45131600  0.97294300  0.57082600  1
  O  O9  1  0.99374500  0.53016900  0.59587200  1
  O  O10  1  0.00625500  0.53016900  0.40412700  1
  O  O11  1  0.49374500  0.03016900  0.59587200  1
  O  O12  1  0.50625500  0.03016900  0.40412700  1
  O  O13  1  0.01289100  0.47293600  0.57474100  1
  O  O14  1  0.98710900  0.47293600  0.42525900  1
  O  O15  1  0.51289100  0.97293600  0.57474100  1
  O  O16  1  0.48710900  0.97293600  0.42525900  1
  O  O17  1  0.97089300  0.45114800  0.04248600  1
  O  O18  1  0.02910700  0.45114800  0.95751400  1
  O  O19  1  0.47089300  0.95114800  0.04248600  1
  O  O20  1  0.52910700  0.95114800  0.95751400  1
  O  O21  1  0.97481800  0.49074600  0.93274700  1
  O  O22  1  0.02518200  0.49074600  0.06725300  1
  O  O23  1  0.47481800  0.99074600  0.93274700  1
  O  O24  1  0.52518200  0.99074600  0.06725300  1
  O  O25  1  0.03174900  0.51022400  0.88379700  1
  O  O26  1  0.96825100  0.51022400  0.11620200  1
  O  O27  1  0.53174900  0.01022400  0.88379700  1
  O  O28  1  0.46825100  0.01022400  0.11620200  1
  O  O29  1  0.97216200  0.55011200  0.00634100  1
  O  O30  1  0.02783800  0.55011200  0.99365900  1
  O  O31  1  0.47216200  0.05011200  0.00634100  1
  O  O32  1  0.52783800  0.05011200  0.99365900  1
  O  O33  1  0.49019600  0.45092700  0.06075300  1
  O  O34  1  0.50980400  0.45092700  0.93924700  1
  O  O35  1  0.99019600  0.95092700  0.06075300  1
  O  O36  1  0.00980400  0.95092700  0.93924700  1
  O  O37  1  0.45031700  0.50997000  0.09937900  1
  O  O38  1  0.54968300  0.50997000  0.90062100  1
  O  O39  1  0.95031700  0.00997000  0.09937900  1
  O  O40  1  0.04968300  0.00997000  0.90062100  1
  O  O41  1  0.45072700  0.49090500  0.99634400  1
  O  O42  1  0.54927300  0.49090500  0.00365600  1
  O  O43  1  0.95072700  0.99090500  0.99634400  1
  O  O44  1  0.04927300  0.99090500  0.00365600  1
  O  O45  1  0.50936000  0.54994400  0.04225100  1
  O  O46  1  0.49064100  0.54994400  0.95774900  1
  O  O47  1  0.00936000  0.04994400  0.04225100  1
  O  O48  1  0.99064100  0.04994400  0.95774900  1
  F  F1  1  0.84935700  0.66427100  0.23751800  1
  F  F2  1  0.15064300  0.66427100  0.76248200  1
  F  F3  1  0.34935700  0.16427100  0.23751800  1
  F  F4  1  0.65064300  0.16427100  0.76248200  1
  F  F5  1  0.05380800  0.56849600  0.66786200  1
  F  F6  1  0.94619200  0.56849600  0.33213800  1
  F  F7  1  0.55380800  0.06849600  0.66786200  1
  F  F8  1  0.44619200  0.06849600  0.33213800  1
