# generated using pymatgen
data_V2H34(C8O3)5
_symmetry_space_group_name_H-M   'P 1'
_cell_length_a   21.87390000
_cell_length_b   6.81800000
_cell_length_c   19.67219900
_cell_angle_alpha   90.00000000
_cell_angle_beta   100.39908600
_cell_angle_gamma   90.00000000
_symmetry_Int_Tables_number   1
_chemical_formula_structural   V2H34(C8O3)5
_chemical_formula_sum   'V4 H68 C80 O30'
_cell_volume   2885.64779717
_cell_formula_units_Z   2
loop_
 _symmetry_equiv_pos_site_id
 _symmetry_equiv_pos_as_xyz
  1  'x, y, z'
loop_
 _atom_site_type_symbol
 _atom_site_label
 _atom_site_symmetry_multiplicity
 _atom_site_fract_x
 _atom_site_fract_y
 _atom_site_fract_z
 _atom_site_occupancy
  V  V1  1  0.48874800  0.24912100  0.49506900  1
  V  V2  1  0.51125200  0.74912100  0.50493200  1
  V  V3  1  0.01154100  0.73686100  0.00482400  1
  V  V4  1  0.98845900  0.23686000  0.99517600  1
  H  H1  1  0.76256700  0.65408200  0.61977200  1
  H  H2  1  0.23743300  0.15408000  0.38022900  1
  H  H3  1  0.81702400  0.12014300  0.85026700  1
  H  H4  1  0.18297600  0.62014100  0.14973400  1
  H  H5  1  0.55958800  0.28974000  0.70620100  1
  H  H6  1  0.44041200  0.78974000  0.29379900  1
  H  H7  1  0.73447500  0.22814500  0.83581700  1
  H  H8  1  0.26552500  0.72814500  0.16418300  1
  H  H9  1  0.63372700  0.37995900  0.81022600  1
  H  H10  1  0.36627300  0.87995900  0.18977400  1
  H  H11  1  0.66090400  0.80879100  0.59627100  1
  H  H12  1  0.33909600  0.30879100  0.40372900  1
  H  H13  1  0.84519200  0.16389400  0.30321600  1
  H  H14  1  0.15480800  0.66389400  0.69678400  1
  H  H15  1  0.79032000  0.84995100  0.36351100  1
  H  H16  1  0.20968000  0.34995000  0.63648900  1
  H  H17  1  0.77235600  0.64415000  0.23695700  1
  H  H18  1  0.22764400  0.14415000  0.76304300  1
  H  H19  1  0.88560600  0.47823600  0.82182900  1
  H  H20  1  0.95755100  0.50439900  0.88302700  1
  H  H21  1  0.01509800  0.34251100  0.80160900  1
  H  H22  1  0.95219100  0.18736500  0.81804600  1
  H  H23  1  0.94446600  0.32354400  0.73790700  1
  H  H24  1  0.11439400  0.97823600  0.17817100  1
  H  H25  1  0.04244900  0.00440000  0.11697300  1
  H  H26  1  0.98490200  0.84251100  0.19839100  1
  H  H27  1  0.04780900  0.68736600  0.18195400  1
  H  H28  1  0.05553400  0.82354400  0.26209300  1
  H  H29  1  0.78931800  0.48777900  0.34356900  1
  H  H30  1  0.74625800  0.27544700  0.36403600  1
  H  H31  1  0.64966500  0.47346800  0.34865800  1
  H  H32  1  0.70982700  0.57893300  0.41373200  1
  H  H33  1  0.69240500  0.68650500  0.32824600  1
  H  H34  1  0.21068200  0.98777800  0.65643100  1
  H  H35  1  0.25374200  0.77544600  0.63596400  1
  H  H36  1  0.35033500  0.97346800  0.65134200  1
  H  H37  1  0.29017400  0.07893200  0.58626800  1
  H  H38  1  0.30759500  0.18650500  0.67175300  1
  H  H39  1  0.64449100  0.25451400  0.18449200  1
  H  H40  1  0.61370400  0.08039300  0.11732800  1
  H  H41  1  0.62755100  0.32653100  0.02806500  1
  H  H42  1  0.57793700  0.41903400  0.08520300  1
  H  H43  1  0.65792400  0.49998300  0.09545000  1
  H  H44  1  0.35550900  0.75451400  0.81550900  1
  H  H45  1  0.38629600  0.58039300  0.88267200  1
  H  H46  1  0.37244900  0.82653000  0.97193600  1
  H  H47  1  0.42206300  0.91903300  0.91479700  1
  H  H48  1  0.34207600  0.99998300  0.90455000  1
  H  H49  1  0.60529200  0.03524700  0.23507300  1
  H  H50  1  0.60691200  0.80155000  0.27945200  1
  H  H51  1  0.53216600  0.66571200  0.18055700  1
  H  H52  1  0.50094900  0.88049900  0.21632700  1
  H  H53  1  0.53069700  0.89925400  0.13641100  1
  H  H54  1  0.39470900  0.53524700  0.76492700  1
  H  H55  1  0.39308700  0.30154900  0.72054700  1
  H  H56  1  0.46783300  0.16570900  0.81944300  1
  H  H57  1  0.49905100  0.38049600  0.78367200  1
  H  H58  1  0.46930300  0.39925200  0.86358900  1
  H  H59  1  0.78172500  0.47588500  0.70458000  1
  H  H60  1  0.85060500  0.32956700  0.73381800  1
  H  H61  1  0.85526100  0.24455600  0.61211800  1
  H  H62  1  0.78170800  0.17299100  0.63459700  1
  H  H63  1  0.78637800  0.39047000  0.58295800  1
  H  H64  1  0.21827500  0.97588600  0.29541900  1
  H  H65  1  0.14939400  0.82956700  0.26618200  1
  H  H66  1  0.14474000  0.74455600  0.38788200  1
  H  H67  1  0.21829200  0.67299200  0.36540300  1
  H  H68  1  0.21362200  0.89046900  0.41704200  1
  C  C1  1  0.42424200  0.52884200  0.58013700  1
  C  C2  1  0.57575800  0.02884400  0.41986300  1
  C  C3  1  0.42587300  0.53712600  0.38946900  1
  C  C4  1  0.57412700  0.03712500  0.61053200  1
  C  C5  1  0.85010700  0.72138200  0.72461800  1
  C  C6  1  0.14989200  0.22138300  0.27538200  1
  C  C7  1  0.88133500  0.91440400  0.82590200  1
  C  C8  1  0.11866500  0.41440400  0.17409800  1
  C  C9  1  0.60419100  0.21714800  0.71779100  1
  C  C10  1  0.39580900  0.71714600  0.28220900  1
  C  C11  1  0.64588900  0.26860500  0.77589300  1
  C  C12  1  0.35411000  0.76860500  0.22410700  1
  C  C13  1  0.70350100  0.18144800  0.78993100  1
  C  C14  1  0.29649900  0.68144800  0.21006800  1
  C  C15  1  0.72012500  0.04102300  0.74558100  1
  C  C16  1  0.27987500  0.54102500  0.25441900  1
  C  C17  1  0.67688200  0.98514100  0.68794300  1
  C  C18  1  0.32311800  0.48514000  0.31205700  1
  C  C19  1  0.77930200  0.95677800  0.75752800  1
  C  C20  1  0.22069800  0.45678100  0.24247100  1
  C  C21  1  0.79331400  0.81452200  0.71255700  1
  C  C22  1  0.20668600  0.31452400  0.28744300  1
  C  C23  1  0.75062000  0.76272900  0.65516800  1
  C  C24  1  0.24938000  0.26273000  0.34483200  1
  C  C25  1  0.69295800  0.84898100  0.64240000  1
  C  C26  1  0.30704200  0.34898200  0.35760100  1
  C  C27  1  0.82480000  0.01035800  0.81355600  1
  C  C28  1  0.17520000  0.51035900  0.18644400  1
  C  C29  1  0.89340200  0.76770800  0.78211000  1
  C  C30  1  0.10659800  0.26770700  0.21789000  1
  C  C31  1  0.61871600  0.07299100  0.67437400  1
  C  C32  1  0.38128400  0.57299000  0.32562600  1
  C  C33  1  0.77206200  0.91454100  0.31211400  1
  C  C34  1  0.22793800  0.41454100  0.68788600  1
  C  C35  1  0.80252000  0.08445700  0.27908100  1
  C  C36  1  0.19748000  0.58445700  0.72091900  1
  C  C37  1  0.87841500  0.95007400  0.12618000  1
  C  C38  1  0.12158500  0.45007600  0.87382000  1
  C  C39  1  0.62154700  0.03573700  0.37388300  1
  C  C40  1  0.37845300  0.53573900  0.62611700  1
  C  C41  1  0.76309300  0.80243900  0.24322400  1
  C  C42  1  0.23690700  0.30243900  0.75677600  1
  C  C43  1  0.79285900  0.97276900  0.21053500  1
  C  C44  1  0.20714100  0.47276900  0.78946500  1
  C  C45  1  0.70026200  0.90162400  0.22310200  1
  C  C46  1  0.29973800  0.40162500  0.77689800  1
  C  C47  1  0.70825500  0.01066300  0.29102300  1
  C  C48  1  0.29174500  0.51066300  0.70897700  1
  C  C49  1  0.72970400  0.06737300  0.19061300  1
  C  C50  1  0.27029600  0.56737300  0.80938700  1
  C  C51  1  0.73854700  0.17567100  0.25808900  1
  C  C52  1  0.26145300  0.67567100  0.74191100  1
  C  C53  1  0.83995700  0.95629900  0.16426000  1
  C  C54  1  0.16004200  0.45629800  0.83574000  1
  C  C55  1  0.66035000  0.02867700  0.33624400  1
  C  C56  1  0.33964900  0.52867600  0.66375600  1
  C  C57  1  0.07369500  0.44942500  0.11072400  1
  C  C58  1  0.92630400  0.94942500  0.88927600  1
  C  C59  1  0.07599900  0.45795300  0.92003200  1
  C  C60  1  0.92400100  0.95795400  0.07996800  1
  C  C61  1  0.93659200  0.49761500  0.82738000  1
  C  C62  1  0.96387400  0.32628300  0.79401100  1
  C  C63  1  0.06340800  0.99761500  0.17262000  1
  C  C64  1  0.03612600  0.82628400  0.20598900  1
  C  C65  1  0.74328700  0.41454700  0.33439800  1
  C  C66  1  0.69560400  0.54725500  0.35781900  1
  C  C67  1  0.25671200  0.91454500  0.66560100  1
  C  C68  1  0.30439600  0.04725500  0.64218000  1
  C  C69  1  0.64579300  0.20597800  0.13096800  1
  C  C70  1  0.62598000  0.37412200  0.08162700  1
  C  C71  1  0.35420700  0.70597700  0.86903200  1
  C  C72  1  0.37402000  0.87412100  0.91837400  1
  C  C73  1  0.60076900  0.87412400  0.22822000  1
  C  C74  1  0.53687300  0.82671900  0.18766000  1
  C  C75  1  0.39923100  0.37412400  0.77178000  1
  C  C76  1  0.46312700  0.32671600  0.81233900  1
  C  C77  1  0.82576800  0.42131000  0.69106900  1
  C  C78  1  0.81130500  0.29923900  0.62583100  1
  C  C79  1  0.17423200  0.92130900  0.30893100  1
  C  C80  1  0.18869400  0.79923800  0.37417000  1
  O  O1  1  0.45204600  0.70014000  0.41856700  1
  O  O2  1  0.54795500  0.20014200  0.58143200  1
  O  O3  1  0.43044700  0.35277800  0.55210500  1
  O  O4  1  0.56955300  0.85277900  0.44789500  1
  O  O5  1  0.43125800  0.35387000  0.41391000  1
  O  O6  1  0.56874300  0.85386900  0.58609000  1
  O  O7  1  0.54946300  0.19908800  0.43408500  1
  O  O8  1  0.45053700  0.69908600  0.56591500  1
  O  O9  1  0.53902100  0.52038900  0.51056900  1
  O  O10  1  0.46097800  0.02039100  0.48943100  1
  O  O11  1  0.04938000  0.28833200  0.93433300  1
  O  O12  1  0.95062000  0.78833400  0.06566700  1
  O  O13  1  0.06904900  0.63241400  0.08602200  1
  O  O14  1  0.93095100  0.13241400  0.91397800  1
  O  O15  1  0.07010900  0.63426600  0.94794200  1
  O  O16  1  0.92989000  0.13426900  0.05205800  1
  O  O17  1  0.95241800  0.78641800  0.91837700  1
  O  O18  1  0.04758300  0.28641600  0.08162200  1
  O  O19  1  0.96096500  0.46576400  0.98939200  1
  O  O20  1  0.03903300  0.96576500  0.01060900  1
  O  O21  1  0.94903600  0.67119300  0.79499600  1
  O  O22  1  0.05096300  0.17119300  0.20500400  1
  O  O23  1  0.72536300  0.37427900  0.26414700  1
  O  O24  1  0.27463600  0.87427900  0.73585300  1
  O  O25  1  0.70610400  0.14910100  0.12626600  1
  O  O26  1  0.29389500  0.64910200  0.87373400  1
  O  O27  1  0.64590600  0.80653900  0.19215900  1
  O  O28  1  0.35409400  0.30654000  0.80784100  1
  O  O29  1  0.86295700  0.58005500  0.67999100  1
  O  O30  1  0.13704200  0.08005300  0.32001000  1
