# generated using pymatgen
data_Zn2H33C59N7O11
_symmetry_space_group_name_H-M   'P 1'
_cell_length_a   13.37793000
_cell_length_b   16.52023200
_cell_length_c   16.68606500
_cell_angle_alpha   90.06413900
_cell_angle_beta   98.96248400
_cell_angle_gamma   90.72309100
_symmetry_Int_Tables_number   1
_chemical_formula_structural   Zn2H33C59N7O11
_chemical_formula_sum   'Zn2 H33 C59 N7 O11'
_cell_volume   3642.39597603
_cell_formula_units_Z   1
loop_
 _symmetry_equiv_pos_site_id
 _symmetry_equiv_pos_as_xyz
  1  'x, y, z'
loop_
 _atom_site_type_symbol
 _atom_site_label
 _atom_site_symmetry_multiplicity
 _atom_site_fract_x
 _atom_site_fract_y
 _atom_site_fract_z
 _atom_site_occupancy
  Zn  Zn1  1  0.11241800  0.49654400  0.50815900  1
  Zn  Zn2  1  0.88723800  0.49828800  0.48961200  1
  H  H1  1  0.09023300  0.92259500  0.72553200  1
  H  H2  1  0.98355300  0.30741100  0.92004600  1
  H  H3  1  0.97749500  0.30658400  0.07611200  1
  H  H4  1  0.90788300  0.07171800  0.27435400  1
  H  H5  1  0.91629700  0.91284900  0.27460900  1
  H  H6  1  0.00707800  0.68652300  0.07681600  1
  H  H7  1  0.01451100  0.68742900  0.92086100  1
  H  H8  1  0.08059700  0.08169500  0.72489100  1
  H  H9  1  0.03810000  0.99882800  0.06963200  1
  H  H10  1  0.95207400  0.99497100  0.92644400  1
  H  H11  1  0.17747700  0.77368900  0.81596100  1
  H  H12  1  0.85471200  0.68581900  0.65528800  1
  H  H13  1  0.85647500  0.78686900  0.76127900  1
  H  H14  1  0.15821500  0.23605200  0.83024400  1
  H  H15  1  0.84754400  0.29868100  0.64337600  1
  H  H16  1  0.84400700  0.19699700  0.74814400  1
  H  H17  1  0.15359400  0.78785100  0.23678600  1
  H  H18  1  0.15455000  0.68614700  0.34229200  1
  H  H19  1  0.83174500  0.66474700  0.28534800  1
  H  H20  1  0.83292000  0.76648100  0.17929100  1
  H  H21  1  0.81784100  0.21150200  0.19265300  1
  H  H22  1  0.14401900  0.32035800  0.32907600  1
  H  H23  1  0.13980300  0.21824300  0.22391500  1
  H  H24  1  0.17786100  0.67222200  0.70888700  1
  H  H25  1  0.82008500  0.31327700  0.29954500  1
  H  H26  1  0.41924700  0.30009600  0.51627100  1
  H  H27  1  0.57344300  0.63390500  0.48589300  1
  H  H28  1  0.42348400  0.63266400  0.50465700  1
  H  H29  1  0.74134300  0.37349300  0.48894100  1
  H  H30  1  0.24894700  0.62243100  0.51292600  1
  H  H31  1  0.18626700  0.39109800  0.76560000  1
  H  H32  1  0.73660500  0.66264000  0.42090400  1
  H  H33  1  0.23999600  0.33148000  0.46587600  1
  C  C1  1  0.98408300  0.25372900  0.95709300  1
  C  C2  1  0.98162800  0.25333200  0.03911400  1
  C  C3  1  0.98354300  0.17304700  0.06240700  1
  C  C4  1  0.98890600  0.17371900  0.93386500  1
  C  C5  1  0.97913800  0.14744200  0.13793100  1
  C  C6  1  0.97223900  0.06118600  0.16039200  1
  C  C7  1  0.93587000  0.03517700  0.22911300  1
  C  C8  1  0.94032000  0.95206800  0.22924800  1
  C  C9  1  0.97940500  0.92999300  0.16065000  1
  C  C10  1  0.99469200  0.84483100  0.13835500  1
  C  C11  1  0.00312900  0.82025800  0.06318900  1
  C  C12  1  0.00758100  0.74022600  0.03990700  1
  C  C13  1  0.01076200  0.74065500  0.95797400  1
  C  C14  1  0.00959100  0.82095900  0.93482100  1
  C  C15  1  0.01474000  0.84671300  0.85949400  1
  C  C16  1  0.02128100  0.93296500  0.83724800  1
  C  C17  1  0.05997800  0.95913400  0.76964200  1
  C  C18  1  0.05485900  0.04221600  0.76930700  1
  C  C19  1  0.01304400  0.06403500  0.83667800  1
  C  C20  1  0.99714900  0.14911200  0.85868000  1
  C  C21  1  0.10683000  0.75422900  0.78023000  1
  C  C22  1  0.10679500  0.69711000  0.71962800  1
  C  C23  1  0.01637800  0.67148200  0.67435800  1
  C  C24  1  0.92654500  0.70426200  0.68975400  1
  C  C25  1  0.92699800  0.76164400  0.74963400  1
  C  C26  1  0.01676500  0.78643300  0.79530600  1
  C  C27  1  0.09023200  0.25004600  0.78880300  1
  C  C28  1  0.09359300  0.30761800  0.72939000  1
  C  C29  1  0.00624200  0.32624100  0.67631000  1
  C  C30  1  0.91670600  0.28605900  0.68391500  1
  C  C31  1  0.91421600  0.22819100  0.74297200  1
  C  C32  1  0.00069800  0.21039900  0.79577600  1
  C  C33  1  0.08303300  0.76059900  0.24755500  1
  C  C34  1  0.08309800  0.70293400  0.30711200  1
  C  C35  1  0.99305100  0.66802500  0.32157500  1
  C  C36  1  0.90301900  0.69130000  0.27545500  1
  C  C37  1  0.90336900  0.74862200  0.21537500  1
  C  C38  1  0.99339700  0.78348100  0.20152700  1
  C  C39  1  0.88932300  0.23536500  0.22324600  1
  C  C40  1  0.89090600  0.29287300  0.28365400  1
  C  C41  1  0.98224200  0.32394300  0.32266800  1
  C  C42  1  0.07153000  0.29684000  0.30048300  1
  C  C43  1  0.06965400  0.23907600  0.24077200  1
  C  C44  1  0.97884800  0.20814000  0.20203500  1
  C  C45  1  0.01372900  0.60921300  0.61124900  1
  C  C46  1  0.00574200  0.38798400  0.61270000  1
  C  C47  1  0.98575600  0.38573500  0.38640300  1
  C  C48  1  0.99401500  0.60667800  0.38516500  1
  C  C49  1  0.70293800  0.43075700  0.48711800  1
  C  C50  1  0.70699200  0.57173900  0.48084000  1
  C  C51  1  0.60563300  0.57458100  0.48677500  1
  C  C52  1  0.55109300  0.50392600  0.49518800  1
  C  C53  1  0.60146200  0.43152400  0.49429400  1
  C  C54  1  0.39268500  0.57253800  0.50758800  1
  C  C55  1  0.44885600  0.50286400  0.50448500  1
  C  C56  1  0.40068800  0.42916200  0.51112600  1
  C  C57  1  0.45478800  0.35840300  0.51043900  1
  C  C58  1  0.29142000  0.56724800  0.51323700  1
  C  C59  1  0.29820100  0.42614600  0.51699200  1
  N  N1  1  0.98795000  0.12454800  0.99810800  1
  N  N2  1  0.00051000  0.99687000  0.11958200  1
  N  N3  1  0.00475200  0.86943800  0.99904400  1
  N  N4  1  0.99105000  0.99708200  0.87725100  1
  N  N5  1  0.75492000  0.50034300  0.48171400  1
  N  N6  1  0.55305900  0.36091500  0.50219400  1
  N  N7  1  0.24477300  0.49500200  0.51619600  1
  O  O1  1  0.92492900  0.58148000  0.57779200  1
  O  O2  1  0.09863400  0.58333500  0.59067400  1
  O  O3  1  0.09201000  0.41517200  0.59425000  1
  O  O4  1  0.91766100  0.41334100  0.57623400  1
  O  O5  1  0.07485600  0.41356600  0.41968400  1
  O  O6  1  0.90078900  0.41129000  0.40729700  1
  O  O7  1  0.90769400  0.57932600  0.40319400  1
  O  O8  1  0.08196100  0.58160300  0.42170600  1
  O  O9  1  0.18327600  0.34671900  0.72533400  1
  O  O10  1  0.75900200  0.64289600  0.47673800  1
  O  O11  1  0.25067600  0.35300000  0.52196500  1
