# generated using pymatgen
data_VH6(C4O3)2
_symmetry_space_group_name_H-M   'P 1'
_cell_length_a   13.98559200
_cell_length_b   16.06108500
_cell_length_c   6.82253000
_cell_angle_alpha   90.00000000
_cell_angle_beta   99.59430700
_cell_angle_gamma   90.00000000
_symmetry_Int_Tables_number   1
_chemical_formula_structural   VH6(C4O3)2
_chemical_formula_sum   'V4 H24 C32 O24'
_cell_volume   1511.06676930
_cell_formula_units_Z   4
loop_
 _symmetry_equiv_pos_site_id
 _symmetry_equiv_pos_as_xyz
  1  'x, y, z'
loop_
 _atom_site_type_symbol
 _atom_site_label
 _atom_site_symmetry_multiplicity
 _atom_site_fract_x
 _atom_site_fract_y
 _atom_site_fract_z
 _atom_site_occupancy
  V  V1  1  0.76002700  0.74652900  0.11986200  1
  V  V2  1  0.23997300  0.24652900  0.88013800  1
  V  V3  1  0.73675200  0.74629400  0.61186300  1
  V  V4  1  0.26324800  0.24629400  0.38813700  1
  H  H1  1  0.95840900  0.93383800  0.16803200  1
  H  H2  1  0.04027400  0.05985700  0.83236700  1
  H  H3  1  0.04159200  0.43383800  0.83196800  1
  H  H4  1  0.95972600  0.55985700  0.16763400  1
  H  H5  1  0.07554400  0.04913900  0.22449200  1
  H  H6  1  0.92304900  0.94461400  0.77584900  1
  H  H7  1  0.92445600  0.54913900  0.77550800  1
  H  H8  1  0.07695200  0.44461400  0.22415100  1
  H  H9  1  0.46112800  0.03140600  0.29794600  1
  H  H10  1  0.52021700  0.94661400  0.69889300  1
  H  H11  1  0.53887200  0.53140600  0.70205400  1
  H  H12  1  0.47978300  0.44661400  0.30110700  1
  H  H13  1  0.48128000  0.06249700  0.68743300  1
  H  H14  1  0.45010900  0.14977100  0.82737100  1
  H  H15  1  0.33888000  0.00616300  0.70161800  1
  H  H16  1  0.59152500  0.98726100  0.32170700  1
  H  H17  1  0.68049200  0.94401500  0.19012100  1
  H  H18  1  0.50818900  0.87005700  0.27611200  1
  H  H19  1  0.51872000  0.56249700  0.31256800  1
  H  H20  1  0.54989100  0.64977100  0.17263000  1
  H  H21  1  0.66112000  0.50616300  0.29838200  1
  H  H22  1  0.40847500  0.48726100  0.67829300  1
  H  H23  1  0.31950800  0.44401500  0.80987900  1
  H  H24  1  0.49181100  0.37005700  0.72388800  1
  C  C1  1  0.86412500  0.86383500  0.43577300  1
  C  C2  1  0.13477000  0.12969700  0.56462200  1
  C  C3  1  0.13587500  0.36383500  0.56422800  1
  C  C4  1  0.86523000  0.62969700  0.43537900  1
  C  C5  1  0.06500900  0.06153300  0.53183100  1
  C  C6  1  0.93361400  0.93220200  0.46852100  1
  C  C7  1  0.93499100  0.56153300  0.46816900  1
  C  C8  1  0.06638600  0.43220200  0.53147900  1
  C  C9  1  0.97634600  0.96152000  0.31396300  1
  C  C10  1  0.02226900  0.03222500  0.68639500  1
  C  C11  1  0.02365400  0.46152000  0.68603700  1
  C  C12  1  0.97773100  0.53222500  0.31360500  1
  C  C13  1  0.63181600  0.62949200  0.85717800  1
  C  C14  1  0.36858200  0.36296400  0.14276600  1
  C  C15  1  0.36818400  0.12949200  0.14282200  1
  C  C16  1  0.63141800  0.86296400  0.85723400  1
  C  C17  1  0.04199900  0.02618500  0.34565100  1
  C  C18  1  0.95655700  0.96759700  0.65466900  1
  C  C19  1  0.95800100  0.52618500  0.65434900  1
  C  C20  1  0.04344300  0.46759700  0.34533100  1
  C  C21  1  0.56047100  0.93038700  0.84321900  1
  C  C22  1  0.43848600  0.06157200  0.15606800  1
  C  C23  1  0.43952900  0.43038700  0.15678100  1
  C  C24  1  0.56151400  0.56157200  0.84393200  1
  C  C25  1  0.54498800  0.96963200  0.00684400  1
  C  C26  1  0.47333700  0.03758500  0.99503500  1
  C  C27  1  0.45501200  0.46963200  0.99315700  1
  C  C28  1  0.52666300  0.53758500  0.00496500  1
  C  C29  1  0.43944300  0.08186300  0.80370400  1
  C  C30  1  0.60233300  0.94373800  0.20166800  1
  C  C31  1  0.56055700  0.58186300  0.19629600  1
  C  C32  1  0.39766700  0.44373800  0.79833200  1
  O  O1  1  0.83084700  0.65571800  0.59211000  1
  O  O2  1  0.17062100  0.33807600  0.40749300  1
  O  O3  1  0.16915300  0.15571800  0.40789100  1
  O  O4  1  0.82937900  0.83807600  0.59250800  1
  O  O5  1  0.84876300  0.83071400  0.25677000  1
  O  O6  1  0.15138500  0.16204100  0.74417000  1
  O  O7  1  0.15123700  0.33071400  0.74323000  1
  O  O8  1  0.84861500  0.66204100  0.25583100  1
  O  O9  1  0.66685100  0.83640900  0.03680300  1
  O  O10  1  0.33373800  0.15715800  0.96390200  1
  O  O11  1  0.33314900  0.33640900  0.96319800  1
  O  O12  1  0.66626200  0.65715800  0.03609900  1
  O  O13  1  0.68978000  0.74624100  0.37026900  1
  O  O14  1  0.31022000  0.24624100  0.62973200  1
  O  O15  1  0.64896400  0.65956000  0.68749700  1
  O  O16  1  0.35295000  0.33136300  0.31217200  1
  O  O17  1  0.35103700  0.15956000  0.31250400  1
  O  O18  1  0.64705000  0.83136300  0.68782900  1
  O  O19  1  0.80701700  0.74654500  0.91047900  1
  O  O20  1  0.19298300  0.24654500  0.08952100  1
  O  O21  1  0.34123800  0.06561700  0.74041700  1
  O  O22  1  0.57508400  0.86363300  0.24851800  1
  O  O23  1  0.65876200  0.56561700  0.25958300  1
  O  O24  1  0.42491600  0.36363300  0.75148300  1
