# generated using pymatgen
data_CuH11C24N(ClO2)2
_symmetry_space_group_name_H-M   'P 1'
_cell_length_a   8.83534700
_cell_length_b   16.04153500
_cell_length_c   14.63358800
_cell_angle_alpha   90.00932300
_cell_angle_beta   97.89342700
_cell_angle_gamma   89.99046200
_symmetry_Int_Tables_number   1
_chemical_formula_structural   CuH11C24N(ClO2)2
_chemical_formula_sum   'Cu2 H22 C48 N2 Cl4 O8'
_cell_volume   2054.40416436
_cell_formula_units_Z   2
loop_
 _symmetry_equiv_pos_site_id
 _symmetry_equiv_pos_as_xyz
  1  'x, y, z'
loop_
 _atom_site_type_symbol
 _atom_site_label
 _atom_site_symmetry_multiplicity
 _atom_site_fract_x
 _atom_site_fract_y
 _atom_site_fract_z
 _atom_site_occupancy
  Cu  Cu1  1  0.50702100  0.50013000  0.59197000  1
  Cu  Cu2  1  0.50403100  0.50013900  0.40879900  1
  H  H1  1  0.98550800  0.49650400  0.39462900  1
  H  H2  1  0.02554300  0.50376400  0.60614000  1
  H  H3  1  0.72046800  0.56099000  0.10351500  1
  H  H4  1  0.29058900  0.43928200  0.89725400  1
  H  H5  1  0.72349300  0.56073300  0.93568200  1
  H  H6  1  0.28756300  0.43953800  0.06508700  1
  H  H7  1  0.33342600  0.17168700  0.62861000  1
  H  H8  1  0.37799500  0.25504400  0.76993700  1
  H  H9  1  0.75314400  0.09897000  0.87235900  1
  H  H10  1  0.71312100  0.01684500  0.72992700  1
  H  H11  1  0.33167100  0.82909500  0.34353800  1
  H  H12  1  0.37540700  0.74555600  0.20956400  1
  H  H13  1  0.75203100  0.90047300  0.16938100  1
  H  H14  1  0.71282400  0.98277000  0.30520900  1
  H  H15  1  0.67747800  0.82912000  0.65786800  1
  H  H16  1  0.63326200  0.74651800  0.79239000  1
  H  H17  1  0.25840300  0.90303600  0.83205000  1
  H  H18  1  0.29805400  0.98439400  0.69568300  1
  H  H19  1  0.67905400  0.17065400  0.37154900  1
  H  H20  1  0.63560800  0.25338100  0.22975600  1
  H  H21  1  0.25929700  0.09796200  0.12781300  1
  H  H22  1  0.29817500  0.01649900  0.27069600  1
  C  C1  1  0.50645500  0.34017400  0.50005100  1
  C  C2  1  0.50459500  0.66009500  0.50071700  1
  C  C3  1  0.21210300  0.49950900  0.47813400  1
  C  C4  1  0.79894800  0.50075900  0.52263500  1
  C  C5  1  0.04469600  0.49895200  0.46451500  1
  C  C6  1  0.96635600  0.50131600  0.53625400  1
  C  C7  1  0.50465600  0.95723600  0.58227100  1
  C  C8  1  0.50506500  0.04303700  0.41838800  1
  C  C9  1  0.50499000  0.91415600  0.50053700  1
  C  C10  1  0.50592900  0.08611500  0.50022300  1
  C  C11  1  0.50578500  0.95690200  0.41864900  1
  C  C12  1  0.50629200  0.04336600  0.58220700  1
  C  C13  1  0.50468000  0.82466900  0.50067400  1
  C  C14  1  0.50630500  0.17560100  0.50009100  1
  C  C15  1  0.50648200  0.25071900  0.50005500  1
  C  C16  1  0.50454200  0.74955100  0.50071200  1
  C  C17  1  0.62768500  0.53407600  0.96405600  1
  C  C18  1  0.38337100  0.46619600  0.03671300  1
  C  C19  1  0.50727000  0.49994400  0.90610000  1
  C  C20  1  0.50378400  0.50032900  0.09466800  1
  C  C21  1  0.38510900  0.46602100  0.94253700  1
  C  C22  1  0.62594700  0.53425100  0.05823200  1
  C  C23  1  0.50872200  0.49993300  0.80795900  1
  C  C24  1  0.50233100  0.50033800  0.19280900  1
  C  C25  1  0.52178200  0.08925600  0.66937600  1
  C  C26  1  0.42740300  0.15599300  0.68111800  1
  C  C27  1  0.45102500  0.20240400  0.76114100  1
  C  C28  1  0.56880700  0.18234500  0.82944300  1
  C  C29  1  0.66062200  0.11459600  0.81884200  1
  C  C30  1  0.63685300  0.06792700  0.73909100  1
  C  C31  1  0.52079600  0.91095400  0.33401600  1
  C  C32  1  0.42577600  0.84449500  0.30660500  1
  C  C33  1  0.44893800  0.79798400  0.23048200  1
  C  C34  1  0.56690100  0.81766600  0.18171200  1
  C  C35  1  0.65936500  0.88514600  0.20755400  1
  C  C36  1  0.63605900  0.93191500  0.28338200  1
  C  C37  1  0.48925400  0.91172400  0.66710500  1
  C  C38  1  0.58362500  0.84506300  0.69479200  1
  C  C39  1  0.56020500  0.79908200  0.77122500  1
  C  C40  1  0.44262800  0.81949300  0.82002200  1
  C  C41  1  0.35077400  0.88714300  0.79386000  1
  C  C42  1  0.37434000  0.93338300  0.71772500  1
  C  C43  1  0.49006500  0.08860000  0.33103600  1
  C  C44  1  0.58505300  0.15498500  0.31904900  1
  C  C45  1  0.56206200  0.20103200  0.23876500  1
  C  C46  1  0.44430100  0.18096300  0.17045300  1
  C  C47  1  0.35181500  0.11358500  0.18133300  1
  C  C48  1  0.37494600  0.06728100  0.26134400  1
  N  N1  1  0.50171900  0.50032000  0.27190300  1
  N  N2  1  0.50933400  0.49994900  0.72886600  1
  Cl  Cl1  1  0.60371900  0.24371600  0.92894800  1
  Cl  Cl2  1  0.60121800  0.75614700  0.08798000  1
  Cl  Cl3  1  0.40804900  0.75871400  0.91423000  1
  Cl  Cl4  1  0.41029700  0.24183800  0.07055200  1
  O  O1  1  0.50220400  0.37901000  0.57835600  1
  O  O2  1  0.50884800  0.62125900  0.42241200  1
  O  O3  1  0.51039900  0.37898000  0.42173000  1
  O  O4  1  0.50065200  0.62128900  0.57903900  1
  O  O5  1  0.28473200  0.50264000  0.56231400  1
  O  O6  1  0.72632000  0.49762800  0.43845500  1
  O  O7  1  0.28226900  0.49679200  0.40493000  1
  O  O8  1  0.72878200  0.50347700  0.59583900  1
