# generated using pymatgen
data_ZnH5C10NO4F3
_symmetry_space_group_name_H-M   'P 1'
_cell_length_a   11.22752900
_cell_length_b   10.97804300
_cell_length_c   9.77019700
_cell_angle_alpha   90.00405900
_cell_angle_beta   102.00711000
_cell_angle_gamma   89.99700900
_symmetry_Int_Tables_number   1
_chemical_formula_structural   ZnH5C10NO4F3
_chemical_formula_sum   'Zn2 H10 C20 N2 O8 F6'
_cell_volume   1177.89171613
_cell_formula_units_Z   2
loop_
 _symmetry_equiv_pos_site_id
 _symmetry_equiv_pos_as_xyz
  1  'x, y, z'
loop_
 _atom_site_type_symbol
 _atom_site_label
 _atom_site_symmetry_multiplicity
 _atom_site_fract_x
 _atom_site_fract_y
 _atom_site_fract_z
 _atom_site_occupancy
  Zn  Zn1  1  0.50124600  0.49804100  0.65586900  1
  Zn  Zn2  1  0.49897500  0.50195800  0.34419400  1
  H  H1  1  0.88603200  0.49950200  0.37497200  1
  H  H2  1  0.11418400  0.50049600  0.62509300  1
  H  H3  1  0.65868600  0.39649000  0.16694500  1
  H  H4  1  0.34153500  0.60351000  0.83311700  1
  H  H5  1  0.92057500  0.50427300  0.69461500  1
  H  H6  1  0.07964400  0.49572600  0.30544700  1
  H  H7  1  0.66040400  0.39180100  0.91627200  1
  H  H8  1  0.33981800  0.60819900  0.08379100  1
  H  H9  1  0.59708900  0.87731600  0.34434100  1
  H  H10  1  0.40313400  0.12268300  0.65572300  1
  C  C1  1  0.50529900  0.26114200  0.49850900  1
  C  C2  1  0.49492300  0.73885700  0.50155300  1
  C  C3  1  0.26191100  0.49630600  0.44386800  1
  C  C4  1  0.73831100  0.50369300  0.55619500  1
  C  C5  1  0.58796000  0.44281100  0.09347300  1
  C  C6  1  0.41226200  0.55718700  0.90659000  1
  C  C7  1  0.58890200  0.43995800  0.95256900  1
  C  C8  1  0.41131900  0.56004100  0.04749300  1
  C  C9  1  0.12847300  0.49642200  0.41353400  1
  C  C10  1  0.87174900  0.50357600  0.58652800  1
  C  C11  1  0.06685500  0.49910100  0.51649500  1
  C  C12  1  0.93336700  0.50089700  0.48356700  1
  C  C13  1  0.56142600  0.05814600  0.40788100  1
  C  C14  1  0.43879500  0.94185200  0.59218100  1
  C  C15  1  0.55415300  0.93223300  0.41189400  1
  C  C16  1  0.44606900  0.06776600  0.58816800  1
  C  C17  1  0.49493600  0.87316500  0.50334700  1
  C  C18  1  0.50528500  0.12683300  0.49671600  1
  C  C19  1  0.63447200  0.11581400  0.31240300  1
  C  C20  1  0.36574900  0.88418500  0.68765900  1
  N  N1  1  0.50095000  0.49718200  0.86065400  1
  N  N2  1  0.49927200  0.50281700  0.13940800  1
  O  O1  1  0.50439600  0.31673600  0.61754300  1
  O  O2  1  0.49582600  0.68326300  0.38251900  1
  O  O3  1  0.50195700  0.32034800  0.38126100  1
  O  O4  1  0.49826500  0.67965100  0.61880200  1
  O  O5  1  0.31991400  0.49536700  0.57490500  1
  O  O6  1  0.68030800  0.50463200  0.42515700  1
  O  O7  1  0.31751100  0.49864400  0.33830300  1
  O  O8  1  0.68271000  0.50135500  0.66175900  1
  F  F1  1  0.55709700  0.16910300  0.19973300  1
  F  F2  1  0.70395400  0.02961800  0.26170200  1
  F  F3  1  0.71277000  0.20222000  0.38464000  1
  F  F4  1  0.28745100  0.79777800  0.61542200  1
  F  F5  1  0.29626700  0.97038100  0.73835900  1
  F  F6  1  0.44312300  0.83089600  0.80032900  1
