# generated using pymatgen
data_ZnH5C15N3O8
_symmetry_space_group_name_H-M   'P 1'
_cell_length_a   14.38569300
_cell_length_b   8.54808600
_cell_length_c   15.07016600
_cell_angle_alpha   90.00000000
_cell_angle_beta   90.96930200
_cell_angle_gamma   90.00000000
_symmetry_Int_Tables_number   1
_chemical_formula_structural   ZnH5C15N3O8
_chemical_formula_sum   'Zn2 H10 C30 N6 O16'
_cell_volume   1852.91525109
_cell_formula_units_Z   2
loop_
 _symmetry_equiv_pos_site_id
 _symmetry_equiv_pos_as_xyz
  1  'x, y, z'
loop_
 _atom_site_type_symbol
 _atom_site_label
 _atom_site_symmetry_multiplicity
 _atom_site_fract_x
 _atom_site_fract_y
 _atom_site_fract_z
 _atom_site_occupancy
  Zn  Zn1  1  0.89718900  0.49939300  0.51073800  1
  Zn  Zn2  1  0.10281100  0.50018600  0.48922800  1
  H  H1  1  0.04428700  0.99970800  0.56016200  1
  H  H2  1  0.95571100  0.99987100  0.43979200  1
  H  H3  1  0.99936000  0.25040200  0.79827600  1
  H  H4  1  0.00065700  0.74918000  0.20167800  1
  H  H5  1  0.99851800  0.25076400  0.20171800  1
  H  H6  1  0.00148700  0.74882000  0.79823800  1
  H  H7  1  0.91396200  0.79772300  0.91664500  1
  H  H8  1  0.08603600  0.20187000  0.08330500  1
  H  H9  1  0.91189000  0.79668800  0.07731700  1
  H  H10  1  0.08811200  0.20289900  0.92263600  1
  C  C1  1  0.02151300  0.13934200  0.67404100  1
  C  C2  1  0.97849300  0.86023600  0.32591600  1
  C  C3  1  0.97948200  0.13916300  0.32596400  1
  C  C4  1  0.02052100  0.86042000  0.67399300  1
  C  C5  1  0.00821000  0.14013700  0.76441700  1
  C  C6  1  0.99180600  0.85944400  0.23553900  1
  C  C7  1  0.99318000  0.13995000  0.23562200  1
  C  C8  1  0.00682800  0.85963400  0.76433400  1
  C  C9  1  0.00515800  0.99995000  0.81063800  1
  C  C10  1  0.99485300  0.99963200  0.18931700  1
  C  C11  1  0.03280700  0.99979400  0.63053800  1
  C  C12  1  0.96719500  0.99978500  0.36941700  1
  C  C13  1  0.95321700  0.88564800  0.95253200  1
  C  C14  1  0.04678100  0.11394300  0.04742000  1
  C  C15  1  0.95228400  0.88480300  0.04401500  1
  C  C16  1  0.04771700  0.11478600  0.95593700  1
  C  C17  1  0.45848300  0.50111200  0.41617900  1
  C  C18  1  0.54151800  0.50133600  0.58390900  1
  C  C19  1  0.99907400  0.99880900  0.09207100  1
  C  C20  1  0.00092900  0.00077700  0.90788200  1
  C  C21  1  0.44551500  0.49963200  0.57500500  1
  C  C22  1  0.55447200  0.49887000  0.42508600  1
  C  C23  1  0.40421800  0.50043300  0.49118700  1
  C  C24  1  0.59577600  0.49985400  0.50889300  1
  C  C25  1  0.30457500  0.50052300  0.48280300  1
  C  C26  1  0.69542300  0.49931800  0.51722900  1
  C  C27  1  0.01415200  0.71831700  0.62055400  1
  C  C28  1  0.98584900  0.28126500  0.37940900  1
  C  C29  1  0.98529800  0.71823100  0.37940800  1
  C  C30  1  0.01470300  0.28134600  0.62055400  1
  N  N1  1  0.77581200  0.49900300  0.52128100  1
  N  N2  1  0.22418800  0.50058200  0.47869300  1
  N  N3  1  0.41591400  0.51170600  0.32998700  1
  N  N4  1  0.58413100  0.51211900  0.67007700  1
  N  N5  1  0.61057900  0.48769600  0.34795400  1
  N  N6  1  0.38936900  0.48926200  0.65215100  1
  O  O1  1  0.08942800  0.66942700  0.58122500  1
  O  O2  1  0.91056900  0.33015400  0.41873900  1
  O  O3  1  0.91016600  0.66872800  0.41873800  1
  O  O4  1  0.08983300  0.33085300  0.58122900  1
  O  O5  1  0.93093300  0.66280200  0.60222900  1
  O  O6  1  0.06907000  0.33677600  0.39773700  1
  O  O7  1  0.06868000  0.66338400  0.39773900  1
  O  O8  1  0.93132100  0.33619300  0.60222600  1
  O  O9  1  0.45260600  0.60063500  0.26994800  1
  O  O10  1  0.33578400  0.44640100  0.31372200  1
  O  O11  1  0.54763900  0.60154500  0.72999500  1
  O  O12  1  0.66414200  0.44645500  0.68641200  1
  O  O13  1  0.69128900  0.55593100  0.34551000  1
  O  O14  1  0.58480700  0.39702600  0.28275500  1
  O  O15  1  0.30879000  0.55796100  0.65443200  1
  O  O16  1  0.41493200  0.39883800  0.71753400  1
