# generated using pymatgen
data_CuH20C39(NO4)2
_symmetry_space_group_name_H-M   'P 1'
_cell_length_a   19.39882400
_cell_length_b   17.87894200
_cell_length_c   27.49549200
_cell_angle_alpha   90.00000000
_cell_angle_beta   90.00110100
_cell_angle_gamma   90.00000000
_symmetry_Int_Tables_number   1
_chemical_formula_structural   CuH20C39(NO4)2
_chemical_formula_sum   'Cu2 H40 C78 N4 O16'
_cell_volume   9536.27383859
_cell_formula_units_Z   2
loop_
 _symmetry_equiv_pos_site_id
 _symmetry_equiv_pos_as_xyz
  1  'x, y, z'
loop_
 _atom_site_type_symbol
 _atom_site_label
 _atom_site_symmetry_multiplicity
 _atom_site_fract_x
 _atom_site_fract_y
 _atom_site_fract_z
 _atom_site_occupancy
  Cu  Cu1  1  0.49957300  0.57493400  0.50039900  1
  Cu  Cu2  1  0.50056400  0.42541700  0.49962100  1
  H  H1  1  0.50042600  0.38219500  0.34669000  1
  H  H2  1  0.48801300  0.61721200  0.65342800  1
  H  H3  1  0.49950200  0.38327500  0.25829200  1
  H  H4  1  0.48799500  0.61581700  0.74190700  1
  H  H5  1  0.34929300  0.58978400  0.12023800  1
  H  H6  1  0.66179700  0.43797300  0.87931200  1
  H  H7  1  0.51193200  0.37897900  0.65253400  1
  H  H8  1  0.49950200  0.62183000  0.34731300  1
  H  H9  1  0.51171200  0.37880300  0.74108300  1
  H  H10  1  0.49958600  0.62175900  0.25880900  1
  H  H11  1  0.33713300  0.55529600  0.87873600  1
  H  H12  1  0.65082800  0.41435900  0.12148200  1
  H  H13  1  0.33486600  0.55686000  0.96389700  1
  H  H14  1  0.65285500  0.41144300  0.03642900  1
  H  H15  1  0.34744500  0.58989200  0.03502400  1
  H  H16  1  0.66438900  0.43928900  0.96442000  1
  H  H17  1  0.84394900  0.44652600  0.43139000  1
  H  H18  1  0.15621600  0.55363200  0.56873100  1
  H  H19  1  0.15608900  0.44543600  0.43122500  1
  H  H20  1  0.84403700  0.55508400  0.56878800  1
  H  H21  1  0.93757600  0.47131600  0.57543900  1
  H  H22  1  0.06248900  0.52909600  0.42463600  1
  H  H23  1  0.06235900  0.47076500  0.57538800  1
  H  H24  1  0.93768100  0.52942700  0.42466300  1
  H  H25  1  0.42721500  0.69372200  0.44370600  1
  H  H26  1  0.57285000  0.30676300  0.55633100  1
  H  H27  1  0.57274800  0.69331600  0.55704700  1
  H  H28  1  0.42731400  0.30704100  0.44303000  1
  H  H29  1  0.42796500  0.82974800  0.44160400  1
  H  H30  1  0.57216600  0.17071500  0.55849200  1
  H  H31  1  0.57392600  0.82959900  0.55822400  1
  H  H32  1  0.42623300  0.17077900  0.44182100  1
  H  H33  1  0.60930300  0.93307700  0.51199000  1
  H  H34  1  0.39088500  0.06732200  0.48805900  1
  H  H35  1  0.39137300  0.93213700  0.48832100  1
  H  H36  1  0.60883100  0.06819700  0.51181300  1
  H  H37  1  0.65290400  0.44564000  0.41412000  1
  H  H38  1  0.34729100  0.55500700  0.58587500  1
  H  H39  1  0.34730500  0.44267800  0.41460500  1
  H  H40  1  0.65277400  0.55740200  0.58551500  1
  C  C1  1  0.36749500  0.49940600  0.50002600  1
  C  C2  1  0.63265500  0.50093800  0.50001700  1
  C  C3  1  0.50012600  0.50157400  0.40659300  1
  C  C4  1  0.50002900  0.49874800  0.59342000  1
  C  C5  1  0.44653900  0.53284500  0.17658900  1
  C  C6  1  0.55658700  0.47529400  0.82320500  1
  C  C7  1  0.55337400  0.47241500  0.17694400  1
  C  C8  1  0.44282100  0.51833800  0.82301800  1
  C  C9  1  0.49928400  0.56915400  0.27818400  1
  C  C10  1  0.50686200  0.43116800  0.72172100  1
  C  C11  1  0.49945700  0.56897300  0.32827800  1
  C  C12  1  0.50668800  0.43148900  0.67163200  1
  C  C13  1  0.50023200  0.43531500  0.32794900  1
  C  C14  1  0.49333200  0.56437700  0.67213200  1
  C  C15  1  0.49995400  0.43569600  0.27787900  1
  C  C16  1  0.49307100  0.56379000  0.72220100  1
  C  C17  1  0.49959300  0.50256800  0.25285900  1
  C  C18  1  0.49998300  0.49725400  0.74709700  1
  C  C19  1  0.50004700  0.50167800  0.10092600  1
  C  C20  1  0.49973100  0.49772700  0.89894700  1
  C  C21  1  0.44599300  0.53259900  0.12630800  1
  C  C22  1  0.55718700  0.47538200  0.87347300  1
  C  C23  1  0.39174200  0.56356500  0.10137000  1
  C  C24  1  0.61544600  0.45440400  0.89828700  1
  C  C25  1  0.55407400  0.47153700  0.12670500  1
  C  C26  1  0.44215400  0.51912600  0.87326600  1
  C  C27  1  0.49997300  0.50200400  0.35340000  1
  C  C28  1  0.50004400  0.49817200  0.64660500  1
  C  C29  1  0.44202400  0.52371700  0.97439100  1
  C  C30  1  0.55626000  0.47165500  0.02552700  1
  C  C31  1  0.55770100  0.47446700  0.97468400  1
  C  C32  1  0.44370800  0.52878100  0.02514300  1
  C  C33  1  0.49982800  0.49864800  0.94950100  1
  C  C34  1  0.50002400  0.50074300  0.05037000  1
  C  C35  1  0.38342900  0.54229300  0.94769900  1
  C  C36  1  0.60956200  0.43969000  0.05239500  1
  C  C37  1  0.38374100  0.54019200  0.89786200  1
  C  C38  1  0.60837700  0.43989900  0.10223600  1
  C  C39  1  0.39056900  0.56201400  0.05151400  1
  C  C40  1  0.61594700  0.45408800  0.94814900  1
  C  C41  1  0.74450200  0.47122500  0.46085700  1
  C  C42  1  0.25566700  0.52919500  0.53918400  1
  C  C43  1  0.25559700  0.46898200  0.46104300  1
  C  C44  1  0.74451900  0.53124900  0.53906300  1
  C  C45  1  0.81590000  0.47106100  0.46132200  1
  C  C46  1  0.18425400  0.52924000  0.53876100  1
  C  C47  1  0.18416500  0.46946400  0.46131400  1
  C  C48  1  0.81595200  0.53090800  0.53874900  1
  C  C49  1  0.85201100  0.50084400  0.50006400  1
  C  C50  1  0.14811100  0.49949700  0.50001100  1
  C  C51  1  0.70838300  0.50134700  0.49993100  1
  C  C52  1  0.29177200  0.49897900  0.50013600  1
  C  C53  1  0.96440700  0.48515200  0.54220600  1
  C  C54  1  0.03567600  0.51523200  0.45786900  1
  C  C55  1  0.03561300  0.48481300  0.54216600  1
  C  C56  1  0.96446500  0.51549300  0.45789800  1
  C  C57  1  0.07198800  0.49984200  0.50000400  1
  C  C58  1  0.92810900  0.50052400  0.50007300  1
  C  C59  1  0.45941300  0.72409000  0.46897700  1
  C  C60  1  0.54070600  0.27632800  0.53107000  1
  C  C61  1  0.54056500  0.72392900  0.53188200  1
  C  C62  1  0.45953500  0.27643600  0.46818200  1
  C  C63  1  0.45936600  0.80109200  0.46816200  1
  C  C64  1  0.54077400  0.19932000  0.53190400  1
  C  C65  1  0.54167600  0.80100500  0.53213000  1
  C  C66  1  0.45846200  0.19937100  0.46792900  1
  C  C67  1  0.50050800  0.84044800  0.50016900  1
  C  C68  1  0.49966700  0.15994500  0.49988900  1
  C  C69  1  0.56081900  0.96192000  0.50736600  1
  C  C70  1  0.43939300  0.03847100  0.49264800  1
  C  C71  1  0.43967900  0.96142800  0.49277500  1
  C  C72  1  0.56053600  0.03895000  0.50726700  1
  C  C73  1  0.49982800  0.07781700  0.49991700  1
  C  C74  1  0.50038500  0.92257000  0.50009900  1
  C  C75  1  0.70825900  0.44114700  0.41797200  1
  C  C76  1  0.29192200  0.55946400  0.58201100  1
  C  C77  1  0.29188600  0.43854900  0.41830600  1
  C  C78  1  0.70819400  0.56152200  0.58184500  1
  N  N1  1  0.49987300  0.50276100  0.20105700  1
  N  N2  1  0.49978100  0.49683800  0.79886300  1
  N  N3  1  0.49889000  0.68678100  0.50109700  1
  N  N4  1  0.50125000  0.31358800  0.49893000  1
  O  O1  1  0.39942400  0.56394000  0.49856300  1
  O  O2  1  0.60072100  0.43640700  0.50132100  1
  O  O3  1  0.59983500  0.56502200  0.49875400  1
  O  O4  1  0.40030300  0.43533300  0.50140800  1
  O  O5  1  0.49738300  0.56554400  0.42966600  1
  O  O6  1  0.50298500  0.43481500  0.57034800  1
  O  O7  1  0.49706700  0.56321400  0.57097900  1
  O  O8  1  0.50286800  0.43712000  0.42904400  1
  O  O9  1  0.39290400  0.56145200  0.20130100  1
  O  O10  1  0.61329100  0.45520200  0.79835500  1
  O  O11  1  0.38612200  0.53791000  0.79798300  1
  O  O12  1  0.60690800  0.44426600  0.20199000  1
  O  O13  1  0.74071400  0.41145400  0.38528100  1
  O  O14  1  0.25947200  0.58928500  0.61466000  1
  O  O15  1  0.25943300  0.40894000  0.38558300  1
  O  O16  1  0.74061900  0.59106900  0.61460800  1
