# generated using pymatgen
data_ZnH7C15NO5
_symmetry_space_group_name_H-M   'P 1'
_cell_length_a   6.60639200
_cell_length_b   11.36434200
_cell_length_c   14.75876300
_cell_angle_alpha   91.13047500
_cell_angle_beta   81.81367600
_cell_angle_gamma   96.08882100
_symmetry_Int_Tables_number   1
_chemical_formula_structural   ZnH7C15NO5
_chemical_formula_sum   'Zn2 H14 C30 N2 O10'
_cell_volume   1090.55808619
_cell_formula_units_Z   2
loop_
 _symmetry_equiv_pos_site_id
 _symmetry_equiv_pos_as_xyz
  1  'x, y, z'
loop_
 _atom_site_type_symbol
 _atom_site_label
 _atom_site_symmetry_multiplicity
 _atom_site_fract_x
 _atom_site_fract_y
 _atom_site_fract_z
 _atom_site_occupancy
  Zn  Zn1  1  0.51499400  0.13194000  0.50267600  1
  Zn  Zn2  1  0.48500500  0.86805900  0.49732300  1
  H  H1  1  0.72987400  0.03348600  0.21066900  1
  H  H2  1  0.27012500  0.96651300  0.78933000  1
  H  H3  1  0.44672700  0.95858000  0.20614200  1
  H  H4  1  0.55327200  0.04141900  0.79385800  1
  H  H5  1  0.64376300  0.06745700  0.09752700  1
  H  H6  1  0.35623600  0.93254200  0.90247200  1
  H  H7  1  0.51498200  0.07013200  0.95328700  1
  H  H8  1  0.48501700  0.92986700  0.04671300  1
  H  H9  1  0.17963100  0.70852600  0.44460600  1
  H  H10  1  0.82036800  0.29147300  0.55539400  1
  H  H11  1  0.86935900  0.50871900  0.56344100  1
  H  H12  1  0.13064000  0.49128000  0.43655800  1
  H  H13  1  0.88133000  0.72190900  0.49199500  1
  H  H14  1  0.11866900  0.27809100  0.50800400  1
  C  C1  1  0.16948100  0.99669700  0.28851000  1
  C  C2  1  0.83051800  0.00330200  0.71149000  1
  C  C3  1  0.96607500  0.01445200  0.28873800  1
  C  C4  1  0.03392400  0.98554700  0.71126100  1
  C  C5  1  0.88989100  0.02136700  0.20686700  1
  C  C6  1  0.11010800  0.97863200  0.79313300  1
  C  C7  1  0.28946500  0.97685000  0.20656300  1
  C  C8  1  0.71053400  0.02314900  0.79343600  1
  C  C9  1  0.21093800  0.97955600  0.12512400  1
  C  C10  1  0.78906100  0.02044300  0.87487500  1
  C  C11  1  0.01249600  0.00587500  0.12399100  1
  C  C12  1  0.98750300  0.99412500  0.87600900  1
  C  C13  1  0.93816500  0.01205900  0.04059000  1
  C  C14  1  0.06183400  0.98794000  0.95940900  1
  C  C15  1  0.74235600  0.04323600  0.03720500  1
  C  C16  1  0.25764300  0.95676300  0.96279400  1
  C  C17  1  0.66807100  0.04576400  0.95499100  1
  C  C18  1  0.33192800  0.95423500  0.04500800  1
  C  C19  1  0.81903700  0.01020000  0.37262200  1
  C  C20  1  0.18096200  0.98979900  0.62737700  1
  C  C21  1  0.26448000  0.99869500  0.37205100  1
  C  C22  1  0.73551900  0.00130400  0.62794900  1
  C  C23  1  0.73292400  0.46443600  0.54018400  1
  C  C24  1  0.26707500  0.53556300  0.45981600  1
  C  C25  1  0.70497500  0.34264300  0.53562400  1
  C  C26  1  0.29502500  0.65735600  0.46437600  1
  C  C27  1  0.39011200  0.34890200  0.48133700  1
  C  C28  1  0.60988700  0.65109700  0.51866300  1
  C  C29  1  0.41404000  0.47091600  0.48520700  1
  C  C30  1  0.58595900  0.52908300  0.51479300  1
  N  N1  1  0.46509400  0.71314700  0.49302200  1
  N  N2  1  0.53490500  0.28685300  0.50697800  1
  O  O1  1  0.72796000  0.90593200  0.39960300  1
  O  O2  1  0.27203900  0.09406700  0.60039700  1
  O  O3  1  0.75714500  0.10995300  0.40647000  1
  O  O4  1  0.24285400  0.89004600  0.59353000  1
  O  O5  1  0.33643500  0.10172800  0.40296100  1
  O  O6  1  0.66356500  0.89827100  0.59703900  1
  O  O7  1  0.30570800  0.89751000  0.40228000  1
  O  O8  1  0.69429100  0.10248900  0.59772000  1
  O  O9  1  0.78062900  0.70889500  0.54823300  1
  O  O10  1  0.21937100  0.29110400  0.45176600  1
