# generated using pymatgen
data_ZnH10C23NO16
_symmetry_space_group_name_H-M   'P 1'
_cell_length_a   11.29906800
_cell_length_b   17.84654300
_cell_length_c   16.63483400
_cell_angle_alpha   90.00049200
_cell_angle_beta   102.23676000
_cell_angle_gamma   90.00090900
_symmetry_Int_Tables_number   1
_chemical_formula_structural   ZnH10C23NO16
_chemical_formula_sum   'Zn2 H20 C46 N2 O32'
_cell_volume   3278.19102218
_cell_formula_units_Z   2
loop_
 _symmetry_equiv_pos_site_id
 _symmetry_equiv_pos_as_xyz
  1  'x, y, z'
loop_
 _atom_site_type_symbol
 _atom_site_label
 _atom_site_symmetry_multiplicity
 _atom_site_fract_x
 _atom_site_fract_y
 _atom_site_fract_z
 _atom_site_occupancy
  Zn  Zn1  1  0.51030200  0.50609500  0.59368400  1
  Zn  Zn2  1  0.50432900  0.49925700  0.41024600  1
  H  H1  1  0.89463300  0.54125300  0.44394200  1
  H  H2  1  0.12423600  0.49812400  0.57567900  1
  H  H3  1  0.58870500  0.73828100  0.62214400  1
  H  H4  1  0.55782400  0.26893600  0.39589900  1
  H  H5  1  0.34810800  0.45856400  0.69208300  1
  H  H6  1  0.65821000  0.55597900  0.31371400  1
  H  H7  1  0.68139100  0.55508700  0.90167400  1
  H  H8  1  0.34493600  0.44325700  0.10171100  1
  H  H9  1  0.03848900  0.35067400  0.66330500  1
  H  H10  1  0.94541600  0.47731500  0.27403700  1
  H  H11  1  0.65344800  0.87209000  0.77267000  1
  H  H12  1  0.60668600  0.13809800  0.25653300  1
  H  H13  1  0.42483200  0.70480000  0.23187700  1
  H  H14  1  0.46077100  0.30918500  0.75210200  1
  H  H15  1  0.30590700  0.97154600  0.29649500  1
  H  H16  1  0.33605000  0.02578700  0.66536300  1
  H  H17  1  0.13541500  0.40787800  0.80371000  1
  H  H18  1  0.85352600  0.63554200  0.20545800  1
  H  H19  1  0.79312000  0.64194500  0.68491200  1
  H  H20  1  0.23261100  0.35476100  0.31900900  1
  C  C1  1  0.49829500  0.35582000  0.50880800  1
  C  C2  1  0.51507100  0.64952200  0.49486100  1
  C  C3  1  0.27019500  0.50911200  0.47237300  1
  C  C4  1  0.74422400  0.49547000  0.53139200  1
  C  C5  1  0.13669100  0.51034900  0.45270500  1
  C  C6  1  0.87608900  0.48353900  0.54938600  1
  C  C7  1  0.07468600  0.50386100  0.51274500  1
  C  C8  1  0.94118300  0.50958300  0.49679400  1
  C  C9  1  0.55812700  0.84721100  0.57074000  1
  C  C10  1  0.53592300  0.15930900  0.43982100  1
  C  C11  1  0.55589700  0.76990500  0.56677600  1
  C  C12  1  0.53171200  0.23652600  0.44404700  1
  C  C13  1  0.51553600  0.73237200  0.49335600  1
  C  C14  1  0.49933400  0.27292800  0.50965400  1
  C  C15  1  0.47443400  0.77368200  0.42185800  1
  C  C16  1  0.46893900  0.23037000  0.57245600  1
  C  C17  1  0.47405600  0.85140700  0.42548000  1
  C  C18  1  0.47050400  0.15268800  0.56805000  1
  C  C19  1  0.51551700  0.88821600  0.49941800  1
  C  C20  1  0.50443900  0.11705800  0.50236500  1
  C  C21  1  0.51159600  0.96883000  0.50049200  1
  C  C22  1  0.50816500  0.03643200  0.50130100  1
  C  C23  1  0.41305700  0.47714500  0.82041200  1
  C  C24  1  0.59995100  0.53532700  0.18511000  1
  C  C25  1  0.42034400  0.48159600  0.73837500  1
  C  C26  1  0.59054300  0.52981800  0.26664300  1
  C  C27  1  0.61108900  0.53840800  0.77310800  1
  C  C28  1  0.40885400  0.46282200  0.23044000  1
  C  C29  1  0.60750400  0.53348800  0.85527600  1
  C  C30  1  0.41469400  0.46815400  0.14867500  1
  C  C31  1  0.50892000  0.50388000  0.87971200  1
  C  C32  1  0.51005800  0.50313000  0.12523100  1
  C  C33  1  0.50938500  0.50401400  0.96621600  1
  C  C34  1  0.51066000  0.50421300  0.03889300  1
  C  C35  1  0.93047100  0.43552200  0.61987200  1
  C  C36  1  0.07418800  0.51435800  0.36540700  1
  C  C37  1  0.60526300  0.88269600  0.65158700  1
  C  C38  1  0.57418500  0.12537400  0.36817600  1
  C  C39  1  0.41674200  0.73674700  0.34464300  1
  C  C40  1  0.42464100  0.26565900  0.64001400  1
  C  C41  1  0.42334700  0.89545100  0.35144500  1
  C  C42  1  0.43545000  0.10753400  0.63336000  1
  C  C43  1  0.30363700  0.44375200  0.84115900  1
  C  C44  1  0.70460800  0.57602700  0.16580600  1
  C  C45  1  0.71946800  0.57277300  0.75320000  1
  C  C46  1  0.30292600  0.42434500  0.24931900  1
  N  N1  1  0.51710800  0.51218200  0.71493000  1
  N  N2  1  0.49793600  0.49330000  0.28909400  1
  O  O1  1  0.50053500  0.39357200  0.57700300  1
  O  O2  1  0.51348800  0.61174900  0.42688300  1
  O  O3  1  0.50039400  0.38904700  0.43869000  1
  O  O4  1  0.51558100  0.61633700  0.56542100  1
  O  O5  1  0.32873100  0.50919200  0.54963500  1
  O  O6  1  0.68581200  0.49638800  0.45430900  1
  O  O7  1  0.32550200  0.50551800  0.41073100  1
  O  O8  1  0.68902300  0.49862400  0.59308700  1
  O  O9  1  0.89015200  0.43613500  0.68227800  1
  O  O10  1  0.01814200  0.38276100  0.61210100  1
  O  O11  1  0.11355000  0.55480300  0.31808100  1
  O  O12  1  0.97447100  0.46894400  0.33520600  1
  O  O13  1  0.63662100  0.94817200  0.65711300  1
  O  O14  1  0.61877100  0.84009900  0.72303200  1
  O  O15  1  0.60643600  0.06018100  0.36866000  1
  O  O16  1  0.57740800  0.16910300  0.29940100  1
  O  O17  1  0.31787700  0.70719200  0.33832500  1
  O  O18  1  0.47632400  0.73288100  0.27960500  1
  O  O19  1  0.31619400  0.27415800  0.63478500  1
  O  O20  1  0.50608300  0.28755500  0.71112600  1
  O  O21  1  0.46354900  0.88841200  0.28938400  1
  O  O22  1  0.32959600  0.94597700  0.35187900  1
  O  O23  1  0.48122100  0.11954300  0.70542600  1
  O  O24  1  0.34940200  0.05093400  0.61348300  1
  O  O25  1  0.30102900  0.42596700  0.91149700  1
  O  O26  1  0.20175700  0.43094400  0.77936400  1
  O  O27  1  0.72000700  0.58030200  0.09562800  1
  O  O28  1  0.78784000  0.61033600  0.22868800  1
  O  O29  1  0.81737100  0.56462300  0.80004900  1
  O  O30  1  0.71048100  0.62110500  0.68688800  1
  O  O31  1  0.20625500  0.42708700  0.20009900  1
  O  O32  1  0.31341900  0.37879100  0.31801900  1
