# generated using pymatgen
data_CuH11C21N3ClO4
_symmetry_space_group_name_H-M   'P 1'
_cell_length_a   19.18704500
_cell_length_b   10.83043000
_cell_length_c   9.41549400
_cell_angle_alpha   89.98647500
_cell_angle_beta   89.98601100
_cell_angle_gamma   90.00537600
_symmetry_Int_Tables_number   1
_chemical_formula_structural   CuH11C21N3ClO4
_chemical_formula_sum   'Cu2 H22 C42 N6 Cl2 O8'
_cell_volume   1956.57670204
_cell_formula_units_Z   2
loop_
 _symmetry_equiv_pos_site_id
 _symmetry_equiv_pos_as_xyz
  1  'x, y, z'
loop_
 _atom_site_type_symbol
 _atom_site_label
 _atom_site_symmetry_multiplicity
 _atom_site_fract_x
 _atom_site_fract_y
 _atom_site_fract_z
 _atom_site_occupancy
  Cu  Cu1  1  0.49540600  0.50699300  0.63363100  1
  Cu  Cu2  1  0.49305400  0.51075800  0.35417800  1
  H  H1  1  0.27564100  0.53583700  0.72462500  1
  H  H2  1  0.14934700  0.53535100  0.72362700  1
  H  H3  1  0.15062600  0.48579400  0.27237200  1
  H  H4  1  0.27619800  0.48539000  0.27370900  1
  H  H5  1  0.83781000  0.47721300  0.71578700  1
  H  H6  1  0.71212300  0.47551500  0.71366000  1
  H  H7  1  0.71308500  0.53366700  0.26414100  1
  H  H8  1  0.83946500  0.53347500  0.26566700  1
  H  H9  1  0.48825300  0.11849800  0.27327300  1
  H  H10  1  0.55406100  0.21996700  0.75070300  1
  H  H11  1  0.53962800  0.11844900  0.97598800  1
  H  H12  1  0.48634000  0.91262000  0.98828400  1
  H  H13  1  0.45476200  0.80537000  0.77464700  1
  H  H14  1  0.48374800  0.89572000  0.27751100  1
  H  H15  1  0.41751000  0.37656300  0.12300300  1
  H  H16  1  0.56960300  0.70949000  0.24302600  1
  H  H17  1  0.65381500  0.82271200  0.12271000  1
  H  H18  1  0.60844300  0.63965500  0.74524600  1
  H  H19  1  0.41827900  0.37627200  0.86355500  1
  H  H20  1  0.86389000  0.87133300  0.87703400  1
  H  H21  1  0.71831500  0.96983300  0.55555800  1
  H  H22  1  0.62704800  0.85520100  0.67982900  1
  C  C1  1  0.49815000  0.27393100  0.49324000  1
  C  C2  1  0.36171100  0.50969100  0.49867700  1
  C  C3  1  0.48950600  0.74420200  0.50132500  1
  C  C4  1  0.62692100  0.50542100  0.48908700  1
  C  C5  1  0.24862700  0.52493200  0.62472200  1
  C  C6  1  0.17667200  0.52425500  0.62409400  1
  C  C7  1  0.14054600  0.51054500  0.49789000  1
  C  C8  1  0.17727800  0.49707800  0.37259500  1
  C  C9  1  0.24906200  0.49640400  0.37345900  1
  C  C10  1  0.28524000  0.51051300  0.49938000  1
  C  C11  1  0.92455000  0.50735700  0.49276100  1
  C  C12  1  0.06403900  0.50986500  0.49635100  1
  C  C13  1  0.81121400  0.48981000  0.61570100  1
  C  C14  1  0.73941500  0.48847300  0.61439300  1
  C  C15  1  0.70337300  0.50499700  0.48868900  1
  C  C16  1  0.74008200  0.52133000  0.36384200  1
  C  C17  1  0.81202700  0.52092100  0.36480800  1
  C  C18  1  0.84804600  0.50597800  0.49094300  1
  C  C19  1  0.52934500  0.13058300  0.75094400  1
  C  C20  1  0.52354400  0.07196900  0.87984000  1
  C  C21  1  0.49474900  0.95643600  0.88656700  1
  C  C22  1  0.47914700  0.89437900  0.76333700  1
  C  C23  1  0.49133200  0.94825500  0.63132600  1
  C  C24  1  0.50712900  0.07332900  0.62649900  1
  C  C25  1  0.50187500  0.13755400  0.49790300  1
  C  C26  1  0.49219400  0.07149400  0.37419500  1
  C  C27  1  0.48779000  0.94446200  0.37721800  1
  C  C28  1  0.48734500  0.88094700  0.50483000  1
  C  C29  1  0.57573500  0.68455000  0.13506300  1
  C  C30  1  0.62535100  0.75232500  0.06567200  1
  C  C31  1  0.63787500  0.73123200  0.92553000  1
  C  C32  1  0.59572600  0.64997200  0.85373600  1
  C  C33  1  0.54303100  0.58233900  0.92080700  1
  C  C34  1  0.53660400  0.59317000  0.06744100  1
  C  C35  1  0.45242700  0.43806700  0.06725300  1
  C  C36  1  0.45360800  0.43660500  0.91984400  1
  C  C37  1  0.69328500  0.79885800  0.85095100  1
  C  C38  1  0.76033600  0.80367300  0.90553200  1
  C  C39  1  0.81153100  0.86864300  0.83477800  1
  C  C40  1  0.79644700  0.92884700  0.70965700  1
  C  C41  1  0.73016500  0.92311800  0.65410600  1
  C  C42  1  0.67887100  0.85799300  0.72413300  1
  N  N1  1  0.02946200  0.51019800  0.37202600  1
  N  N2  1  0.96057600  0.50922900  0.37021700  1
  N  N3  1  0.95912200  0.50689700  0.61711500  1
  N  N4  1  0.02801900  0.50834900  0.61893100  1
  N  N5  1  0.49254700  0.51763600  0.14106000  1
  N  N6  1  0.49949700  0.50633300  0.84661600  1
  Cl  Cl1  1  0.78326900  0.72084300  0.05848300  1
  Cl  Cl2  1  0.86170000  0.01103800  0.62034300  1
  O  O1  1  0.47800600  0.33075900  0.61009800  1
  O  O2  1  0.50917300  0.33296200  0.37129000  1
  O  O3  1  0.39531800  0.53719100  0.61737900  1
  O  O4  1  0.39329200  0.48184700  0.37811700  1
  O  O5  1  0.51195100  0.68399500  0.61317500  1
  O  O6  1  0.47610500  0.68725500  0.38101100  1
  O  O7  1  0.59477400  0.47566400  0.60684100  1
  O  O8  1  0.59328200  0.53806300  0.37380600  1
