# generated using pymatgen
data_Zn3H12(C13O9)2
_symmetry_space_group_name_H-M   'P 1'
_cell_length_a   33.36393200
_cell_length_b   29.05614500
_cell_length_c   21.28791400
_cell_angle_alpha   90.00000000
_cell_angle_beta   119.82890300
_cell_angle_gamma   90.00000000
_symmetry_Int_Tables_number   1
_chemical_formula_structural   Zn3H12(C13O9)2
_chemical_formula_sum   'Zn12 H48 C104 O72'
_cell_volume   17902.97242537
_cell_formula_units_Z   4
loop_
 _symmetry_equiv_pos_site_id
 _symmetry_equiv_pos_as_xyz
  1  'x, y, z'
loop_
 _atom_site_type_symbol
 _atom_site_label
 _atom_site_symmetry_multiplicity
 _atom_site_fract_x
 _atom_site_fract_y
 _atom_site_fract_z
 _atom_site_occupancy
  Zn  Zn1  1  0.99902500  0.94791700  0.00081900  1
  Zn  Zn2  1  0.00069900  0.05210100  0.99773900  1
  Zn  Zn3  1  0.49897600  0.44796100  0.00066500  1
  Zn  Zn4  1  0.50053000  0.55215600  0.99776000  1
  Zn  Zn5  1  0.94755600  0.99884300  0.46135000  1
  Zn  Zn6  1  0.05214000  0.00120500  0.53718800  1
  Zn  Zn7  1  0.44766800  0.49885700  0.46136400  1
  Zn  Zn8  1  0.55226700  0.50107300  0.53732700  1
  Zn  Zn9  1  0.50911700  0.99852100  0.43652800  1
  Zn  Zn10  1  0.49061300  0.00141300  0.56200500  1
  Zn  Zn11  1  0.00901400  0.49845200  0.43647400  1
  Zn  Zn12  1  0.99050100  0.50159900  0.56193100  1
  H  H1  1  0.01153900  0.92035000  0.81148400  1
  H  H2  1  0.98819100  0.07967400  0.18706000  1
  H  H3  1  0.00126100  0.93102500  0.20395400  1
  H  H4  1  0.99843700  0.06899800  0.79460300  1
  H  H5  1  0.51151800  0.42064800  0.81142500  1
  H  H6  1  0.48611700  0.57942500  0.18593700  1
  H  H7  1  0.50404500  0.43113900  0.20514400  1
  H  H8  1  0.49830100  0.56928700  0.79456100  1
  H  H9  1  0.01968900  0.92279800  0.71623200  1
  H  H10  1  0.98002800  0.07724000  0.28230100  1
  H  H11  1  0.01490600  0.93408200  0.31608900  1
  H  H12  1  0.98478100  0.06595200  0.68246400  1
  H  H13  1  0.51972200  0.42313500  0.71624600  1
  H  H14  1  0.47794100  0.57628200  0.28078900  1
  H  H15  1  0.51692900  0.43410700  0.31703300  1
  H  H16  1  0.48472300  0.56626700  0.68244300  1
  H  H17  1  0.08111400  0.98079100  0.75360800  1
  H  H18  1  0.91859100  0.01926300  0.24492100  1
  H  H19  1  0.93405800  0.95998700  0.24815700  1
  H  H20  1  0.06563600  0.04006100  0.75037700  1
  H  H21  1  0.58111500  0.48115900  0.75370600  1
  H  H22  1  0.41952400  0.51903500  0.24323400  1
  H  H23  1  0.43410000  0.45908200  0.25225300  1
  H  H24  1  0.56559600  0.54041900  0.75042700  1
  H  H25  1  0.92289400  0.95933600  0.72368300  1
  H  H26  1  0.07682500  0.04067200  0.27488100  1
  H  H27  1  0.06638900  0.92993700  0.22369700  1
  H  H28  1  0.93331800  0.07006800  0.77488700  1
  H  H29  1  0.42285500  0.45957600  0.72355100  1
  H  H30  1  0.57588200  0.54315400  0.27465100  1
  H  H31  1  0.56870900  0.43270300  0.22393400  1
  H  H32  1  0.43317000  0.57028800  0.77478300  1
  H  H33  1  0.95868600  0.90291100  0.63562900  1
  H  H34  1  0.04103300  0.09712300  0.36290800  1
  H  H35  1  0.08264900  0.94713400  0.37947700  1
  H  H36  1  0.91703900  0.05288600  0.61908400  1
  H  H37  1  0.45874900  0.40320500  0.63560100  1
  H  H38  1  0.53813000  0.59775300  0.36155100  1
  H  H39  1  0.58443500  0.44881500  0.38017800  1
  H  H40  1  0.41700000  0.55316200  0.61897600  1
  H  H41  1  0.08443500  0.93998400  0.83856900  1
  H  H42  1  0.91528500  0.06005800  0.15996100  1
  H  H43  1  0.89364700  0.96743000  0.08771200  1
  H  H44  1  0.10606500  0.03261100  0.91081700  1
  H  H45  1  0.58441700  0.44034600  0.83865200  1
  H  H46  1  0.39113300  0.52502700  0.08625700  1
  H  H47  1  0.42787600  0.43218900  0.15627000  1
  H  H48  1  0.60592700  0.53299300  0.91086500  1
  C  C1  1  0.90962700  0.00015200  0.91521100  1
  C  C2  1  0.09009700  0.99986500  0.08334700  1
  C  C3  1  0.40951700  0.50013500  0.91516800  1
  C  C4  1  0.58999000  0.49998200  0.08325900  1
  C  C5  1  0.00937400  0.99598700  0.88519000  1
  C  C6  1  0.99034800  0.00403100  0.11336600  1
  C  C7  1  0.50925400  0.49622100  0.88510500  1
  C  C8  1  0.49023900  0.50389500  0.11331100  1
  C  C9  1  0.98961100  0.94898900  0.77738300  1
  C  C10  1  0.01011100  0.05103300  0.22116700  1
  C  C11  1  0.01905800  0.96395700  0.22790800  1
  C  C12  1  0.98064600  0.03606300  0.77064800  1
  C  C13  1  0.48957800  0.44927700  0.77731400  1
  C  C14  1  0.50883100  0.55126500  0.22032500  1
  C  C15  1  0.52049100  0.46458700  0.22869900  1
  C  C16  1  0.48054300  0.53634500  0.77057700  1
  C  C17  1  0.99235400  0.94762900  0.70840700  1
  C  C18  1  0.00736000  0.05240400  0.29013500  1
  C  C19  1  0.02480000  0.96741600  0.30229700  1
  C  C20  1  0.97489700  0.03261200  0.69625500  1
  C  C21  1  0.49236100  0.44794200  0.70838200  1
  C  C22  1  0.50605000  0.55229700  0.28926900  1
  C  C23  1  0.52601300  0.46779300  0.30297700  1
  C  C24  1  0.47484500  0.53291400  0.69620800  1
  C  C25  1  0.05832700  0.00124400  0.82966400  1
  C  C26  1  0.94138400  0.99879200  0.16887700  1
  C  C27  1  0.55825400  0.50158900  0.82967500  1
  C  C28  1  0.44153400  0.49798200  0.16935500  1
  C  C29  1  0.00920600  0.99518400  0.81593300  1
  C  C30  1  0.99050800  0.00483900  0.18261800  1
  C  C31  1  0.50912300  0.49547900  0.81587700  1
  C  C32  1  0.49054000  0.50457600  0.18267200  1
  C  C33  1  0.00665800  0.99495900  0.69600700  1
  C  C34  1  0.99304400  0.00507900  0.30253400  1
  C  C35  1  0.50664700  0.49528600  0.69600800  1
  C  C36  1  0.49324500  0.50448400  0.30268300  1
  C  C37  1  0.05604000  0.00448000  0.75657000  1
  C  C38  1  0.94366200  0.99556500  0.24196500  1
  C  C39  1  0.55601000  0.50483200  0.75661300  1
  C  C40  1  0.44413700  0.49361500  0.24261900  1
  C  C41  1  0.85997800  0.00080800  0.86659100  1
  C  C42  1  0.13974700  0.99920600  0.13196300  1
  C  C43  1  0.35986500  0.50075600  0.86655600  1
  C  C44  1  0.63964100  0.49936000  0.13187100  1
  C  C45  1  0.81850900  0.00098700  0.82521500  1
  C  C46  1  0.18121700  0.99901800  0.17333400  1
  C  C47  1  0.31839600  0.50092600  0.82518300  1
  C  C48  1  0.68111100  0.49918400  0.17324200  1
  C  C49  1  0.76982100  0.00091600  0.77607300  1
  C  C50  1  0.22990600  0.99907300  0.22247200  1
  C  C51  1  0.26970900  0.50085900  0.77604000  1
  C  C52  1  0.72980000  0.49924000  0.22238100  1
  C  C53  1  0.72844000  0.00072100  0.73403100  1
  C  C54  1  0.27128800  0.99925400  0.26450900  1
  C  C55  1  0.22832700  0.50067400  0.73399600  1
  C  C56  1  0.77118200  0.49941300  0.26442000  1
  C  C57  1  0.67981300  0.00041500  0.68445500  1
  C  C58  1  0.31991600  0.99954400  0.31408100  1
  C  C59  1  0.17970200  0.50038500  0.68441500  1
  C  C60  1  0.81981000  0.49968800  0.31399400  1
  C  C61  1  0.63845600  0.00016100  0.64225400  1
  C  C62  1  0.36127400  0.99978500  0.35627900  1
  C  C63  1  0.13834500  0.50015000  0.64221000  1
  C  C64  1  0.86116800  0.49991200  0.35619500  1
  C  C65  1  0.00065600  0.91015700  0.49482900  1
  C  C66  1  0.99903900  0.08989200  0.50370900  1
  C  C67  1  0.50067500  0.41008700  0.49531700  1
  C  C68  1  0.49926000  0.58984400  0.50337000  1
  C  C69  1  0.00515500  0.99600600  0.62552100  1
  C  C70  1  0.99454200  0.00404100  0.37301700  1
  C  C71  1  0.50518200  0.49630500  0.62555100  1
  C  C72  1  0.49476200  0.50354400  0.37315700  1
  C  C73  1  0.50021800  0.08992300  0.49728700  1
  C  C74  1  0.49951500  0.91001000  0.50124900  1
  C  C75  1  0.00019800  0.58998000  0.49700000  1
  C  C76  1  0.99931900  0.41007100  0.50140700  1
  C  C77  1  0.58902500  0.99994100  0.59186900  1
  C  C78  1  0.41070500  0.99999400  0.40666400  1
  C  C79  1  0.08891500  0.49995400  0.59181900  1
  C  C80  1  0.91059900  0.50009800  0.40658600  1
  C  C81  1  0.00174600  0.86082500  0.49411500  1
  C  C82  1  0.99794400  0.13922400  0.50442000  1
  C  C83  1  0.50170900  0.36075600  0.49469700  1
  C  C84  1  0.49821900  0.63917500  0.50398300  1
  C  C85  1  0.00216000  0.81937000  0.49373800  1
  C  C86  1  0.99751100  0.18067800  0.50478500  1
  C  C87  1  0.50209800  0.31930300  0.49435200  1
  C  C88  1  0.49780900  0.68062800  0.50431200  1
  C  C89  1  0.00218200  0.77079100  0.49360400  1
  C  C90  1  0.99745600  0.22925800  0.50489800  1
  C  C91  1  0.50210900  0.27072800  0.49420900  1
  C  C92  1  0.49776100  0.72920300  0.50442900  1
  C  C93  1  0.50184500  0.22927000  0.49437300  1
  C  C94  1  0.49798900  0.77066100  0.50424100  1
  C  C95  1  0.00191200  0.72933100  0.49380600  1
  C  C96  1  0.99769400  0.27071800  0.50467300  1
  C  C97  1  0.50132200  0.18070200  0.49494800  1
  C  C98  1  0.49846900  0.81923000  0.50363600  1
  C  C99  1  0.00136800  0.68076100  0.49445700  1
  C  C100  1  0.99820000  0.31928900  0.50399400  1
  C  C101  1  0.50080400  0.13925700  0.49580300  1
  C  C102  1  0.49895600  0.86067500  0.50275800  1
  C  C103  1  0.00082400  0.63931500  0.49539500  1
  C  C104  1  0.99871600  0.36073600  0.50303300  1
  O  O1  1  0.93061200  0.96011000  0.93512800  1
  O  O2  1  0.06911100  0.03990700  0.06342900  1
  O  O3  1  0.06774900  0.96048500  0.06257100  1
  O  O4  1  0.93197500  0.03953300  0.93598500  1
  O  O5  1  0.43054900  0.46011100  0.93502700  1
  O  O6  1  0.56895600  0.54000600  0.06341800  1
  O  O7  1  0.56768900  0.46058000  0.06241700  1
  O  O8  1  0.43181900  0.53953700  0.93599000  1
  O  O9  1  0.00548200  0.95687700  0.91204600  1
  O  O10  1  0.99424100  0.04314100  0.08651000  1
  O  O11  1  0.99057300  0.96376200  0.08604200  1
  O  O12  1  0.00915100  0.03625600  0.91251600  1
  O  O13  1  0.50541600  0.45706900  0.91190700  1
  O  O14  1  0.49408100  0.54305100  0.08651400  1
  O  O15  1  0.49054500  0.46366400  0.08595200  1
  O  O16  1  0.50898600  0.53645500  0.91249200  1
  O  O17  1  0.96020900  0.93045200  0.46478200  1
  O  O18  1  0.03948700  0.06959700  0.53375500  1
  O  O19  1  0.04006700  0.93251400  0.52636300  1
  O  O20  1  0.95963000  0.06753400  0.47217600  1
  O  O21  1  0.46024800  0.43043400  0.46512500  1
  O  O22  1  0.53968400  0.56949700  0.53354300  1
  O  O23  1  0.54011600  0.43239300  0.52681000  1
  O  O24  1  0.45982400  0.56753600  0.47190300  1
  O  O25  1  0.96463500  0.99502500  0.56665900  1
  O  O26  1  0.03506100  0.00502300  0.43188000  1
  O  O27  1  0.46467900  0.49529500  0.56666100  1
  O  O28  1  0.53526700  0.50462700  0.43203500  1
  O  O29  1  0.04421700  0.99929600  0.62542700  1
  O  O30  1  0.95547900  0.00075300  0.37311000  1
  O  O31  1  0.54426800  0.49946100  0.62550600  1
  O  O32  1  0.45566200  0.50049400  0.37318200  1
  O  O33  1  0.50592700  0.06731500  0.44898200  1
  O  O34  1  0.49380400  0.93261800  0.54955200  1
  O  O35  1  0.49424800  0.06981400  0.54715400  1
  O  O36  1  0.50548300  0.93012000  0.45138000  1
  O  O37  1  0.00588900  0.56727600  0.44875400  1
  O  O38  1  0.99362600  0.43277500  0.54965200  1
  O  O39  1  0.99420300  0.56996600  0.54691000  1
  O  O40  1  0.00531200  0.43008500  0.45149600  1
  O  O41  1  0.57442100  0.99779100  0.52202900  1
  O  O42  1  0.42531000  0.00214300  0.47650400  1
  O  O43  1  0.07431400  0.49772000  0.52198600  1
  O  O44  1  0.92520100  0.50233200  0.47641900  1
  O  O45  1  0.56063500  0.00211600  0.61786300  1
  O  O46  1  0.43909500  0.99781800  0.38067100  1
  O  O47  1  0.06052300  0.50223800  0.61779900  1
  O  O48  1  0.93899100  0.49781400  0.38060700  1
  O  O49  1  0.94486200  0.94050300  0.76516000  1
  O  O50  1  0.05486400  0.05950700  0.23340000  1
  O  O51  1  0.06219300  0.96260000  0.23235500  1
  O  O52  1  0.93751300  0.03740800  0.76621200  1
  O  O53  1  0.44482200  0.44074600  0.76503400  1
  O  O54  1  0.55333000  0.56105600  0.23239300  1
  O  O55  1  0.56367500  0.46496900  0.23327800  1
  O  O56  1  0.43739100  0.53764200  0.76607500  1
  O  O57  1  0.95097900  0.93285400  0.64917400  1
  O  O58  1  0.04873400  0.06717400  0.34937200  1
  O  O59  1  0.07102300  0.97631200  0.35232800  1
  O  O60  1  0.92867400  0.02370900  0.64623000  1
  O  O61  1  0.45101300  0.43314300  0.64912000  1
  O  O62  1  0.54688900  0.56828500  0.34830800  1
  O  O63  1  0.57196700  0.47784700  0.35298300  1
  O  O64  1  0.42863800  0.52398700  0.64613000  1
  O  O65  1  0.08655700  0.96486400  0.87173100  1
  O  O66  1  0.91316400  0.03517600  0.12680300  1
  O  O67  1  0.92265700  0.95791600  0.13125300  1
  O  O68  1  0.07704700  0.04212200  0.86728700  1
  O  O69  1  0.58650600  0.46523200  0.87178400  1
  O  O70  1  0.41499400  0.53660400  0.13418800  1
  O  O71  1  0.42039700  0.45961600  0.12501700  1
  O  O72  1  0.57692200  0.54248000  0.86729200  1
