# generated using pymatgen
data_Cu3H16C42(ClO3)4
_symmetry_space_group_name_H-M   'P 1'
_cell_length_a   23.64437700
_cell_length_b   30.64183400
_cell_length_c   19.31479800
_cell_angle_alpha   90.00000000
_cell_angle_beta   127.72918500
_cell_angle_gamma   90.00000000
_symmetry_Int_Tables_number   1
_chemical_formula_structural   Cu3H16C42(ClO3)4
_chemical_formula_sum   'Cu12 H64 C168 Cl16 O48'
_cell_volume   11067.79050560
_cell_formula_units_Z   4
loop_
 _symmetry_equiv_pos_site_id
 _symmetry_equiv_pos_as_xyz
  1  'x, y, z'
loop_
 _atom_site_type_symbol
 _atom_site_label
 _atom_site_symmetry_multiplicity
 _atom_site_fract_x
 _atom_site_fract_y
 _atom_site_fract_z
 _atom_site_occupancy
  Cu  Cu1  1  0.71945500  0.71781800  0.93703400  1
  Cu  Cu2  1  0.27936200  0.27901000  0.06101800  1
  Cu  Cu3  1  0.28054500  0.71781800  0.06296600  1
  Cu  Cu4  1  0.72063800  0.27901000  0.93898200  1
  Cu  Cu5  1  0.21945500  0.21781800  0.93703400  1
  Cu  Cu6  1  0.77936200  0.77901000  0.06101800  1
  Cu  Cu7  1  0.78054500  0.21781800  0.06296600  1
  Cu  Cu8  1  0.22063800  0.77901000  0.93898200  1
  Cu  Cu9  1  0.94758200  0.49925100  0.50505500  1
  Cu  Cu10  1  0.05241800  0.49925100  0.49494500  1
  Cu  Cu11  1  0.44758200  0.99925100  0.50505500  1
  Cu  Cu12  1  0.55241800  0.99925100  0.49494500  1
  H  H1  1  0.78152000  0.80854100  0.85383500  1
  H  H2  1  0.19626100  0.16325100  0.09623400  1
  H  H3  1  0.21848000  0.80854100  0.14616500  1
  H  H4  1  0.80373900  0.16325100  0.90376700  1
  H  H5  1  0.28152000  0.30854100  0.85383500  1
  H  H6  1  0.69626100  0.66325100  0.09623400  1
  H  H7  1  0.71848000  0.30854100  0.14616500  1
  H  H8  1  0.30374000  0.66325100  0.90376700  1
  H  H9  1  0.83181000  0.82276400  0.77909100  1
  H  H10  1  0.12113500  0.11647800  0.10856900  1
  H  H11  1  0.16819000  0.82276400  0.22090900  1
  H  H12  1  0.87886500  0.11647800  0.89143100  1
  H  H13  1  0.33181000  0.32276400  0.77909100  1
  H  H14  1  0.62113500  0.61647800  0.10856900  1
  H  H15  1  0.66819000  0.32276400  0.22090900  1
  H  H16  1  0.37886500  0.61647800  0.89143100  1
  H  H17  1  0.76901000  0.86960400  0.64927200  1
  H  H18  1  0.17228900  0.05482100  0.21084800  1
  H  H19  1  0.23099000  0.86960400  0.35072800  1
  H  H20  1  0.82771100  0.05482100  0.78915200  1
  H  H21  1  0.26901000  0.36960400  0.64927200  1
  H  H22  1  0.67228900  0.55482100  0.21084800  1
  H  H23  1  0.73099000  0.36960400  0.35072800  1
  H  H24  1  0.32771100  0.55482100  0.78915200  1
  H  H25  1  0.65911500  0.90448600  0.59800300  1
  H  H26  1  0.29862700  0.04069000  0.30232300  1
  H  H27  1  0.34088500  0.90448600  0.40199800  1
  H  H28  1  0.70137300  0.04069000  0.69767700  1
  H  H29  1  0.15911500  0.40448600  0.59800300  1
  H  H30  1  0.79862700  0.54069000  0.30232300  1
  H  H31  1  0.84088500  0.40448600  0.40199800  1
  H  H32  1  0.20137300  0.54069000  0.69767700  1
  H  H33  1  0.52082400  0.91092300  0.70426900  1
  H  H34  1  0.49760700  0.11010900  0.34219000  1
  H  H35  1  0.47917600  0.91092300  0.29573200  1
  H  H36  1  0.50239300  0.11010900  0.65781000  1
  H  H37  1  0.02082400  0.41092300  0.70426900  1
  H  H38  1  0.99760700  0.61010900  0.34219000  1
  H  H39  1  0.97917600  0.41092300  0.29573200  1
  H  H40  1  0.00239300  0.61010900  0.65781000  1
  H  H41  1  0.42664100  0.78847000  0.78075300  1
  H  H42  1  0.51871300  0.90148600  0.94184300  1
  H  H43  1  0.59912300  0.90941100  0.90235600  1
  H  H44  1  0.53211800  0.16472000  0.12430900  1
  H  H45  1  0.58560100  0.24952900  0.33119500  1
  H  H46  1  0.49295800  0.21508800  0.33368400  1
  H  H47  1  0.57335900  0.78847000  0.21924700  1
  H  H48  1  0.48128800  0.90148600  0.05815700  1
  H  H49  1  0.40087700  0.90941100  0.09764400  1
  H  H50  1  0.46788200  0.16472000  0.87569100  1
  H  H51  1  0.41439900  0.24952900  0.66880600  1
  H  H52  1  0.50704200  0.21508800  0.66631600  1
  H  H53  1  0.92664100  0.28847000  0.78075300  1
  H  H54  1  0.01871300  0.40148600  0.94184300  1
  H  H55  1  0.09912300  0.40941100  0.90235600  1
  H  H56  1  0.03211800  0.66472000  0.12430900  1
  H  H57  1  0.08560100  0.74952900  0.33119500  1
  H  H58  1  0.99295800  0.71508800  0.33368400  1
  H  H59  1  0.07335900  0.28847000  0.21924700  1
  H  H60  1  0.98128800  0.40148600  0.05815700  1
  H  H61  1  0.90087700  0.40941100  0.09764400  1
  H  H62  1  0.96788200  0.66472000  0.87569100  1
  H  H63  1  0.91439900  0.74952900  0.66880500  1
  H  H64  1  0.00704200  0.71508800  0.66631600  1
  C  C1  1  0.68959100  0.80779100  0.88017200  1
  C  C2  1  0.30825500  0.18903400  0.11781800  1
  C  C3  1  0.31040900  0.80779100  0.11982800  1
  C  C4  1  0.69174500  0.18903400  0.88218300  1
  C  C5  1  0.18959100  0.30779100  0.88017200  1
  C  C6  1  0.80825500  0.68903400  0.11781800  1
  C  C7  1  0.81040900  0.30779100  0.11982800  1
  C  C8  1  0.19174500  0.68903400  0.88218300  1
  C  C9  1  0.63978300  0.74679000  0.99677000  1
  C  C10  1  0.35926500  0.24984600  0.00160500  1
  C  C11  1  0.36021700  0.74679000  0.00323000  1
  C  C12  1  0.64073500  0.24984600  0.99839600  1
  C  C13  1  0.13978300  0.24679000  0.99677000  1
  C  C14  1  0.85926500  0.74984600  0.00160500  1
  C  C15  1  0.86021700  0.24679000  0.00323000  1
  C  C16  1  0.14073500  0.74984600  0.99839600  1
  C  C17  1  0.57953200  0.74517700  0.99751600  1
  C  C18  1  0.41983200  0.25098300  0.00135200  1
  C  C19  1  0.42046800  0.74517700  0.00248400  1
  C  C20  1  0.58016800  0.25098300  0.99864800  1
  C  C21  1  0.07953200  0.24517700  0.99751600  1
  C  C22  1  0.91983200  0.75098300  0.00135200  1
  C  C23  1  0.92046800  0.24517700  0.00248400  1
  C  C24  1  0.08016800  0.75098300  0.99864800  1
  C  C25  1  0.52931500  0.74427100  0.99894600  1
  C  C26  1  0.47041000  0.25153700  0.00056100  1
  C  C27  1  0.47068500  0.74427100  0.00105500  1
  C  C28  1  0.52959000  0.25153700  0.99943900  1
  C  C29  1  0.02931500  0.24427100  0.99894600  1
  C  C30  1  0.97041000  0.75153700  0.00056100  1
  C  C31  1  0.97068500  0.24427100  0.00105500  1
  C  C32  1  0.02959000  0.75153700  0.99943900  1
  C  C33  1  0.75322900  0.83069900  0.79908400  1
  C  C34  1  0.22153200  0.13686600  0.14278100  1
  C  C35  1  0.24677200  0.83069900  0.20091700  1
  C  C36  1  0.77846800  0.13686600  0.85721900  1
  C  C37  1  0.25322900  0.33069900  0.79908400  1
  C  C38  1  0.72153200  0.63686600  0.14278100  1
  C  C39  1  0.74677200  0.33069900  0.20091700  1
  C  C40  1  0.27846800  0.63686600  0.85721900  1
  C  C41  1  0.78241500  0.83845500  0.75685600  1
  C  C42  1  0.17807700  0.11050500  0.14955900  1
  C  C43  1  0.21758500  0.83845500  0.24314400  1
  C  C44  1  0.82192300  0.11050500  0.85044100  1
  C  C45  1  0.28241500  0.33845500  0.75685600  1
  C  C46  1  0.67807700  0.61050500  0.14955900  1
  C  C47  1  0.71758500  0.33845500  0.24314400  1
  C  C48  1  0.32192300  0.61050500  0.85044100  1
  C  C49  1  0.74764800  0.86502700  0.68476000  1
  C  C50  1  0.20674900  0.07613800  0.20708300  1
  C  C51  1  0.25235200  0.86502700  0.31524000  1
  C  C52  1  0.79325100  0.07613800  0.79291700  1
  C  C53  1  0.24764800  0.36502700  0.68476000  1
  C  C54  1  0.70674900  0.57613800  0.20708300  1
  C  C55  1  0.75235200  0.36502700  0.31524000  1
  C  C56  1  0.29325100  0.57613800  0.79291700  1
  C  C57  1  0.68556900  0.88581100  0.65737200  1
  C  C58  1  0.27928400  0.06878500  0.26006600  1
  C  C59  1  0.31443100  0.88581100  0.34262800  1
  C  C60  1  0.72071600  0.06878500  0.73993500  1
  C  C61  1  0.18556900  0.38581100  0.65737200  1
  C  C62  1  0.77928400  0.56878500  0.26006600  1
  C  C63  1  0.81443100  0.38581100  0.34262800  1
  C  C64  1  0.22071600  0.56878500  0.73993500  1
  C  C65  1  0.65799800  0.88109400  0.70325200  1
  C  C66  1  0.32444000  0.09608700  0.25654400  1
  C  C67  1  0.34200200  0.88109400  0.29674800  1
  C  C68  1  0.67556000  0.09608700  0.74345600  1
  C  C69  1  0.15799800  0.38109400  0.70325200  1
  C  C70  1  0.82444000  0.59608700  0.25654400  1
  C  C71  1  0.84200300  0.38109400  0.29674800  1
  C  C72  1  0.17556000  0.59608700  0.74345600  1
  C  C73  1  0.69025100  0.85117600  0.77189600  1
  C  C74  1  0.29477800  0.12940500  0.19458100  1
  C  C75  1  0.30974900  0.85117600  0.22810400  1
  C  C76  1  0.70522200  0.12940500  0.80541900  1
  C  C77  1  0.19025100  0.35117600  0.77189600  1
  C  C78  1  0.79477800  0.62940500  0.19458100  1
  C  C79  1  0.80974900  0.35117600  0.22810400  1
  C  C80  1  0.20522200  0.62940500  0.80541900  1
  C  C81  1  0.65926000  0.84154600  0.81238000  1
  C  C82  1  0.33841800  0.15501300  0.18517300  1
  C  C83  1  0.34074000  0.84154600  0.18762000  1
  C  C84  1  0.66158200  0.15501300  0.81482700  1
  C  C85  1  0.15926000  0.34154600  0.81238000  1
  C  C86  1  0.83841800  0.65501300  0.18517300  1
  C  C87  1  0.84074000  0.34154600  0.18762000  1
  C  C88  1  0.16158200  0.65501300  0.81482700  1
  C  C89  1  0.59718400  0.86259000  0.78524700  1
  C  C90  1  0.41115900  0.14735500  0.23834600  1
  C  C91  1  0.40281600  0.86259000  0.21475300  1
  C  C92  1  0.58884100  0.14735500  0.76165400  1
  C  C93  1  0.09718400  0.36259000  0.78524700  1
  C  C94  1  0.91115900  0.64735500  0.23834600  1
  C  C95  1  0.90281600  0.36259000  0.21475300  1
  C  C96  1  0.08884100  0.64735500  0.76165400  1
  C  C97  1  0.56805200  0.89411700  0.72159200  1
  C  C98  1  0.44043700  0.11519400  0.30083700  1
  C  C99  1  0.43194800  0.89411700  0.27840800  1
  C  C100  1  0.55956300  0.11519400  0.69916400  1
  C  C101  1  0.06805200  0.39411700  0.72159200  1
  C  C102  1  0.94043700  0.61519400  0.30083700  1
  C  C103  1  0.93194800  0.39411700  0.27840800  1
  C  C104  1  0.05956300  0.61519400  0.69916400  1
  C  C105  1  0.59756000  0.90415300  0.68025600  1
  C  C106  1  0.39832600  0.08971700  0.31145600  1
  C  C107  1  0.40244000  0.90415300  0.31974400  1
  C  C108  1  0.60167400  0.08971700  0.68854400  1
  C  C109  1  0.09756000  0.40415300  0.68025600  1
  C  C110  1  0.89832600  0.58971700  0.31145600  1
  C  C111  1  0.90244000  0.40415300  0.31974400  1
  C  C112  1  0.10167400  0.58971700  0.68854400  1
  C  C113  1  0.06533900  0.55630600  0.61963200  1
  C  C114  1  0.93750500  0.43917800  0.38604900  1
  C  C115  1  0.93466100  0.55630600  0.38036900  1
  C  C116  1  0.06249500  0.43917800  0.61395100  1
  C  C117  1  0.56533900  0.05630600  0.61963200  1
  C  C118  1  0.43750500  0.93917800  0.38604900  1
  C  C119  1  0.43466100  0.05630600  0.38036900  1
  C  C120  1  0.56249500  0.93917800  0.61395100  1
  C  C121  1  0.55992700  0.85250900  0.82173200  1
  C  C122  1  0.51119500  0.81862300  0.78735400  1
  C  C123  1  0.46593700  0.81433200  0.80937000  1
  C  C124  1  0.46837200  0.84419800  0.86446500  1
  C  C125  1  0.51746700  0.87770300  0.89959700  1
  C  C126  1  0.56298000  0.88193600  0.87798800  1
  C  C127  1  0.45880500  0.17160600  0.22831000  1
  C  C128  1  0.46990400  0.15743600  0.16960800  1
  C  C129  1  0.52251800  0.17636700  0.16911900  1
  C  C130  1  0.56411600  0.20937400  0.22720900  1
  C  C131  1  0.55251300  0.22391700  0.28508900  1
  C  C132  1  0.50027700  0.20479000  0.28611500  1
  C  C133  1  0.44007300  0.85250900  0.17826800  1
  C  C134  1  0.48880500  0.81862300  0.21264600  1
  C  C135  1  0.53406300  0.81433200  0.19063100  1
  C  C136  1  0.53162800  0.84419800  0.13553500  1
  C  C137  1  0.48253300  0.87770300  0.10040300  1
  C  C138  1  0.43702000  0.88193600  0.12201200  1
  C  C139  1  0.54119600  0.17160600  0.77169000  1
  C  C140  1  0.53009600  0.15743600  0.83039200  1
  C  C141  1  0.47748200  0.17636700  0.83088100  1
  C  C142  1  0.43588500  0.20937400  0.77279100  1
  C  C143  1  0.44748700  0.22391700  0.71491100  1
  C  C144  1  0.49972300  0.20479000  0.71388500  1
  C  C145  1  0.05992700  0.35250900  0.82173200  1
  C  C146  1  0.01119500  0.31862300  0.78735400  1
  C  C147  1  0.96593700  0.31433200  0.80937000  1
  C  C148  1  0.96837200  0.34419800  0.86446500  1
  C  C149  1  0.01746700  0.37770300  0.89959700  1
  C  C150  1  0.06298000  0.38193600  0.87798800  1
  C  C151  1  0.95880500  0.67160600  0.22831000  1
  C  C152  1  0.96990400  0.65743600  0.16960800  1
  C  C153  1  0.02251800  0.67636700  0.16911900  1
  C  C154  1  0.06411600  0.70937400  0.22720900  1
  C  C155  1  0.05251300  0.72391700  0.28508900  1
  C  C156  1  0.00027700  0.70479000  0.28611500  1
  C  C157  1  0.94007300  0.35250900  0.17826800  1
  C  C158  1  0.98880500  0.31862300  0.21264600  1
  C  C159  1  0.03406300  0.31433200  0.19063100  1
  C  C160  1  0.03162800  0.34419800  0.13553500  1
  C  C161  1  0.98253300  0.37770300  0.10040300  1
  C  C162  1  0.93702000  0.38193600  0.12201200  1
  C  C163  1  0.04119600  0.67160600  0.77169000  1
  C  C164  1  0.03009600  0.65743600  0.83039200  1
  C  C165  1  0.97748200  0.67636700  0.83088100  1
  C  C166  1  0.93588500  0.70937400  0.77279100  1
  C  C167  1  0.94748700  0.72391700  0.71491100  1
  C  C168  1  0.99972300  0.70479000  0.71388500  1
  Cl  Cl1  1  0.50170100  0.78331200  0.70949500  1
  Cl  Cl2  1  0.40621900  0.84111900  0.88546200  1
  Cl  Cl3  1  0.42035500  0.11372900  0.09906600  1
  Cl  Cl4  1  0.63357200  0.23155000  0.22983100  1
  Cl  Cl5  1  0.49829900  0.78331200  0.29050500  1
  Cl  Cl6  1  0.59378100  0.84111900  0.11453800  1
  Cl  Cl7  1  0.57964600  0.11372900  0.90093400  1
  Cl  Cl8  1  0.36642800  0.23155000  0.77017000  1
  Cl  Cl9  1  0.00170100  0.28331200  0.70949500  1
  Cl  Cl10  1  0.90621900  0.34111900  0.88546200  1
  Cl  Cl11  1  0.92035500  0.61372900  0.09906600  1
  Cl  Cl12  1  0.13357200  0.73155000  0.22983100  1
  Cl  Cl13  1  0.99829900  0.28331200  0.29050500  1
  Cl  Cl14  1  0.09378100  0.34111900  0.11453800  1
  Cl  Cl15  1  0.07964600  0.61372900  0.90093400  1
  Cl  Cl16  1  0.86642800  0.73155000  0.77017000  1
  O  O1  1  0.67658100  0.76680900  0.85531400  1
  O  O2  1  0.32316900  0.22999300  0.14266500  1
  O  O3  1  0.32341900  0.76680900  0.14468600  1
  O  O4  1  0.67683100  0.22999300  0.85733500  1
  O  O5  1  0.17658100  0.26680900  0.85531400  1
  O  O6  1  0.82316900  0.72999300  0.14266500  1
  O  O7  1  0.82341900  0.26680900  0.14468600  1
  O  O8  1  0.17683100  0.72999300  0.85733500  1
  O  O9  1  0.73204800  0.81975400  0.96266500  1
  O  O10  1  0.26557100  0.17710700  0.03530800  1
  O  O11  1  0.26795200  0.81975400  0.03733500  1
  O  O12  1  0.73442900  0.17710700  0.96469200  1
  O  O13  1  0.23204800  0.31975400  0.96266500  1
  O  O14  1  0.76557100  0.67710700  0.03530800  1
  O  O15  1  0.76795200  0.31975400  0.03733500  1
  O  O16  1  0.23442900  0.67710700  0.96469200  1
  O  O17  1  0.63870300  0.72237000  0.94024600  1
  O  O18  1  0.35965300  0.27501000  0.05680000  1
  O  O19  1  0.36129700  0.72237000  0.05975400  1
  O  O20  1  0.64034700  0.27501000  0.94320000  1
  O  O21  1  0.13870300  0.22237000  0.94024600  1
  O  O22  1  0.85965300  0.77501000  0.05680000  1
  O  O23  1  0.86129700  0.22237000  0.05975400  1
  O  O24  1  0.14034700  0.77501000  0.94320000  1
  O  O25  1  0.69364100  0.77216100  0.05363500  1
  O  O26  1  0.30577600  0.22408600  0.94556000  1
  O  O27  1  0.30635900  0.77216100  0.94636500  1
  O  O28  1  0.69422400  0.22408600  0.05444100  1
  O  O29  1  0.19364100  0.27216100  0.05363500  1
  O  O30  1  0.80577600  0.72408600  0.94556000  1
  O  O31  1  0.80635900  0.27216100  0.94636500  1
  O  O32  1  0.19422400  0.72408600  0.05444100  1
  O  O33  1  0.01301400  0.53410500  0.61027200  1
  O  O34  1  0.00628800  0.44629300  0.42605100  1
  O  O35  1  0.98698600  0.53410500  0.38972800  1
  O  O36  1  0.99371200  0.44629300  0.57394900  1
  O  O37  1  0.51301400  0.03410500  0.61027200  1
  O  O38  1  0.50628800  0.94629300  0.42605100  1
  O  O39  1  0.48698600  0.03410500  0.38972800  1
  O  O40  1  0.49371200  0.94629300  0.57394900  1
  O  O41  1  0.08236400  0.55196800  0.56621000  1
  O  O42  1  0.89896000  0.46411600  0.39867300  1
  O  O43  1  0.91763600  0.55196800  0.43379000  1
  O  O44  1  0.10104000  0.46411600  0.60132700  1
  O  O45  1  0.58236400  0.05196800  0.56621000  1
  O  O46  1  0.39896000  0.96411600  0.39867300  1
  O  O47  1  0.41763600  0.05196800  0.43379000  1
  O  O48  1  0.60104000  0.96411600  0.60132700  1
