# generated using pymatgen
data_ZnH13C16NO4
_symmetry_space_group_name_H-M   'P 1'
_cell_length_a   8.42538900
_cell_length_b   11.00684700
_cell_length_c   14.40004500
_cell_angle_alpha   90.00000000
_cell_angle_beta   90.00000000
_cell_angle_gamma   90.00000000
_symmetry_Int_Tables_number   1
_chemical_formula_structural   ZnH13C16NO4
_chemical_formula_sum   'Zn2 H26 C32 N2 O8'
_cell_volume   1335.41650716
_cell_formula_units_Z   2
loop_
 _symmetry_equiv_pos_site_id
 _symmetry_equiv_pos_as_xyz
  1  'x, y, z'
loop_
 _atom_site_type_symbol
 _atom_site_label
 _atom_site_symmetry_multiplicity
 _atom_site_fract_x
 _atom_site_fract_y
 _atom_site_fract_z
 _atom_site_occupancy
  Zn  Zn1  1  0.49954200  0.51573100  0.89618300  1
  Zn  Zn2  1  0.49954200  0.48426900  0.10381700  1
  H  H1  1  0.74356500  0.90758900  0.99430600  1
  H  H2  1  0.25554000  0.09242800  0.00563800  1
  H  H3  1  0.74356500  0.09241100  0.00569400  1
  H  H4  1  0.25554000  0.90757300  0.99436200  1
  H  H5  1  0.99950400  0.58601200  0.04245000  1
  H  H6  1  0.99950400  0.41398800  0.95755000  1
  H  H7  1  0.76105100  0.42789400  0.74639900  1
  H  H8  1  0.66137200  0.33028300  0.66180800  1
  H  H9  1  0.87334600  0.32364700  0.67711700  1
  H  H10  1  0.88865300  0.44524200  0.55877400  1
  H  H11  1  0.83021600  0.56767400  0.63606700  1
  H  H12  1  0.24270500  0.36612600  0.26894600  1
  H  H13  1  0.33926000  0.28973000  0.36643400  1
  H  H14  1  0.12746600  0.28127900  0.35089200  1
  H  H15  1  0.11500000  0.42816600  0.45227300  1
  H  H16  1  0.17033600  0.53003200  0.35841700  1
  H  H17  1  0.24270500  0.63387400  0.73105400  1
  H  H18  1  0.33926000  0.71027000  0.63356600  1
  H  H19  1  0.12746600  0.71872100  0.64910900  1
  H  H20  1  0.11500000  0.57183400  0.54772700  1
  H  H21  1  0.17033600  0.46996800  0.64158300  1
  H  H22  1  0.76105100  0.57210600  0.25360100  1
  H  H23  1  0.66137200  0.66971700  0.33819200  1
  H  H24  1  0.87334500  0.67635300  0.32288300  1
  H  H25  1  0.88865300  0.55475800  0.44122600  1
  H  H26  1  0.83021600  0.43232600  0.36393300  1
  C  C1  1  0.85863100  0.74283900  0.01978000  1
  C  C2  1  0.14042500  0.25718500  0.98021600  1
  C  C3  1  0.85863100  0.25716100  0.98022000  1
  C  C4  1  0.14042500  0.74281500  0.01978400  1
  C  C5  1  0.85759900  0.86666500  0.00538200  1
  C  C6  1  0.14149400  0.13335100  0.99459700  1
  C  C7  1  0.85759900  0.13333500  0.99461800  1
  C  C8  1  0.14149400  0.86664900  0.00540300  1
  C  C9  1  0.99955200  0.93234400  0.00405000  1
  C  C10  1  0.99955200  0.06765600  0.99595000  1
  C  C11  1  0.64343000  0.50014800  0.45170000  1
  C  C12  1  0.35929300  0.51468800  0.54698500  1
  C  C13  1  0.35929300  0.48531200  0.45301500  1
  C  C14  1  0.64343000  0.49985200  0.54830000  1
  C  C15  1  0.99951900  0.68297200  0.03199800  1
  C  C16  1  0.99951900  0.31702800  0.96800300  1
  C  C17  1  0.50055500  0.47473100  0.30557100  1
  C  C18  1  0.50055500  0.52526900  0.69442900  1
  C  C19  1  0.50135900  0.48507200  0.40500500  1
  C  C20  1  0.50135900  0.51492800  0.59499600  1
  C  C21  1  0.28450900  0.66953000  0.01311300  1
  C  C22  1  0.71452500  0.33041500  0.98690200  1
  C  C23  1  0.28450900  0.33047000  0.98688700  1
  C  C24  1  0.71452500  0.66958500  0.01309800  1
  C  C25  1  0.79283600  0.48122600  0.60310500  1
  C  C26  1  0.76885900  0.38492200  0.67705300  1
  C  C27  1  0.20931700  0.45311100  0.40262000  1
  C  C28  1  0.23292100  0.34072500  0.34317800  1
  C  C29  1  0.20931700  0.54688900  0.59738000  1
  C  C30  1  0.23292100  0.65927500  0.65682200  1
  C  C31  1  0.79283600  0.51877400  0.39689500  1
  C  C32  1  0.76885900  0.61507800  0.32294700  1
  N  N1  1  0.49963600  0.53028700  0.77473700  1
  N  N2  1  0.49963600  0.46971300  0.22526300  1
  O  O1  1  0.33492100  0.61536100  0.08870400  1
  O  O2  1  0.66404500  0.38456800  0.91135700  1
  O  O3  1  0.66225500  0.35771500  0.07022000  1
  O  O4  1  0.33684500  0.64231200  0.92975800  1
  O  O5  1  0.33492100  0.38463900  0.91129600  1
  O  O6  1  0.66404500  0.61543200  0.08864300  1
  O  O7  1  0.66225500  0.64228500  0.92978000  1
  O  O8  1  0.33684500  0.35768800  0.07024200  1
