# generated using pymatgen
data_Cu2C53(N2O)8
_symmetry_space_group_name_H-M   'P 1'
_cell_length_a   16.06678800
_cell_length_b   16.06839500
_cell_length_c   29.79954200
_cell_angle_alpha   90.00000000
_cell_angle_beta   90.00000000
_cell_angle_gamma   90.00000000
_symmetry_Int_Tables_number   1
_chemical_formula_structural   Cu2C53(N2O)8
_chemical_formula_sum   'Cu4 C106 N32 O16'
_cell_volume   7693.27313905
_cell_formula_units_Z   2
loop_
 _symmetry_equiv_pos_site_id
 _symmetry_equiv_pos_as_xyz
  1  'x, y, z'
loop_
 _atom_site_type_symbol
 _atom_site_label
 _atom_site_symmetry_multiplicity
 _atom_site_fract_x
 _atom_site_fract_y
 _atom_site_fract_z
 _atom_site_occupancy
  Cu  Cu1  1  0.91868800  0.50000000  0.99996500  1
  Cu  Cu2  1  0.08117000  0.50000100  0.99996600  1
  Cu  Cu3  1  0.49981300  0.91876600  0.49990700  1
  Cu  Cu4  1  0.49981000  0.08123200  0.49991000  1
  C  C1  1  0.99990400  0.13234900  0.19600600  1
  C  C2  1  0.99990700  0.86765300  0.80382500  1
  C  C3  1  0.86743500  0.00000100  0.69607000  1
  C  C4  1  0.13216400  0.99999900  0.30383200  1
  C  C5  1  0.99990100  0.86765300  0.19600600  1
  C  C6  1  0.99990800  0.13234700  0.80382600  1
  C  C7  1  0.13216700  0.99999800  0.69598700  1
  C  C8  1  0.86742500  0.00000300  0.30374500  1
  C  C9  1  0.99985000  0.00000100  0.24989700  1
  C  C10  1  0.99985400  0.00000000  0.74992300  1
  C  C11  1  0.99991500  0.19989100  0.16454000  1
  C  C12  1  0.99991300  0.80018700  0.83534500  1
  C  C13  1  0.79994200  0.00000300  0.66456800  1
  C  C14  1  0.19970600  0.00000100  0.33530700  1
  C  C15  1  0.99991200  0.80011100  0.16454000  1
  C  C16  1  0.99991300  0.19981200  0.83534500  1
  C  C17  1  0.19970800  0.99999400  0.66451100  1
  C  C18  1  0.79993000  0.00000200  0.33524500  1
  C  C19  1  0.99993000  0.61203800  0.93748000  1
  C  C20  1  0.99992700  0.38853900  0.06274000  1
  C  C21  1  0.38838300  0.00000100  0.43713200  1
  C  C22  1  0.61184000  0.99999900  0.56242700  1
  C  C23  1  0.99993100  0.38796200  0.93748000  1
  C  C24  1  0.99992600  0.61146200  0.06274000  1
  C  C25  1  0.61183600  0.00000300  0.43738900  1
  C  C26  1  0.38838600  0.99999500  0.56268700  1
  C  C27  1  0.07370200  0.23101500  0.14871500  1
  C  C28  1  0.92613900  0.76952300  0.85144100  1
  C  C29  1  0.76925700  0.07377600  0.64848700  1
  C  C30  1  0.23088900  0.92622900  0.35110900  1
  C  C31  1  0.92613100  0.76894300  0.14873200  1
  C  C32  1  0.07369200  0.23062300  0.85135300  1
  C  C33  1  0.23083600  0.92622100  0.64868000  1
  C  C34  1  0.76914900  0.07377500  0.35127200  1
  C  C35  1  0.07369200  0.76938500  0.85135700  1
  C  C36  1  0.92613300  0.23106500  0.14873600  1
  C  C37  1  0.76922800  0.92622900  0.35131600  1
  C  C38  1  0.23090300  0.07376600  0.64871600  1
  C  C39  1  0.92614000  0.23046900  0.85144600  1
  C  C40  1  0.07369900  0.76898000  0.14871900  1
  C  C41  1  0.23084800  0.07377400  0.35113000  1
  C  C42  1  0.76914400  0.92623000  0.64855100  1
  C  C43  1  0.07470200  0.29251000  0.11643100  1
  C  C44  1  0.92513600  0.70847200  0.88397100  1
  C  C45  1  0.70819900  0.07477800  0.61595900  1
  C  C46  1  0.29239900  0.92523100  0.38339000  1
  C  C47  1  0.92514100  0.70744500  0.11645000  1
  C  C48  1  0.07470700  0.29168300  0.88387900  1
  C  C49  1  0.29234300  0.92522000  0.61639800  1
  C  C50  1  0.70808700  0.07478000  0.38379700  1
  C  C51  1  0.07470600  0.70832600  0.88388400  1
  C  C52  1  0.92514400  0.29256400  0.11645400  1
  C  C53  1  0.70817200  0.92522500  0.38384400  1
  C  C54  1  0.29241500  0.07476400  0.61643600  1
  C  C55  1  0.92513700  0.29151900  0.88397600  1
  C  C56  1  0.07469900  0.70748500  0.11643500  1
  C  C57  1  0.29235500  0.07477400  0.38341300  1
  C  C58  1  0.70807800  0.92522500  0.61602600  1
  C  C59  1  0.99992500  0.32396800  0.09887700  1
  C  C60  1  0.99992500  0.67655100  0.90129100  1
  C  C61  1  0.67631100  0.00000000  0.59862800  1
  C  C62  1  0.32381600  0.00000200  0.40097600  1
  C  C63  1  0.99992300  0.67603400  0.09887700  1
  C  C64  1  0.99992600  0.32344900  0.90129200  1
  C  C65  1  0.32381900  0.99999200  0.59884200  1
  C  C66  1  0.67630300  0.00000300  0.40118600  1
  C  C67  1  0.99988500  0.07373600  0.22119900  1
  C  C68  1  0.99989000  0.92625300  0.77862000  1
  C  C69  1  0.92606600  0.00000000  0.72125600  1
  C  C70  1  0.07356200  0.00000000  0.27862400  1
  C  C71  1  0.99988300  0.92626500  0.22119900  1
  C  C72  1  0.99989000  0.07374700  0.77862000  1
  C  C73  1  0.07356600  0.99999900  0.72119500  1
  C  C74  1  0.92606000  0.00000300  0.27856200  1
  C  C75  1  0.15549600  0.32106600  0.10248800  1
  C  C76  1  0.84429700  0.68177700  0.89887900  1
  C  C77  1  0.68144900  0.15559400  0.60105600  1
  C  C78  1  0.32101400  0.84443400  0.39728200  1
  C  C79  1  0.84435300  0.67883200  0.10253100  1
  C  C80  1  0.15555100  0.31857100  0.89867700  1
  C  C81  1  0.32088400  0.84442000  0.60246700  1
  C  C82  1  0.68120500  0.15559800  0.39862700  1
  C  C83  1  0.15555000  0.68144800  0.89868700  1
  C  C84  1  0.84435500  0.32118500  0.10254000  1
  C  C85  1  0.68139900  0.84440800  0.39873400  1
  C  C86  1  0.32104800  0.15556000  0.60255300  1
  C  C87  1  0.84429800  0.31820300  0.89889000  1
  C  C88  1  0.15549400  0.67892100  0.10249600  1
  C  C89  1  0.32091400  0.15557400  0.39733500  1
  C  C90  1  0.68117400  0.84440600  0.60120900  1
  C  C91  1  0.15076100  0.19838700  0.16559500  1
  C  C92  1  0.84908200  0.80256100  0.83479200  1
  C  C93  1  0.80228600  0.15082400  0.66514400  1
  C  C94  1  0.19831100  0.84917400  0.33420300  1
  C  C95  1  0.84906600  0.80152800  0.16562700  1
  C  C96  1  0.15074600  0.19773600  0.83461300  1
  C  C97  1  0.19820100  0.84916700  0.66555500  1
  C  C98  1  0.80207600  0.15082300  0.33455600  1
  C  C99  1  0.15074500  0.80228000  0.83462200  1
  C  C100  1  0.84906900  0.19848700  0.16563500  1
  C  C101  1  0.80223600  0.84918200  0.33464500  1
  C  C102  1  0.19833700  0.15082100  0.66562700  1
  C  C103  1  0.84908300  0.19742100  0.83480200  1
  C  C104  1  0.15075800  0.80160200  0.16560200  1
  C  C105  1  0.19822900  0.15082800  0.33424600  1
  C  C106  1  0.80205700  0.84918200  0.66527400  1
  N  N1  1  0.22071000  0.34379100  0.09143300  1
  N  N2  1  0.77904400  0.66058100  0.91072300  1
  N  N3  1  0.66020500  0.22082900  0.58921700  1
  N  N4  1  0.34378700  0.77921700  0.40829600  1
  N  N5  1  0.77914300  0.65606100  0.09149500  1
  N  N6  1  0.22080900  0.33992300  0.91043200  1
  N  N7  1  0.34359700  0.77920000  0.59142200  1
  N  N8  1  0.65985500  0.22083400  0.41040900  1
  N  N9  1  0.22080800  0.66010500  0.91044600  1
  N  N10  1  0.77914600  0.34396300  0.09150800  1
  N  N11  1  0.66013800  0.77917300  0.41056300  1
  N  N12  1  0.34383500  0.22077600  0.59154700  1
  N  N13  1  0.77904500  0.33939000  0.91073800  1
  N  N14  1  0.22070700  0.65618900  0.09144400  1
  N  N15  1  0.34364000  0.22079300  0.40837200  1
  N  N16  1  0.65980600  0.77916900  0.58943900  1
  N  N17  1  0.21282000  0.17203200  0.17924800  1
  N  N18  1  0.78702500  0.82924400  0.82132400  1
  N  N19  1  0.82896200  0.21287400  0.67861900  1
  N  N20  1  0.17199700  0.78711900  0.32052900  1
  N  N21  1  0.78700100  0.82784700  0.17929300  1
  N  N22  1  0.21280100  0.17117400  0.82107100  1
  N  N23  1  0.17184100  0.78711300  0.67920400  1
  N  N24  1  0.82867000  0.21287400  0.32103400  1
  N  N25  1  0.21280000  0.82885000  0.82108500  1
  N  N26  1  0.78700400  0.17217300  0.17930400  1
  N  N27  1  0.82889500  0.78713200  0.32116000  1
  N  N28  1  0.17203200  0.21287700  0.67930600  1
  N  N29  1  0.78702500  0.17073100  0.82133900  1
  N  N30  1  0.21281700  0.82795100  0.17925800  1
  N  N31  1  0.17188300  0.21288200  0.32059000  1
  N  N32  1  0.82864000  0.78713000  0.67880100  1
  O  O1  1  0.92928700  0.58168200  0.95191600  1
  O  O2  1  0.07040900  0.41378000  0.04563800  1
  O  O3  1  0.41355300  0.92936600  0.45423900  1
  O  O4  1  0.58147000  0.07047300  0.54796000  1
  O  O5  1  0.07057400  0.41831700  0.95191700  1
  O  O6  1  0.92944500  0.58622100  0.04563600  1
  O  O7  1  0.58149700  0.07047800  0.45187300  1
  O  O8  1  0.41358100  0.92935900  0.54559200  1
  O  O9  1  0.92944600  0.41377700  0.04563500  1
  O  O10  1  0.07057300  0.58168100  0.95191600  1
  O  O11  1  0.41355300  0.07063100  0.54558000  1
  O  O12  1  0.58147000  0.92952800  0.45185600  1
  O  O13  1  0.07040800  0.58622400  0.04563600  1
  O  O14  1  0.92928700  0.41832100  0.95191400  1
  O  O15  1  0.58150200  0.92952300  0.54794400  1
  O  O16  1  0.41357700  0.07063700  0.45422700  1
