# generated using pymatgen
data_CuH26C33N4O11
_symmetry_space_group_name_H-M   'P 1'
_cell_length_a   24.18229200
_cell_length_b   24.37318000
_cell_length_c   15.48978300
_cell_angle_alpha   90.00000000
_cell_angle_beta   99.28369200
_cell_angle_gamma   90.00000000
_symmetry_Int_Tables_number   1
_chemical_formula_structural   CuH26C33N4O11
_chemical_formula_sum   'Cu4 H104 C132 N16 O44'
_cell_volume   9010.08474626
_cell_formula_units_Z   4
loop_
 _symmetry_equiv_pos_site_id
 _symmetry_equiv_pos_as_xyz
  1  'x, y, z'
loop_
 _atom_site_type_symbol
 _atom_site_label
 _atom_site_symmetry_multiplicity
 _atom_site_fract_x
 _atom_site_fract_y
 _atom_site_fract_z
 _atom_site_occupancy
  Cu  Cu1  1  0.49170100  0.99961800  0.41247800  1
  Cu  Cu2  1  0.50831500  0.99969900  0.58731800  1
  Cu  Cu3  1  0.99147500  0.49940000  0.41244400  1
  Cu  Cu4  1  0.00861800  0.49938000  0.58739500  1
  H  H1  1  0.40058100  0.85089800  0.37466000  1
  H  H2  1  0.65776700  0.08933000  0.63014100  1
  H  H3  1  0.60009100  0.85146700  0.62585000  1
  H  H4  1  0.34231200  0.08935000  0.36921500  1
  H  H5  1  0.90047400  0.35099000  0.37480200  1
  H  H6  1  0.15873500  0.58821500  0.62922600  1
  H  H7  1  0.09873400  0.35005900  0.62456500  1
  H  H8  1  0.84135200  0.58816500  0.37090500  1
  H  H9  1  0.56567200  0.01469400  0.29016100  1
  H  H10  1  0.43395800  0.01468600  0.70854100  1
  H  H11  1  0.06599500  0.51322300  0.29026200  1
  H  H12  1  0.93417700  0.51545900  0.70950700  1
  H  H13  1  0.56678600  0.01435700  0.13713900  1
  H  H14  1  0.43179600  0.01274100  0.86119700  1
  H  H15  1  0.06678800  0.51416100  0.13719800  1
  H  H16  1  0.93277100  0.51482800  0.86237600  1
  H  H17  1  0.60663000  0.98111300  0.90958800  1
  H  H18  1  0.39193100  0.98207100  0.09090000  1
  H  H19  1  0.10708400  0.48085100  0.90985500  1
  H  H20  1  0.89193300  0.48200800  0.09075200  1
  H  H21  1  0.52766000  0.20411400  0.43792200  1
  H  H22  1  0.48895000  0.15762000  0.35911600  1
  H  H23  1  0.51763400  0.22058000  0.32258700  1
  H  H24  1  0.28842100  0.95556100  0.56655600  1
  H  H25  1  0.34125800  0.99558400  0.63478200  1
  H  H26  1  0.29156900  0.95550200  0.68411400  1
  H  H27  1  0.47250600  0.20389700  0.56089800  1
  H  H28  1  0.51119500  0.15778600  0.64031400  1
  H  H29  1  0.48223200  0.22077200  0.67608600  1
  H  H30  1  0.71131700  0.95670100  0.43437400  1
  H  H31  1  0.65875600  0.99639400  0.36497200  1
  H  H32  1  0.70901000  0.95633700  0.31695800  1
  H  H33  1  0.02825900  0.70453300  0.43905900  1
  H  H34  1  0.98883500  0.65807700  0.36101000  1
  H  H35  1  0.01774400  0.72069100  0.32355100  1
  H  H36  1  0.78822100  0.45498600  0.56860800  1
  H  H37  1  0.84068000  0.49540300  0.63698800  1
  H  H38  1  0.79201900  0.45397800  0.68630900  1
  H  H39  1  0.97213700  0.70442300  0.56160700  1
  H  H40  1  0.01118300  0.65819700  0.64052500  1
  H  H41  1  0.98200400  0.72094000  0.67694700  1
  H  H42  1  0.21097600  0.45565200  0.43485100  1
  H  H43  1  0.15850000  0.49584000  0.36619000  1
  H  H44  1  0.20881900  0.45613100  0.31747000  1
  H  H45  1  0.68686900  0.18574500  0.28746900  1
  H  H46  1  0.70722500  0.25682300  0.28189500  1
  H  H47  1  0.63538100  0.23706100  0.24424900  1
  H  H48  1  0.34865200  0.78620900  0.71604600  1
  H  H49  1  0.27908200  0.76775700  0.73481900  1
  H  H50  1  0.30770800  0.83402100  0.76932500  1
  H  H51  1  0.31381000  0.18583200  0.71198000  1
  H  H52  1  0.29317900  0.25679900  0.71788100  1
  H  H53  1  0.36519100  0.23725700  0.75502000  1
  H  H54  1  0.65164300  0.78704900  0.28515100  1
  H  H55  1  0.72103700  0.76749000  0.26693500  1
  H  H56  1  0.69325300  0.83395100  0.23134100  1
  H  H57  1  0.18632300  0.68625200  0.28732900  1
  H  H58  1  0.20657900  0.75736200  0.28186900  1
  H  H59  1  0.13468400  0.73754700  0.24467400  1
  H  H60  1  0.85130400  0.28499700  0.71436600  1
  H  H61  1  0.78242600  0.26605000  0.73593900  1
  H  H62  1  0.81128100  0.33225900  0.77032100  1
  H  H63  1  0.81306500  0.68618100  0.71180200  1
  H  H64  1  0.79342500  0.75747100  0.71767300  1
  H  H65  1  0.86508000  0.73692900  0.75530200  1
  H  H66  1  0.15098100  0.28633500  0.28552500  1
  H  H67  1  0.22033500  0.26767500  0.26582900  1
  H  H68  1  0.19150400  0.33388200  0.23099900  1
  H  H69  1  0.30421600  0.81792200  0.23889100  1
  H  H70  1  0.32615900  0.75085000  0.20835100  1
  H  H71  1  0.37826900  0.80074100  0.25084400  1
  H  H72  1  0.69629400  0.15853600  0.76759300  1
  H  H73  1  0.76970200  0.14419000  0.80384000  1
  H  H74  1  0.72478100  0.09088800  0.75184600  1
  H  H75  1  0.69534400  0.81788500  0.76011300  1
  H  H76  1  0.67464200  0.75055200  0.79132300  1
  H  H77  1  0.62156900  0.79971200  0.74936400  1
  H  H78  1  0.30339700  0.15750500  0.23191000  1
  H  H79  1  0.23000100  0.14320800  0.19561300  1
  H  H80  1  0.27479800  0.08997700  0.24819700  1
  H  H81  1  0.80452300  0.31789200  0.23991300  1
  H  H82  1  0.82587000  0.25081200  0.20851500  1
  H  H83  1  0.87846500  0.30020600  0.25141000  1
  H  H84  1  0.19796000  0.65680700  0.76875800  1
  H  H85  1  0.27125900  0.64143900  0.80322500  1
  H  H86  1  0.22557100  0.58918500  0.75013300  1
  H  H87  1  0.19559900  0.31681500  0.76144000  1
  H  H88  1  0.17361100  0.24963600  0.79112800  1
  H  H89  1  0.12153700  0.29965500  0.74914100  1
  H  H90  1  0.80340400  0.65636100  0.23187000  1
  H  H91  1  0.73001700  0.64196600  0.19589600  1
  H  H92  1  0.77465500  0.58914700  0.24974700  1
  H  H93  1  0.64113400  0.89907900  0.81003200  1
  H  H94  1  0.68485300  0.95615000  0.85539300  1
  H  H95  1  0.69541300  0.92566300  0.75365000  1
  H  H96  1  0.35708500  0.90011800  0.18866600  1
  H  H97  1  0.31293100  0.95781800  0.14714500  1
  H  H98  1  0.30442500  0.92592100  0.24882300  1
  H  H99  1  0.14129000  0.39906000  0.81134100  1
  H  H100  1  0.18475200  0.45671600  0.85523700  1
  H  H101  1  0.19556200  0.42518700  0.75426500  1
  H  H102  1  0.85754500  0.39919300  0.18933200  1
  H  H103  1  0.81355100  0.45624800  0.14505000  1
  H  H104  1  0.80367300  0.42533300  0.24661900  1
  C  C1  1  0.42501700  0.07497400  0.49851600  1
  C  C2  1  0.57530000  0.92467600  0.50087000  1
  C  C3  1  0.57480400  0.07517400  0.50099400  1
  C  C4  1  0.42495700  0.92446600  0.49921500  1
  C  C5  1  0.92510600  0.57489500  0.49876900  1
  C  C6  1  0.07504600  0.42428000  0.50071400  1
  C  C7  1  0.07510700  0.57467900  0.50106100  1
  C  C8  1  0.92486800  0.42440200  0.49924800  1
  C  C9  1  0.38377900  0.87956500  0.49739000  1
  C  C10  1  0.61961700  0.11664600  0.50461100  1
  C  C11  1  0.61654600  0.87989800  0.50278700  1
  C  C12  1  0.38021100  0.11648900  0.49481600  1
  C  C13  1  0.88368500  0.37959900  0.49749800  1
  C  C14  1  0.11999400  0.61624300  0.50463500  1
  C  C15  1  0.11624500  0.37939900  0.50261600  1
  C  C16  1  0.88024000  0.61635400  0.49522000  1
  C  C17  1  0.35320000  0.87057600  0.56466800  1
  C  C18  1  0.62260400  0.15415200  0.43808700  1
  C  C19  1  0.64715200  0.87102900  0.43552500  1
  C  C20  1  0.37734300  0.15415300  0.56117600  1
  C  C21  1  0.85338400  0.37049600  0.56501300  1
  C  C22  1  0.12268800  0.65412900  0.43848400  1
  C  C23  1  0.14690800  0.37064000  0.43542000  1
  C  C24  1  0.87747000  0.65420500  0.56142600  1
  C  C25  1  0.31483700  0.82794600  0.56004600  1
  C  C26  1  0.66455600  0.19372500  0.44760900  1
  C  C27  1  0.68546200  0.82837600  0.44029800  1
  C  C28  1  0.33533900  0.19372100  0.55166600  1
  C  C29  1  0.81527500  0.32770200  0.56056700  1
  C  C30  1  0.16460400  0.69377900  0.44798200  1
  C  C31  1  0.18535600  0.32819400  0.44020900  1
  C  C32  1  0.83545500  0.69379300  0.55189100  1
  C  C33  1  0.30701300  0.79298900  0.48684500  1
  C  C34  1  0.70543100  0.19432300  0.52268700  1
  C  C35  1  0.69292200  0.79301200  0.51300100  1
  C  C36  1  0.29418400  0.19405800  0.47678100  1
  C  C37  1  0.80742300  0.29263700  0.48743300  1
  C  C38  1  0.20578900  0.69413500  0.52291100  1
  C  C39  1  0.19298300  0.29294600  0.51306800  1
  C  C40  1  0.79426200  0.69413400  0.47698300  1
  C  C41  1  0.33863500  0.80175500  0.42090900  1
  C  C42  1  0.70286500  0.15586200  0.58766300  1
  C  C43  1  0.66127800  0.80172400  0.57887100  1
  C  C44  1  0.29678600  0.15555600  0.41179300  1
  C  C45  1  0.83884300  0.30148900  0.42132600  1
  C  C46  1  0.20341600  0.65539000  0.58767900  1
  C  C47  1  0.16127200  0.30149300  0.57890200  1
  C  C48  1  0.79673500  0.65545800  0.41219800  1
  C  C49  1  0.37581500  0.84508800  0.42588800  1
  C  C50  1  0.65949600  0.11863100  0.57898200  1
  C  C51  1  0.62454600  0.84541000  0.57427500  1
  C  C52  1  0.34035200  0.11849100  0.42044500  1
  C  C53  1  0.87569400  0.34508800  0.42603500  1
  C  C54  1  0.16011500  0.61799300  0.57869400  1
  C  C55  1  0.12399700  0.34472200  0.57384700  1
  C  C56  1  0.84002600  0.61801700  0.42126400  1
  C  C57  1  0.47296300  0.00761800  0.75143000  1
  C  C58  1  0.52658900  0.00741200  0.24772600  1
  C  C59  1  0.97320200  0.50787300  0.75182900  1
  C  C60  1  0.02665800  0.50689900  0.24784800  1
  C  C61  1  0.47170500  0.00637700  0.83985700  1
  C  C62  1  0.52726200  0.00686900  0.15909700  1
  C  C63  1  0.97225400  0.50692600  0.84036000  1
  C  C64  1  0.02735800  0.50649400  0.15923200  1
  C  C65  1  0.52062600  0.99768200  0.89703100  1
  C  C66  1  0.47819000  0.99801400  0.10240500  1
  C  C67  1  0.02103900  0.49727400  0.89745500  1
  C  C68  1  0.97825800  0.49753100  0.10248400  1
  C  C69  1  0.56882100  0.98829300  0.86374900  1
  C  C70  1  0.43016200  0.98853300  0.13630300  1
  C  C71  1  0.06914500  0.48770900  0.86396100  1
  C  C72  1  0.93014400  0.48840200  0.13627000  1
  C  C73  1  0.56897500  0.98820700  0.77439900  1
  C  C74  1  0.43050100  0.98811100  0.22578000  1
  C  C75  1  0.06901400  0.48770700  0.77440400  1
  C  C76  1  0.93040100  0.48814000  0.22569300  1
  C  C77  1  0.57744200  0.15754500  0.36288600  1
  C  C78  1  0.52450900  0.18681300  0.37111700  1
  C  C79  1  0.35571700  0.90925300  0.63753000  1
  C  C80  1  0.31679500  0.95700200  0.63036800  1
  C  C81  1  0.42258100  0.15759200  0.63626800  1
  C  C82  1  0.47552600  0.18685500  0.62783400  1
  C  C83  1  0.64471000  0.90982300  0.36262200  1
  C  C84  1  0.68337200  0.95786200  0.37019000  1
  C  C85  1  0.07738000  0.65762000  0.36356200  1
  C  C86  1  0.02461400  0.68707000  0.37231900  1
  C  C87  1  0.85624100  0.40905000  0.63822200  1
  C  C88  1  0.81682900  0.45639700  0.63217000  1
  C  C89  1  0.92260000  0.65765300  0.63665900  1
  C  C90  1  0.97542600  0.68716200  0.62842700  1
  C  C91  1  0.14438100  0.40944500  0.36267300  1
  C  C92  1  0.18310400  0.45733400  0.37063000  1
  C  C93  1  0.65987300  0.23843200  0.38305900  1
  C  C94  1  0.67309100  0.22877900  0.29345100  1
  C  C95  1  0.28133300  0.82523600  0.63134100  1
  C  C96  1  0.30582200  0.80185800  0.71829400  1
  C  C97  1  0.34032400  0.23851200  0.61617200  1
  C  C98  1  0.32738700  0.22891100  0.70595500  1
  C  C99  1  0.71912500  0.82565200  0.36937600  1
  C  C100  1  0.69467600  0.80207300  0.28269900  1
  C  C101  1  0.15955300  0.73864800  0.38351300  1
  C  C102  1  0.17252100  0.72924200  0.29365700  1
  C  C103  1  0.78286900  0.32430300  0.63304300  1
  C  C104  1  0.80865100  0.30037000  0.71880600  1
  C  C105  1  0.84049900  0.73857000  0.61635700  1
  C  C106  1  0.82727100  0.72908400  0.70600300  1
  C  C107  1  0.21861900  0.32541700  0.36879900  1
  C  C108  1  0.19373600  0.30187300  0.28231200  1
  C  C109  1  0.33320300  0.76423400  0.34528300  1
  C  C110  1  0.33582900  0.78505600  0.25553300  1
  C  C111  1  0.74648000  0.15404900  0.66621500  1
  C  C112  1  0.73320000  0.13563300  0.75249700  1
  C  C113  1  0.66666667  0.76396900  0.65427300  1
  C  C114  1  0.66413800  0.78462900  0.74414400  1
  C  C115  1  0.25314900  0.15354700  0.33319600  1
  C  C116  1  0.26645700  0.13473100  0.24713300  1
  C  C117  1  0.83341100  0.26392200  0.34573000  1
  C  C118  1  0.83593400  0.28481400  0.25602600  1
  C  C119  1  0.24728200  0.65327800  0.66606500  1
  C  C120  1  0.23439900  0.63384700  0.75207600  1
  C  C121  1  0.16657800  0.26363000  0.65421900  1
  C  C122  1  0.16395100  0.28404200  0.74428300  1
  C  C123  1  0.75313600  0.65341900  0.33345500  1
  C  C124  1  0.76641200  0.63391300  0.24770500  1
  C  C125  1  0.62244600  0.97547200  0.74450700  1
  C  C126  1  0.66336600  0.93666900  0.79437700  1
  C  C127  1  0.37719300  0.97567000  0.25638200  1
  C  C128  1  0.33547900  0.93752200  0.20667800  1
  C  C129  1  0.12244600  0.47491200  0.74446200  1
  C  C130  1  0.16348600  0.43647200  0.79485800  1
  C  C131  1  0.87687300  0.47536900  0.25579200  1
  C  C132  1  0.83554600  0.43670700  0.20566100  1
  N  N1  1  0.26551000  0.75110900  0.47247700  1
  N  N2  1  0.74660300  0.23615200  0.53906900  1
  N  N3  1  0.73432500  0.75096800  0.52732400  1
  N  N4  1  0.25249000  0.23539500  0.46060300  1
  N  N5  1  0.76642800  0.25025800  0.47333000  1
  N  N6  1  0.24761000  0.73539600  0.53907800  1
  N  N7  1  0.23430400  0.25082200  0.52713000  1
  N  N8  1  0.75251000  0.73546300  0.46083700  1
  N  N9  1  0.52086800  0.99994900  0.71838200  1
  N  N10  1  0.47896700  0.99957700  0.28134500  1
  N  N11  1  0.02080000  0.49969300  0.71849700  1
  N  N12  1  0.97890000  0.49942700  0.28134600  1
  N  N13  1  0.52285900  0.99732200  0.98865700  1
  N  N14  1  0.47565600  0.99820500  0.01065000  1
  N  N15  1  0.02321700  0.49713600  0.98909700  1
  N  N16  1  0.97591600  0.49730800  0.01076000  1
  O  O1  1  0.43702100  0.05702600  0.42414400  1
  O  O2  1  0.56175300  0.94108700  0.57536500  1
  O  O3  1  0.56283500  0.05726000  0.57544100  1
  O  O4  1  0.43844000  0.94083000  0.42476200  1
  O  O5  1  0.93707900  0.55685800  0.42427500  1
  O  O6  1  0.06160300  0.44075000  0.57531100  1
  O  O7  1  0.06298900  0.55694700  0.57556700  1
  O  O8  1  0.93818700  0.44071100  0.42458100  1
  O  O9  1  0.44953700  0.05549800  0.57389100  1
  O  O10  1  0.55157900  0.94502800  0.42563200  1
  O  O11  1  0.55023800  0.05559700  0.42553200  1
  O  O12  1  0.44859000  0.94498500  0.57429900  1
  O  O13  1  0.94975800  0.55550100  0.57415900  1
  O  O14  1  0.05138200  0.44461000  0.42546700  1
  O  O15  1  0.05034900  0.55516300  0.42565800  1
  O  O16  1  0.94846000  0.44496200  0.57441200  1
  O  O17  1  0.58289000  0.13603700  0.29368200  1
  O  O18  1  0.38926600  0.90218300  0.70431800  1
  O  O19  1  0.41723100  0.13602600  0.70547900  1
  O  O20  1  0.61162600  0.90249400  0.29536800  1
  O  O21  1  0.08247800  0.63589100  0.29435500  1
  O  O22  1  0.89017900  0.40203100  0.70461300  1
  O  O23  1  0.91712600  0.63620200  0.70587300  1
  O  O24  1  0.11114600  0.40233200  0.29557300  1
  O  O25  1  0.64823200  0.28465300  0.40442300  1
  O  O26  1  0.23324000  0.84215000  0.61942900  1
  O  O27  1  0.35210100  0.28463300  0.59462200  1
  O  O28  1  0.76728600  0.84238600  0.38151600  1
  O  O29  1  0.14772800  0.78474200  0.40516600  1
  O  O30  1  0.73490300  0.34151100  0.62338600  1
  O  O31  1  0.85271200  0.78460100  0.59498400  1
  O  O32  1  0.26675200  0.34220000  0.38019500  1
  O  O33  1  0.32601500  0.71525300  0.35514700  1
  O  O34  1  0.79455100  0.16722300  0.66150500  1
  O  O35  1  0.67399400  0.71502600  0.64424100  1
  O  O36  1  0.20507000  0.16676800  0.33772500  1
  O  O37  1  0.82613300  0.21495200  0.35549600  1
  O  O38  1  0.29528700  0.66666667  0.66134900  1
  O  O39  1  0.17371800  0.21467700  0.64384900  1
  O  O40  1  0.70507300  0.66688200  0.33770100  1
  O  O41  1  0.63500400  0.99750600  0.68008800  1
  O  O42  1  0.36534500  0.99731000  0.32157600  1
  O  O43  1  0.13497200  0.49696300  0.68005700  1
  O  O44  1  0.86457100  0.49705600  0.32069200  1
