# generated using pymatgen
data_Zn2H19C28Br(NO4)2
_symmetry_space_group_name_H-M   'P 1'
_cell_length_a   8.51321300
_cell_length_b   9.08524500
_cell_length_c   13.06327500
_cell_angle_alpha   90.59041800
_cell_angle_beta   86.47497800
_cell_angle_gamma   93.28357800
_symmetry_Int_Tables_number   1
_chemical_formula_structural   Zn2H19C28Br(NO4)2
_chemical_formula_sum   'Zn2 H19 C28 Br1 N2 O8'
_cell_volume   1006.78358860
_cell_formula_units_Z   1
loop_
 _symmetry_equiv_pos_site_id
 _symmetry_equiv_pos_as_xyz
  1  'x, y, z'
loop_
 _atom_site_type_symbol
 _atom_site_label
 _atom_site_symmetry_multiplicity
 _atom_site_fract_x
 _atom_site_fract_y
 _atom_site_fract_z
 _atom_site_occupancy
  Zn  Zn1  1  0.44520000  0.16744500  0.49421300  1
  Zn  Zn2  1  0.43478300  0.83781200  0.49670400  1
  H  H1  1  0.36405700  0.99252900  0.18329600  1
  H  H2  1  0.39642000  0.99645200  0.99823200  1
  H  H3  1  0.95336800  0.03757600  0.56818600  1
  H  H4  1  0.64835400  0.00233900  0.83497600  1
  H  H5  1  0.75282900  0.99949700  0.99227200  1
  H  H6  1  0.29123200  0.99439300  0.83552000  1
  H  H7  1  0.72503200  0.03485600  0.14670000  1
  H  H8  1  0.93085300  0.95758500  0.42159300  1
  H  H9  1  0.60568500  0.38748900  0.36340700  1
  H  H10  1  0.67817200  0.65415500  0.45093900  1
  H  H11  1  0.54658900  0.61660400  0.34793600  1
  H  H12  1  0.32967100  0.38719700  0.35664900  1
  H  H13  1  0.26591200  0.61427900  0.38156900  1
  H  H14  1  0.30319500  0.39610100  0.62847000  1
  H  H15  1  0.50723200  0.37342700  0.64831500  1
  H  H16  1  0.57761400  0.61286600  0.61777700  1
  H  H17  1  0.37254800  0.63625200  0.65395500  1
  H  H18  1  0.20075300  0.34791900  0.47021700  1
  H  H19  1  0.19025300  0.58770200  0.51308600  1
  C  C1  1  0.97936200  0.00629200  0.13145600  1
  C  C2  1  0.11157600  0.99827800  0.18847800  1
  C  C3  1  0.26041100  0.99747200  0.14002000  1
  C  C4  1  0.27926700  0.99902900  0.03491000  1
  C  C5  1  0.15000800  0.00009000  0.97670800  1
  C  C6  1  0.99955900  0.00414700  0.02399200  1
  C  C7  1  0.17314400  0.99664900  0.87072000  1
  C  C8  1  0.04645300  0.99906800  0.81012200  1
  C  C9  1  0.89621000  0.00201600  0.85692600  1
  C  C10  1  0.87294100  0.00193600  0.96207700  1
  C  C11  1  0.06565900  0.00224200  0.70363100  1
  C  C12  1  0.93635500  0.02076000  0.64882000  1
  C  C13  1  0.78728500  0.01706000  0.69458900  1
  C  C14  1  0.76626300  0.00517700  0.79897500  1
  C  C15  1  0.83134300  0.01729500  0.18388900  1
  C  C16  1  0.81609700  0.00360600  0.28914600  1
  C  C17  1  0.94573800  0.97908300  0.34140800  1
  C  C18  1  0.09355600  0.98730700  0.29414400  1
  C  C19  1  0.65408200  0.01380600  0.62995300  1
  C  C20  1  0.66540200  0.00676500  0.34973800  1
  C  C21  1  0.22634500  0.99119300  0.36008200  1
  C  C22  1  0.21630200  0.99878000  0.64262300  1
  C  C23  1  0.58587200  0.43229900  0.44188700  1
  C  C24  1  0.56683300  0.59583900  0.42947200  1
  C  C25  1  0.31088700  0.40785800  0.44020500  1
  C  C26  1  0.42547200  0.42110500  0.59689500  1
  C  C27  1  0.29123600  0.57126100  0.45718500  1
  C  C28  1  0.45514900  0.58691700  0.59632700  1
  Br  Br1  1  0.76792600  0.40216200  0.51912900  1
  N  N1  1  0.44487600  0.36145100  0.49294700  1
  N  N2  1  0.43423200  0.64376800  0.49467900  1
  O  O1  1  0.60157900  0.88462000  0.59683800  1
  O  O2  1  0.60545800  0.13921300  0.59859100  1
  O  O3  1  0.61892800  0.13421700  0.38567700  1
  O  O4  1  0.60386100  0.88007500  0.38438500  1
  O  O5  1  0.27916100  0.12008100  0.39348900  1
  O  O6  1  0.27501600  0.86648500  0.39205700  1
  O  O7  1  0.26139800  0.87107000  0.60555500  1
  O  O8  1  0.27612800  0.12539100  0.60654600  1
