# generated using pymatgen
data_Zn6H68C115O24
_symmetry_space_group_name_H-M   'P 1'
_cell_length_a   19.04620900
_cell_length_b   19.00170600
_cell_length_c   18.87507200
_cell_angle_alpha   109.56352100
_cell_angle_beta   109.65609100
_cell_angle_gamma   109.51176400
_symmetry_Int_Tables_number   1
_chemical_formula_structural   Zn6H68C115O24
_chemical_formula_sum   'Zn6 H68 C115 O24'
_cell_volume   5237.84570490
_cell_formula_units_Z   1
loop_
 _symmetry_equiv_pos_site_id
 _symmetry_equiv_pos_as_xyz
  1  'x, y, z'
loop_
 _atom_site_type_symbol
 _atom_site_label
 _atom_site_symmetry_multiplicity
 _atom_site_fract_x
 _atom_site_fract_y
 _atom_site_fract_z
 _atom_site_occupancy
  Zn  Zn1  1  0.00551700  0.94284500  0.43636500  1
  Zn  Zn2  1  0.01256200  0.07671900  0.58513300  1
  Zn  Zn3  1  0.43752800  0.50098700  0.42676000  1
  Zn  Zn4  1  0.57022300  0.49627400  0.56578700  1
  Zn  Zn5  1  0.43051300  0.92213000  0.99543700  1
  Zn  Zn6  1  0.57386000  0.06302700  0.00510700  1
  H  H1  1  0.66615400  0.66410100  0.20900400  1
  H  H2  1  0.95661800  0.93616000  0.67340000  1
  H  H3  1  0.95540300  0.95079800  0.80301900  1
  H  H4  1  0.83087300  0.84812000  0.79654300  1
  H  H5  1  0.71037500  0.72811500  0.65990900  1
  H  H6  1  0.59202300  0.54124800  0.34119600  1
  H  H7  1  0.57616400  0.53579500  0.20760200  1
  H  H8  1  0.77578500  0.79451400  0.34366400  1
  H  H9  1  0.41206600  0.60555800  0.99309900  1
  H  H10  1  0.39610800  0.71394000  0.09214100  1
  H  H11  1  0.51721800  0.86299000  0.19203800  1
  H  H12  1  0.67112700  0.79515400  0.09508600  1
  H  H13  1  0.55010900  0.64617400  0.99555400  1
  H  H14  1  0.74131000  0.87838400  0.27450300  1
  H  H15  1  0.75459600  0.13753000  0.26698100  1
  H  H16  1  0.81645300  0.22311200  0.43991500  1
  H  H17  1  0.93756100  0.37176700  0.54115900  1
  H  H18  1  0.08073600  0.40878300  0.55736800  1
  H  H19  1  0.10262700  0.29659700  0.47225100  1
  H  H20  1  0.98217800  0.14790400  0.37129900  1
  H  H21  1  0.99224200  0.76257600  0.65050600  1
  H  H22  1  0.25930500  0.10456400  0.62745500  1
  H  H23  1  0.40327000  0.17140100  0.65228500  1
  H  H24  1  0.51037400  0.14178600  0.73161700  1
  H  H25  1  0.47334300  0.04611100  0.78550900  1
  H  H26  1  0.24856700  0.81782300  0.77460600  1
  H  H27  1  0.09921300  0.72872700  0.72253200  1
  H  H28  1  0.03609000  0.88311200  0.62815100  1
  H  H29  1  0.47904800  0.29371400  0.90696300  1
  H  H30  1  0.60150800  0.40022600  0.05559100  1
  H  H31  1  0.60535800  0.37863000  0.17765300  1
  H  H32  1  0.36364700  0.14368600  0.00246600  1
  H  H33  1  0.35883600  0.16749000  0.88143900  1
  H  H34  1  0.48963700  0.36437300  0.23255700  1
  H  H35  1  0.49284100  0.11387800  0.25091300  1
  H  H36  1  0.61220600  0.20118600  0.40785500  1
  H  H37  1  0.62290000  0.17884100  0.53066100  1
  H  H38  1  0.52324600  0.18773200  0.58431600  1
  H  H39  1  0.41194300  0.21837900  0.51381200  1
  H  H40  1  0.40074500  0.24031900  0.39067600  1
  H  H41  1  0.17031300  0.15371900  0.10063200  1
  H  H42  1  0.15835800  0.27582300  0.18365100  1
  H  H43  1  0.19078100  0.31838600  0.33378700  1
  H  H44  1  0.24606300  0.11583000  0.31797400  1
  H  H45  1  0.21279000  0.07293500  0.16758400  1
  H  H46  1  0.13443200  0.12474400  0.37613300  1
  H  H47  1  0.17634000  0.36274500  0.64481000  1
  H  H48  1  0.17827100  0.40177200  0.78352800  1
  H  H49  1  0.26073500  0.36999500  0.88774400  1
  H  H50  1  0.34179200  0.30027800  0.85315000  1
  H  H51  1  0.34112600  0.26287400  0.71500600  1
  H  H52  1  0.13508500  0.48384900  0.37927800  1
  H  H53  1  0.23253900  0.62830500  0.41194900  1
  H  H54  1  0.37087300  0.72451700  0.55000600  1
  H  H55  1  0.31210300  0.53390500  0.62466200  1
  H  H56  1  0.17527500  0.43676400  0.48552900  1
  H  H57  1  0.37940900  0.75153200  0.73984200  1
  H  H58  1  0.64338200  0.74807400  0.76682600  1
  H  H59  1  0.73158700  0.91060300  0.83334400  1
  H  H60  1  0.87559100  0.01613600  0.96100200  1
  H  H61  1  0.90204200  0.04308600  0.10688900  1
  H  H62  1  0.78400400  0.96297700  0.12445000  1
  H  H63  1  0.63970000  0.85663900  0.99685500  1
  H  H64  1  0.36016500  0.45586500  0.70160600  1
  H  H65  1  0.41158900  0.47972300  0.64469500  1
  H  H66  1  0.45413600  0.35875200  0.68907400  1
  H  H67  1  0.52805400  0.55085100  0.81055700  1
  H  H68  1  0.57706000  0.48219400  0.82468200  1
  C  C1  1  0.88731000  0.01757600  0.40154500  1
  C  C2  1  0.89131900  0.88483100  0.50730700  1
  C  C3  1  0.13103200  0.00176200  0.61936700  1
  C  C4  1  0.12692500  0.13493100  0.51489700  1
  C  C5  1  0.89975500  0.88859600  0.66517900  1
  C  C6  1  0.90064600  0.89736900  0.74077400  1
  C  C7  1  0.83138000  0.83980400  0.73723000  1
  C  C8  1  0.76330600  0.77040000  0.65828300  1
  C  C9  1  0.76347600  0.75759000  0.58118100  1
  C  C10  1  0.82943500  0.82091000  0.58388600  1
  C  C11  1  0.69807000  0.68297600  0.50205300  1
  C  C12  1  0.69529700  0.67530200  0.42505900  1
  C  C13  1  0.75386500  0.74391700  0.42654600  1
  C  C14  1  0.82406000  0.81560800  0.50609200  1
  C  C15  1  0.63386500  0.59931200  0.34574800  1
  C  C16  1  0.62482700  0.59482600  0.26878500  1
  C  C17  1  0.67558900  0.66622300  0.26961900  1
  C  C18  1  0.73961300  0.74012400  0.34757600  1
  C  C19  1  0.45613700  0.73214300  0.09184700  1
  C  C20  1  0.52394000  0.81597900  0.14742600  1
  C  C21  1  0.60031900  0.83990900  0.14631300  1
  C  C22  1  0.61023400  0.77797300  0.09341400  1
  C  C23  1  0.54244200  0.69415300  0.03779100  1
  C  C24  1  0.46514200  0.67134900  0.03651900  1
  C  C25  1  0.74411400  0.93559100  0.27309900  1
  C  C26  1  0.81584200  0.01525900  0.33682200  1
  C  C27  1  0.81791700  0.08867700  0.33624200  1
  C  C28  1  0.75043300  0.08031000  0.26936100  1
  C  C29  1  0.67886600  0.00044400  0.20487200  1
  C  C30  1  0.67435500  0.92736200  0.20919000  1
  C  C31  1  0.87955200  0.23882300  0.44759100  1
  C  C32  1  0.94743400  0.32236400  0.50435300  1
  C  C33  1  0.02763500  0.34308300  0.51337200  1
  C  C34  1  0.03999100  0.28013800  0.46592700  1
  C  C35  1  0.97239000  0.19638300  0.40976800  1
  C  C36  1  0.89199500  0.17539100  0.40084800  1
  C  C37  1  0.30490800  0.09226900  0.66601200  1
  C  C38  1  0.38699300  0.13089400  0.67962200  1
  C  C39  1  0.44706800  0.11495800  0.72462000  1
  C  C40  1  0.42618100  0.06281400  0.75868100  1
  C  C41  1  0.34493900  0.02708900  0.75034600  1
  C  C42  1  0.28258400  0.03886700  0.69952200  1
  C  C43  1  0.32292200  0.97521400  0.78628900  1
  C  C44  1  0.23482600  0.91672800  0.74828400  1
  C  C45  1  0.17321700  0.93017800  0.69926600  1
  C  C46  1  0.19788100  0.99564400  0.68015700  1
  C  C47  1  0.20607000  0.84083200  0.75186000  1
  C  C48  1  0.11991300  0.78685200  0.71842400  1
  C  C49  1  0.06013200  0.80529700  0.67756000  1
  C  C50  1  0.08624400  0.87507700  0.66590200  1
  C  C51  1  0.50051800  0.37414000  0.37781000  1
  C  C52  1  0.62910500  0.61473400  0.49913400  1
  C  C53  1  0.50624700  0.62210600  0.61501000  1
  C  C54  1  0.37838900  0.38318200  0.49387400  1
  C  C55  1  0.48992500  0.10970400  0.10956400  1
  C  C56  1  0.61414700  0.99618300  0.13101800  1
  C  C57  1  0.51457000  0.87580300  0.89087400  1
  C  C58  1  0.38946600  0.98514100  0.86576700  1
  C  C59  1  0.54943700  0.34372800  0.04393700  1
  C  C60  1  0.55143300  0.33156600  0.11242900  1
  C  C61  1  0.48574300  0.25874700  0.09759300  1
  C  C62  1  0.41650500  0.19964400  0.01430400  1
  C  C63  1  0.41383100  0.21280400  0.94617900  1
  C  C64  1  0.48082500  0.28407800  0.96069400  1
  C  C65  1  0.49022400  0.30927200  0.23693400  1
  C  C66  1  0.49553400  0.30358500  0.30932500  1
  C  C67  1  0.49805400  0.23326400  0.31545400  1
  C  C68  1  0.49192600  0.16912300  0.24719000  1
  C  C69  1  0.48750500  0.17554500  0.17535700  1
  C  C70  1  0.48819900  0.24711100  0.17099700  1
  C  C71  1  0.56771000  0.20482300  0.43049300  1
  C  C72  1  0.57407100  0.19248800  0.49987100  1
  C  C73  1  0.51828500  0.19748400  0.52998200  1
  C  C74  1  0.45600400  0.21469800  0.49052800  1
  C  C75  1  0.44972800  0.22710700  0.42124100  1
  C  C76  1  0.50593900  0.22306300  0.39121000  1
  C  C77  1  0.17912900  0.24163300  0.21372100  1
  C  C78  1  0.19835700  0.26613300  0.29842200  1
  C  C79  1  0.22631300  0.22360300  0.33769400  1
  C  C80  1  0.22826000  0.15213400  0.28921600  1
  C  C81  1  0.20935100  0.12780100  0.20462400  1
  C  C82  1  0.18548700  0.17300700  0.16707900  1
  C  C83  1  0.18595600  0.18550600  0.43406300  1
  C  C84  1  0.19110600  0.20311000  0.51312500  1
  C  C85  1  0.25411200  0.28410500  0.58629700  1
  C  C86  1  0.31532500  0.34360400  0.58021400  1
  C  C87  1  0.30995600  0.32395500  0.49960200  1
  C  C88  1  0.24167800  0.24605700  0.42581600  1
  C  C89  1  0.21197700  0.34815200  0.69007400  1
  C  C90  1  0.21337400  0.37038600  0.76812400  1
  C  C91  1  0.25959200  0.35264800  0.82650400  1
  C  C92  1  0.30503900  0.31349700  0.80706500  1
  C  C93  1  0.30391800  0.29160700  0.72913600  1
  C  C94  1  0.25646100  0.30778500  0.66984400  1
  C  C95  1  0.25023600  0.60736200  0.45849400  1
  C  C96  1  0.32769000  0.66134400  0.53595600  1
  C  C97  1  0.35076400  0.63437600  0.59506800  1
  C  C98  1  0.29521200  0.55425700  0.57759300  1
  C  C99  1  0.21810600  0.50003000  0.49982200  1
  C  C100  1  0.19563800  0.52644700  0.44019500  1
  C  C101  1  0.43750400  0.75020300  0.74643400  1
  C  C102  1  0.51490500  0.81036900  0.82283200  1
  C  C103  1  0.59025000  0.81188800  0.82913400  1
  C  C104  1  0.58532400  0.74919400  0.76069300  1
  C  C105  1  0.50778300  0.68896800  0.68413800  1
  C  C106  1  0.43367900  0.69158300  0.67623700  1
  C  C107  1  0.74251900  0.92160600  0.89708500  1
  C  C108  1  0.82358500  0.98131000  0.96888600  1
  C  C109  1  0.83840500  0.99646600  0.05061300  1
  C  C110  1  0.77211600  0.95172800  0.06044700  1
  C  C111  1  0.69092300  0.89220600  0.98869500  1
  C  C112  1  0.67550900  0.87721400  0.90664600  1
  C  C113  1  0.38525400  0.42966600  0.66062500  1
  C  C114  1  0.45700800  0.42067800  0.71247600  1
  C  C115  1  0.52483900  0.48875400  0.78714100  1
  O  O1  1  0.91150900  0.96255000  0.37233500  1
  O  O2  1  0.92134300  0.07044100  0.48490100  1
  O  O3  1  0.92002700  0.86305000  0.45386300  1
  O  O4  1  0.91968300  0.96590000  0.56124000  1
  O  O5  1  0.09851800  0.95092900  0.53627100  1
  O  O6  1  0.10481400  0.05492900  0.64942400  1
  O  O7  1  0.09619200  0.05390300  0.45818200  1
  O  O8  1  0.10011700  0.15669600  0.56981600  1
  O  O9  1  0.45073700  0.40549300  0.35409600  1
  O  O10  1  0.55430300  0.40336300  0.45939200  1
  O  O11  1  0.54873500  0.59054000  0.44808000  1
  O  O12  1  0.65032900  0.58258700  0.54926900  1
  O  O13  1  0.45290900  0.59319300  0.53329900  1
  O  O14  1  0.55803200  0.59264800  0.63851200  1
  O  O15  1  0.35735700  0.41408100  0.44262000  1
  O  O16  1  0.45890500  0.40777700  0.54543700  1
  O  O17  1  0.44055600  0.02811700  0.08247800  1
  O  O18  1  0.54519000  0.13524400  0.08451200  1
  O  O19  1  0.53239900  0.94114600  0.09614100  1
  O  O20  1  0.64101700  0.05035800  0.10459900  1
  O  O21  1  0.45766600  0.84976300  0.91421800  1
  O  O22  1  0.56554200  0.95738100  0.91971300  1
  O  O23  1  0.36375800  0.93814300  0.89890300  1
  O  O24  1  0.47128800  0.04336100  0.90422900  1
