# generated using pymatgen
data_ZnH13C25S2NO4
_symmetry_space_group_name_H-M   'P 1'
_cell_length_a   8.56685700
_cell_length_b   13.43635300
_cell_length_c   17.51475400
_cell_angle_alpha   90.00000000
_cell_angle_beta   90.00000000
_cell_angle_gamma   90.00000000
_symmetry_Int_Tables_number   1
_chemical_formula_structural   ZnH13C25S2NO4
_chemical_formula_sum   'Zn2 H26 C50 S4 N2 O8'
_cell_volume   2016.07630149
_cell_formula_units_Z   2
loop_
 _symmetry_equiv_pos_site_id
 _symmetry_equiv_pos_as_xyz
  1  'x, y, z'
loop_
 _atom_site_type_symbol
 _atom_site_label
 _atom_site_symmetry_multiplicity
 _atom_site_fract_x
 _atom_site_fract_y
 _atom_site_fract_z
 _atom_site_occupancy
  Zn  Zn1  1  0.49999800  0.49279400  0.08623500  1
  Zn  Zn2  1  0.49999800  0.50720600  0.91376500  1
  H  H1  1  0.24947800  0.83683600  0.99566100  1
  H  H2  1  0.75051900  0.16316400  0.00433900  1
  H  H3  1  0.24947800  0.16316400  0.00433900  1
  H  H4  1  0.75052000  0.83683600  0.99566100  1
  H  H5  1  0.99999800  0.56808400  0.02954800  1
  H  H6  1  0.99999800  0.43191600  0.97045200  1
  H  H7  1  0.50000500  0.33161900  0.19576800  1
  H  H8  1  0.50000500  0.66838100  0.80423200  1
  H  H9  1  0.49999800  0.64403700  0.18996600  1
  H  H10  1  0.49999800  0.35596300  0.81003400  1
  H  H11  1  0.50003400  0.24664800  0.31513000  1
  H  H12  1  0.50003400  0.75335200  0.68487000  1
  H  H13  1  0.50000600  0.73762500  0.30386000  1
  H  H14  1  0.50000600  0.26237500  0.69614000  1
  H  H15  1  0.24989800  0.03899100  0.39024500  1
  H  H16  1  0.24083300  0.17325900  0.39200800  1
  H  H17  1  0.24490700  0.10333300  0.48088700  1
  H  H18  1  0.24989800  0.96100900  0.60975500  1
  H  H19  1  0.24083400  0.82674100  0.60799200  1
  H  H20  1  0.24490700  0.89666700  0.51911300  1
  H  H21  1  0.75023900  0.94534600  0.36280800  1
  H  H22  1  0.75879200  0.81355300  0.38226000  1
  H  H23  1  0.75532900  0.90220500  0.46066800  1
  H  H24  1  0.75023800  0.05465300  0.63719200  1
  H  H25  1  0.75879200  0.18644700  0.61774000  1
  H  H26  1  0.75532900  0.09779500  0.53933200  1
  C  C1  1  0.13939100  0.69504800  0.00871700  1
  C  C2  1  0.86060500  0.30495200  0.99128300  1
  C  C3  1  0.13939100  0.30495200  0.99128400  1
  C  C4  1  0.86060500  0.69504800  0.00871700  1
  C  C5  1  0.14018200  0.79704300  0.00007900  1
  C  C6  1  0.85981500  0.20295700  0.99992100  1
  C  C7  1  0.14018200  0.20295700  0.99992100  1
  C  C8  1  0.85981500  0.79704300  0.00007900  1
  C  C9  1  0.99999900  0.84835900  0.99960700  1
  C  C10  1  0.99999900  0.15164100  0.00039300  1
  C  C11  1  0.99999800  0.64640000  0.01816200  1
  C  C12  1  0.99999800  0.35360000  0.98183800  1
  C  C13  1  0.99999900  0.95516100  0.99951300  1
  C  C14  1  0.99999900  0.04483900  0.00048700  1
  C  C15  1  0.28118400  0.63478800  0.00524700  1
  C  C16  1  0.71881100  0.36521200  0.99475300  1
  C  C17  1  0.28118400  0.36521200  0.99475300  1
  C  C18  1  0.71881100  0.63478800  0.00524700  1
  C  C19  1  0.50000200  0.40180800  0.22593700  1
  C  C20  1  0.50000200  0.59819200  0.77406300  1
  C  C21  1  0.49999600  0.57588400  0.22271900  1
  C  C22  1  0.49999600  0.42411600  0.77728200  1
  C  C23  1  0.50000300  0.31617100  0.34593200  1
  C  C24  1  0.50000300  0.68382900  0.65406800  1
  C  C25  1  0.50001500  0.67074700  0.33793100  1
  C  C26  1  0.50001500  0.32925300  0.66206900  1
  C  C27  1  0.49999800  0.40366800  0.30493300  1
  C  C28  1  0.49999800  0.59633200  0.69506700  1
  C  C29  1  0.50000100  0.58004200  0.30127900  1
  C  C30  1  0.50000100  0.41995800  0.69872100  1
  C  C31  1  0.49999800  0.49342600  0.34274700  1
  C  C32  1  0.49999800  0.50657400  0.65725300  1
  C  C33  1  0.50000000  0.23119000  0.46693400  1
  C  C34  1  0.50000000  0.76881000  0.53306600  1
  C  C35  1  0.50004000  0.76556900  0.45449000  1
  C  C36  1  0.50003900  0.23443100  0.54551000  1
  C  C37  1  0.49999600  0.31856400  0.42501900  1
  C  C38  1  0.49999600  0.68143600  0.57498100  1
  C  C39  1  0.50002900  0.67491800  0.41685100  1
  C  C40  1  0.50002900  0.32508200  0.58314900  1
  C  C41  1  0.50000500  0.40916300  0.46263700  1
  C  C42  1  0.50000500  0.59083700  0.53736300  1
  C  C43  1  0.50001300  0.58754100  0.45854900  1
  C  C44  1  0.50001300  0.41245900  0.54145200  1
  C  C45  1  0.50000400  0.49670600  0.42138200  1
  C  C46  1  0.50000400  0.50329400  0.57861800  1
  C  C47  1  0.28831300  0.10663000  0.42128800  1
  C  C48  1  0.28831300  0.89337000  0.57871200  1
  C  C49  1  0.71168100  0.88581000  0.40239900  1
  C  C50  1  0.71168100  0.11419000  0.59760100  1
  S  S1  1  0.49989300  0.11199400  0.42138400  1
  S  S2  1  0.49989300  0.88800500  0.57861700  1
  S  S3  1  0.50008600  0.88080700  0.40329100  1
  S  S4  1  0.50008600  0.11919300  0.59670900  1
  N  N1  1  0.49999700  0.48765600  0.18626200  1
  N  N2  1  0.49999700  0.51234400  0.81373800  1
  O  O1  1  0.33398300  0.60886700  0.93766600  1
  O  O2  1  0.66601500  0.39113500  0.06233400  1
  O  O3  1  0.66728000  0.40417400  0.93093000  1
  O  O4  1  0.33271100  0.59582300  0.06907000  1
  O  O5  1  0.33398300  0.39113300  0.06233400  1
  O  O6  1  0.66601500  0.60886500  0.93766600  1
  O  O7  1  0.66728000  0.59582600  0.06907000  1
  O  O8  1  0.33271100  0.40417700  0.93093000  1
