# generated using pymatgen
data_Cu3H28(C24O7)2
_symmetry_space_group_name_H-M   'P 1'
_cell_length_a   36.55960700
_cell_length_b   29.83365000
_cell_length_c   21.24741800
_cell_angle_alpha   90.00000000
_cell_angle_beta   54.66484300
_cell_angle_gamma   90.00000000
_symmetry_Int_Tables_number   1
_chemical_formula_structural   Cu3H28(C24O7)2
_chemical_formula_sum   'Cu12 H112 C192 O56'
_cell_volume   18905.52086718
_cell_formula_units_Z   4
loop_
 _symmetry_equiv_pos_site_id
 _symmetry_equiv_pos_as_xyz
  1  'x, y, z'
loop_
 _atom_site_type_symbol
 _atom_site_label
 _atom_site_symmetry_multiplicity
 _atom_site_fract_x
 _atom_site_fract_y
 _atom_site_fract_z
 _atom_site_occupancy
  Cu  Cu1  1  0.00000000  0.54021700  0.50000000  1
  Cu  Cu2  1  0.50000000  0.04021700  0.50000000  1
  Cu  Cu3  1  0.00000000  0.45273100  0.50000000  1
  Cu  Cu4  1  0.50000000  0.95273100  0.50000000  1
  Cu  Cu5  1  0.95530600  0.50186100  0.04471200  1
  Cu  Cu6  1  0.04469400  0.50186100  0.95528800  1
  Cu  Cu7  1  0.45530600  0.00186100  0.04471200  1
  Cu  Cu8  1  0.54469400  0.00186100  0.95528800  1
  Cu  Cu9  1  0.50048600  0.50217800  0.93833900  1
  Cu  Cu10  1  0.49951400  0.50217800  0.06166100  1
  Cu  Cu11  1  0.00048600  0.00217800  0.93833900  1
  Cu  Cu12  1  0.99951400  0.00217800  0.06166100  1
  H  H1  1  0.98550900  0.56902800  0.31824000  1
  H  H2  1  0.01449100  0.56902800  0.68176000  1
  H  H3  1  0.48550900  0.06902800  0.31824000  1
  H  H4  1  0.51449100  0.06902800  0.68176000  1
  H  H5  1  0.93682500  0.53296700  0.36860600  1
  H  H6  1  0.06317500  0.53296700  0.63139400  1
  H  H7  1  0.43682500  0.03296700  0.36860600  1
  H  H8  1  0.56317500  0.03296700  0.63139400  1
  H  H9  1  0.93534800  0.53164100  0.26500000  1
  H  H10  1  0.06465200  0.53164100  0.73499900  1
  H  H11  1  0.43534800  0.03164100  0.26500000  1
  H  H12  1  0.56465200  0.03164100  0.73499900  1
  H  H13  1  0.98228000  0.56990300  0.21662200  1
  H  H14  1  0.01772000  0.56990300  0.78337800  1
  H  H15  1  0.48228000  0.06990300  0.21662200  1
  H  H16  1  0.51772000  0.06990300  0.78337800  1
  H  H17  1  0.05846300  0.53953900  0.24454800  1
  H  H18  1  0.94153700  0.53953900  0.75545100  1
  H  H19  1  0.55846300  0.03953900  0.24454800  1
  H  H20  1  0.44153700  0.03953900  0.75545100  1
  H  H21  1  0.06093400  0.53944300  0.13842500  1
  H  H22  1  0.93906600  0.53944300  0.86157500  1
  H  H23  1  0.56093400  0.03944300  0.13842500  1
  H  H24  1  0.43906600  0.03944300  0.86157500  1
  H  H25  1  0.99752100  0.42445300  0.30481800  1
  H  H26  1  0.00247900  0.42445300  0.69518200  1
  H  H27  1  0.49752100  0.92445300  0.30481800  1
  H  H28  1  0.50247900  0.92445300  0.69518200  1
  H  H29  1  0.94456400  0.45251000  0.35359900  1
  H  H30  1  0.05543600  0.45251000  0.64640100  1
  H  H31  1  0.44456400  0.95251000  0.35359900  1
  H  H32  1  0.55543600  0.95251000  0.64640100  1
  H  H33  1  0.94897500  0.44885200  0.24418900  1
  H  H34  1  0.05102500  0.44885200  0.75581100  1
  H  H35  1  0.44897500  0.94885200  0.24418900  1
  H  H36  1  0.55102500  0.94885200  0.75581100  1
  H  H37  1  0.00576100  0.42807200  0.19116000  1
  H  H38  1  0.99423900  0.42807200  0.80884000  1
  H  H39  1  0.50576100  0.92807200  0.19116000  1
  H  H40  1  0.49423900  0.92807200  0.80884000  1
  H  H41  1  0.06999000  0.47963900  0.12713400  1
  H  H42  1  0.93001000  0.47963900  0.87286600  1
  H  H43  1  0.56999000  0.97963900  0.12713400  1
  H  H44  1  0.43001000  0.97963900  0.87286600  1
  H  H45  1  0.63719200  0.44181300  0.92009400  1
  H  H46  1  0.36280800  0.44181300  0.07990600  1
  H  H47  1  0.13719200  0.94181300  0.92009400  1
  H  H48  1  0.86280800  0.94181300  0.07990600  1
  H  H49  1  0.64043700  0.56149600  0.80766900  1
  H  H50  1  0.35956300  0.56149600  0.19233100  1
  H  H51  1  0.14043700  0.06149600  0.80766900  1
  H  H52  1  0.85956300  0.06149600  0.19233100  1
  H  H53  1  0.71108100  0.59523700  0.71136000  1
  H  H54  1  0.28891900  0.59523700  0.28864000  1
  H  H55  1  0.21108100  0.09523700  0.71136000  1
  H  H56  1  0.78891900  0.09523700  0.28864000  1
  H  H57  1  0.79301300  0.59412700  0.63269600  1
  H  H58  1  0.20698700  0.59412700  0.36730400  1
  H  H59  1  0.29301300  0.09412700  0.63269600  1
  H  H60  1  0.70698700  0.09412700  0.36730400  1
  H  H61  1  0.86146900  0.55861400  0.59439000  1
  H  H62  1  0.13853100  0.55861400  0.40561000  1
  H  H63  1  0.36146900  0.05861400  0.59439000  1
  H  H64  1  0.63853100  0.05861400  0.40561000  1
  H  H65  1  0.78539800  0.39966800  0.79619100  1
  H  H66  1  0.21460200  0.39966800  0.20380900  1
  H  H67  1  0.28539800  0.89966800  0.79619100  1
  H  H68  1  0.71460200  0.89966800  0.20380900  1
  H  H69  1  0.70527800  0.40471900  0.87891800  1
  H  H70  1  0.29472200  0.40471900  0.12108200  1
  H  H71  1  0.20527800  0.90471900  0.87891800  1
  H  H72  1  0.79472200  0.90471900  0.12108200  1
  H  H73  1  0.55540800  0.36316100  0.88141200  1
  H  H74  1  0.44459200  0.36316100  0.11858800  1
  H  H75  1  0.05540800  0.86316100  0.88141200  1
  H  H76  1  0.94459200  0.86316100  0.11858800  1
  H  H77  1  0.41188900  0.29366200  0.18371700  1
  H  H78  1  0.58811100  0.29366200  0.81628300  1
  H  H79  1  0.91188900  0.79366200  0.18371700  1
  H  H80  1  0.08811100  0.79366200  0.81628300  1
  H  H81  1  0.91059600  0.71171600  0.18262000  1
  H  H82  1  0.08940400  0.71171600  0.81738000  1
  H  H83  1  0.41059600  0.21171600  0.18262000  1
  H  H84  1  0.58940400  0.21171600  0.81738000  1
  H  H85  1  0.94167500  0.64221400  0.11611000  1
  H  H86  1  0.05832500  0.64221400  0.88389000  1
  H  H87  1  0.44167500  0.14221400  0.11611000  1
  H  H88  1  0.55832500  0.14221400  0.88389000  1
  H  H89  1  0.55692900  0.64084500  0.00401000  1
  H  H90  1  0.44307100  0.64084500  0.99599000  1
  H  H91  1  0.05692900  0.14084500  0.00401000  1
  H  H92  1  0.94307100  0.14084500  0.99599000  1
  H  H93  1  0.40934600  0.71032000  0.99892200  1
  H  H94  1  0.59065400  0.71032000  0.00107800  1
  H  H95  1  0.90934600  0.21032000  0.99892200  1
  H  H96  1  0.09065400  0.21032000  0.00107800  1
  H  H97  1  0.90799300  0.29226800  0.00297600  1
  H  H98  1  0.09200700  0.29226800  0.99702400  1
  H  H99  1  0.40799300  0.79226800  0.00297600  1
  H  H100  1  0.59200700  0.79226800  0.99702400  1
  H  H101  1  0.93998400  0.36174400  0.00524100  1
  H  H102  1  0.06001600  0.36174400  0.99475900  1
  H  H103  1  0.43998400  0.86174400  0.00524100  1
  H  H104  1  0.56001600  0.86174400  0.99475900  1
  H  H105  1  0.10795300  0.48503800  0.23372700  1
  H  H106  1  0.89204700  0.48503800  0.76627300  1
  H  H107  1  0.60795300  0.98503800  0.23372700  1
  H  H108  1  0.39204700  0.98503800  0.76627300  1
  H  H109  1  0.86056000  0.41466200  0.74639200  1
  H  H110  1  0.13944000  0.41466200  0.25360800  1
  H  H111  1  0.36056000  0.91466200  0.74639200  1
  H  H112  1  0.63944000  0.91466200  0.25360800  1
  C  C1  1  0.91489700  0.49594200  0.58633100  1
  C  C2  1  0.08510300  0.49594200  0.41366900  1
  C  C3  1  0.41489700  0.99594200  0.58633100  1
  C  C4  1  0.58510300  0.99594200  0.41366900  1
  C  C5  1  0.99999000  0.49668300  0.38066000  1
  C  C6  1  0.00001000  0.49668300  0.61934000  1
  C  C7  1  0.49999000  0.99668300  0.38066000  1
  C  C8  1  0.50001000  0.99668300  0.61934000  1
  C  C9  1  0.97152700  0.53656000  0.31597000  1
  C  C10  1  0.02847300  0.53656000  0.68403000  1
  C  C11  1  0.47152700  0.03656000  0.31597000  1
  C  C12  1  0.52847300  0.03656000  0.68403000  1
  C  C13  1  0.97039800  0.53693200  0.24584700  1
  C  C14  1  0.02960200  0.53693200  0.75415300  1
  C  C15  1  0.47039800  0.03693200  0.24584700  1
  C  C16  1  0.52960200  0.03693200  0.75415300  1
  C  C17  1  0.04779800  0.50593800  0.23865200  1
  C  C18  1  0.95220200  0.50593800  0.76134800  1
  C  C19  1  0.54779800  0.00593800  0.23865200  1
  C  C20  1  0.45220200  0.00593800  0.76134800  1
  C  C21  1  0.98026100  0.45461700  0.30379300  1
  C  C22  1  0.01973900  0.45461700  0.69620700  1
  C  C23  1  0.48026100  0.95461700  0.30379300  1
  C  C24  1  0.51973900  0.95461700  0.69620700  1
  C  C25  1  0.00032300  0.49769200  0.30999200  1
  C  C26  1  0.99967700  0.49769200  0.69000800  1
  C  C27  1  0.50032300  0.99769200  0.30999200  1
  C  C28  1  0.49967700  0.99769200  0.69000800  1
  C  C29  1  0.00033500  0.50004000  0.19054200  1
  C  C30  1  0.99966500  0.50004000  0.80945800  1
  C  C31  1  0.50033500  0.00004000  0.19054200  1
  C  C32  1  0.49966500  0.00004000  0.80945800  1
  C  C33  1  0.04785400  0.50653000  0.16734700  1
  C  C34  1  0.95214600  0.50653000  0.83265300  1
  C  C35  1  0.54785400  0.00653000  0.16734700  1
  C  C36  1  0.45214600  0.00653000  0.83265300  1
  C  C37  1  0.98286900  0.45501500  0.23006400  1
  C  C38  1  0.01713100  0.45501500  0.76993600  1
  C  C39  1  0.48286900  0.95501500  0.23006400  1
  C  C40  1  0.51713100  0.95501500  0.76993600  1
  C  C41  1  0.65594400  0.46798200  0.87809900  1
  C  C42  1  0.34405600  0.46798200  0.12190100  1
  C  C43  1  0.15594400  0.96798200  0.87809900  1
  C  C44  1  0.84405600  0.96798200  0.12190100  1
  C  C45  1  0.63364100  0.50177000  0.86906700  1
  C  C46  1  0.36635900  0.50177000  0.13093300  1
  C  C47  1  0.13364100  0.00177000  0.86906700  1
  C  C48  1  0.86635900  0.00177000  0.13093300  1
  C  C49  1  0.65778400  0.53461700  0.81429100  1
  C  C50  1  0.34221600  0.53461700  0.18570900  1
  C  C51  1  0.15778400  0.03461700  0.81429100  1
  C  C52  1  0.84221600  0.03461700  0.18570900  1
  C  C53  1  0.70410100  0.53404700  0.76983700  1
  C  C54  1  0.29589900  0.53404700  0.23016300  1
  C  C55  1  0.20410100  0.03404700  0.76983700  1
  C  C56  1  0.79589900  0.03404700  0.23016300  1
  C  C57  1  0.72635000  0.49950700  0.77750800  1
  C  C58  1  0.27365000  0.49950700  0.22249200  1
  C  C59  1  0.22635000  0.99950700  0.77750800  1
  C  C60  1  0.77365000  0.99950700  0.22249200  1
  C  C61  1  0.70213500  0.46630300  0.83112600  1
  C  C62  1  0.29786500  0.46630300  0.16887400  1
  C  C63  1  0.20213500  0.96630300  0.83112600  1
  C  C64  1  0.79786500  0.96630300  0.16887400  1
  C  C65  1  0.72821000  0.56792900  0.71753400  1
  C  C66  1  0.27179000  0.56792900  0.28246600  1
  C  C67  1  0.22821000  0.06792900  0.71753400  1
  C  C68  1  0.77179000  0.06792900  0.28246600  1
  C  C69  1  0.77438600  0.56729500  0.67324200  1
  C  C70  1  0.22561400  0.56729500  0.32675800  1
  C  C71  1  0.27438600  0.06729500  0.67324200  1
  C  C72  1  0.72561400  0.06729500  0.32675800  1
  C  C73  1  0.79666100  0.53224300  0.67968600  1
  C  C74  1  0.20333900  0.53224300  0.32031400  1
  C  C75  1  0.29666100  0.03224300  0.67968600  1
  C  C76  1  0.70333900  0.03224300  0.32031400  1
  C  C77  1  0.77270300  0.49804800  0.73134400  1
  C  C78  1  0.22729700  0.49804800  0.26865600  1
  C  C79  1  0.27270300  0.99804800  0.73134400  1
  C  C80  1  0.72729700  0.99804800  0.26865600  1
  C  C81  1  0.79498100  0.46232500  0.73646800  1
  C  C82  1  0.20501900  0.46232500  0.26353200  1
  C  C83  1  0.29498100  0.96232500  0.73646800  1
  C  C84  1  0.70501900  0.96232500  0.26353200  1
  C  C85  1  0.77012300  0.42860100  0.78977900  1
  C  C86  1  0.22987700  0.42860100  0.21022100  1
  C  C87  1  0.27012300  0.92860100  0.78977900  1
  C  C88  1  0.72987700  0.92860100  0.21022100  1
  C  C89  1  0.72408900  0.43108500  0.83739900  1
  C  C90  1  0.27591100  0.43108500  0.16260100  1
  C  C91  1  0.22408900  0.93108500  0.83739900  1
  C  C92  1  0.77591100  0.93108500  0.16260100  1
  C  C93  1  0.84287300  0.53147100  0.63419700  1
  C  C94  1  0.15712700  0.53147100  0.36580300  1
  C  C95  1  0.34287300  0.03147100  0.63419700  1
  C  C96  1  0.65712700  0.03147100  0.36580300  1
  C  C97  1  0.86561500  0.49540100  0.63660600  1
  C  C98  1  0.13438500  0.49540100  0.36339400  1
  C  C99  1  0.36561500  0.99540100  0.63660600  1
  C  C100  1  0.63438500  0.99540100  0.36339400  1
  C  C101  1  0.84157600  0.46017100  0.68732100  1
  C  C102  1  0.15842400  0.46017100  0.31267900  1
  C  C103  1  0.34157600  0.96017100  0.68732100  1
  C  C104  1  0.65842400  0.96017100  0.31267900  1
  C  C105  1  0.00000000  0.58788500  0.00000000  1
  C  C106  1  0.50000000  0.08788500  0.00000000  1
  C  C107  1  0.00008400  0.50125100  0.12067100  1
  C  C108  1  0.99991600  0.50125100  0.87932900  1
  C  C109  1  0.50008400  0.00125100  0.12067100  1
  C  C110  1  0.49991600  0.00125100  0.87932900  1
  C  C111  1  0.00000000  0.41579800  0.00000000  1
  C  C112  1  0.50000000  0.91579800  0.00000000  1
  C  C113  1  0.50000000  0.41749500  0.00000000  1
  C  C114  1  0.00000000  0.91749500  0.00000000  1
  C  C115  1  0.58464000  0.50234800  0.91718200  1
  C  C116  1  0.41536000  0.50234800  0.08281800  1
  C  C117  1  0.08464000  0.00234800  0.91718200  1
  C  C118  1  0.91536000  0.00234800  0.08281800  1
  C  C119  1  0.50000000  0.58678800  0.00000000  1
  C  C120  1  0.00000000  0.08678800  0.00000000  1
  C  C121  1  0.53081300  0.34520900  0.93345200  1
  C  C122  1  0.46918700  0.34520900  0.06654800  1
  C  C123  1  0.03081300  0.84520900  0.93345200  1
  C  C124  1  0.96918700  0.84520900  0.06654800  1
  C  C125  1  0.50000000  0.36845500  0.00000000  1
  C  C126  1  0.00000000  0.86845500  0.00000000  1
  C  C127  1  0.46863800  0.29895300  0.06609700  1
  C  C128  1  0.53136200  0.29895300  0.93390300  1
  C  C129  1  0.96863800  0.79895300  0.06609700  1
  C  C130  1  0.03136200  0.79895300  0.93390300  1
  C  C131  1  0.50000000  0.27581900  0.00000000  1
  C  C132  1  0.00000000  0.77581900  0.00000000  1
  C  C133  1  0.43668500  0.27577800  0.13173500  1
  C  C134  1  0.56331500  0.27577800  0.86826500  1
  C  C135  1  0.93668500  0.77577800  0.13173500  1
  C  C136  1  0.06331500  0.77577800  0.86826500  1
  C  C137  1  0.93594900  0.72959900  0.13111100  1
  C  C138  1  0.06405100  0.72959900  0.86888900  1
  C  C139  1  0.43594900  0.22959900  0.13111100  1
  C  C140  1  0.56405100  0.22959900  0.86888900  1
  C  C141  1  0.96769300  0.70642500  0.06529500  1
  C  C142  1  0.03230700  0.70642500  0.93470500  1
  C  C143  1  0.46769300  0.20642500  0.06529500  1
  C  C144  1  0.53230700  0.20642500  0.93470500  1
  C  C145  1  0.00000000  0.72955800  0.00000000  1
  C  C146  1  0.50000000  0.22955800  0.00000000  1
  C  C147  1  0.96715300  0.66016800  0.06482200  1
  C  C148  1  0.03284700  0.66016800  0.93517800  1
  C  C149  1  0.46715300  0.16016800  0.06482200  1
  C  C150  1  0.53284700  0.16016800  0.93517800  1
  C  C151  1  0.00000000  0.63692400  0.00000000  1
  C  C152  1  0.50000000  0.13692400  0.00000000  1
  C  C153  1  0.53168500  0.65886600  0.00283800  1
  C  C154  1  0.46831500  0.65886600  0.99716200  1
  C  C155  1  0.03168500  0.15886600  0.00283800  1
  C  C156  1  0.96831500  0.15886600  0.99716200  1
  C  C157  1  0.50000000  0.63570900  0.00000000  1
  C  C158  1  0.00000000  0.13570900  0.00000000  1
  C  C159  1  0.46773000  0.70507900  0.99886300  1
  C  C160  1  0.53227000  0.70507900  0.00113700  1
  C  C161  1  0.96773000  0.20507900  0.99886300  1
  C  C162  1  0.03227000  0.20507900  0.00113700  1
  C  C163  1  0.50000000  0.72818500  0.00000000  1
  C  C164  1  0.00000000  0.22818500  0.00000000  1
  C  C165  1  0.43484600  0.72821600  0.99952600  1
  C  C166  1  0.56515400  0.72821600  0.00047400  1
  C  C167  1  0.93484600  0.22821600  0.99952600  1
  C  C168  1  0.06515400  0.22821600  0.00047400  1
  C  C169  1  0.93407600  0.27437200  0.00183500  1
  C  C170  1  0.06592400  0.27437200  0.99816500  1
  C  C171  1  0.43407600  0.77437200  0.00183500  1
  C  C172  1  0.56592400  0.77437200  0.99816500  1
  C  C173  1  0.96674400  0.29750800  0.00181800  1
  C  C174  1  0.03325600  0.29750800  0.99818200  1
  C  C175  1  0.46674400  0.79750800  0.00181800  1
  C  C176  1  0.53325600  0.79750800  0.99818200  1
  C  C177  1  0.00000000  0.27440200  0.00000000  1
  C  C178  1  0.50000000  0.77440200  0.00000000  1
  C  C179  1  0.96619200  0.34372100  0.00352300  1
  C  C180  1  0.03380800  0.34372100  0.99647700  1
  C  C181  1  0.46619200  0.84372100  0.00352300  1
  C  C182  1  0.53380800  0.84372100  0.99647700  1
  C  C183  1  0.00000000  0.36687800  0.00000000  1
  C  C184  1  0.50000000  0.86687800  0.00000000  1
  C  C185  1  0.08136800  0.47308500  0.22976800  1
  C  C186  1  0.91863200  0.47308500  0.77023200  1
  C  C187  1  0.58136800  0.97308500  0.22976800  1
  C  C188  1  0.41863200  0.97308500  0.77023200  1
  C  C189  1  0.86491500  0.42178600  0.69243800  1
  C  C190  1  0.13508500  0.42178600  0.30756200  1
  C  C191  1  0.36491500  0.92178600  0.69243800  1
  C  C192  1  0.63508500  0.92178600  0.30756200  1
  O  O1  1  0.93601900  0.53334500  0.58122900  1
  O  O2  1  0.06398100  0.53334500  0.41877100  1
  O  O3  1  0.43601900  0.03334500  0.58122900  1
  O  O4  1  0.56398100  0.03334500  0.41877100  1
  O  O5  1  0.93603700  0.45953800  0.54639700  1
  O  O6  1  0.06396300  0.45953800  0.45360300  1
  O  O7  1  0.43603700  0.95953800  0.54639700  1
  O  O8  1  0.56396300  0.95953800  0.45360300  1
  O  O9  1  0.98743500  0.53342200  0.42283200  1
  O  O10  1  0.01256500  0.53342200  0.57716800  1
  O  O11  1  0.48743500  0.03342200  0.42283200  1
  O  O12  1  0.51256500  0.03342200  0.57716800  1
  O  O13  1  0.01224400  0.45957300  0.39797000  1
  O  O14  1  0.98775600  0.45957300  0.60203000  1
  O  O15  1  0.51224400  0.95957300  0.39797000  1
  O  O16  1  0.48775600  0.95957300  0.60203000  1
  O  O17  1  0.96145300  0.56694300  0.04361700  1
  O  O18  1  0.03854700  0.56694300  0.95638300  1
  O  O19  1  0.46145300  0.06694300  0.04361700  1
  O  O20  1  0.53854700  0.06694300  0.95638300  1
  O  O21  1  0.96129600  0.50163300  0.13026100  1
  O  O22  1  0.03870400  0.50163300  0.86973800  1
  O  O23  1  0.46129600  0.00163300  0.13026100  1
  O  O24  1  0.53870400  0.00163300  0.86973800  1
  O  O25  1  0.03844400  0.50522200  0.05286600  1
  O  O26  1  0.96155600  0.50522200  0.94713300  1
  O  O27  1  0.53844400  0.00522200  0.05286600  1
  O  O28  1  0.46155600  0.00522200  0.94713300  1
  O  O29  1  0.96134000  0.43668600  0.03864400  1
  O  O30  1  0.03866000  0.43668600  0.96135600  1
  O  O31  1  0.46134000  0.93668600  0.03864400  1
  O  O32  1  0.53866000  0.93668600  0.96135600  1
  O  O33  1  0.51405000  0.43850500  0.93480900  1
  O  O34  1  0.48595000  0.43850500  0.06519100  1
  O  O35  1  0.01405000  0.93850500  0.93480900  1
  O  O36  1  0.98595000  0.93850500  0.06519100  1
  O  O37  1  0.56409200  0.51586800  0.88579100  1
  O  O38  1  0.43590800  0.51586800  0.11420900  1
  O  O39  1  0.06409200  0.01586800  0.88579100  1
  O  O40  1  0.93590800  0.01586800  0.11420900  1
  O  O41  1  0.56320900  0.48855700  0.98950300  1
  O  O42  1  0.43679100  0.48855700  0.01049700  1
  O  O43  1  0.06320900  0.98855700  0.98950300  1
  O  O44  1  0.93679100  0.98855700  0.01049700  1
  O  O45  1  0.48676200  0.56584000  0.96153900  1
  O  O46  1  0.51323800  0.56584000  0.03846100  1
  O  O47  1  0.98676200  0.06584000  0.96153900  1
  O  O48  1  0.01323800  0.06584000  0.03846100  1
  O  O49  1  0.08034100  0.43372000  0.21539800  1
  O  O50  1  0.91965900  0.43372000  0.78460200  1
  O  O51  1  0.58034100  0.93372000  0.21539800  1
  O  O52  1  0.41965900  0.93372000  0.78460200  1
  O  O53  1  0.88407100  0.39445100  0.64026200  1
  O  O54  1  0.11592900  0.39445100  0.35973800  1
  O  O55  1  0.38407100  0.89445100  0.64026200  1
  O  O56  1  0.61592900  0.89445100  0.35973800  1
