# generated using pymatgen
data_V2H13C23(NO5)2
_symmetry_space_group_name_H-M   'P 1'
_cell_length_a   6.32000300
_cell_length_b   18.85658400
_cell_length_c   21.16940800
_cell_angle_alpha   90.63591800
_cell_angle_beta   89.92844800
_cell_angle_gamma   90.00512600
_symmetry_Int_Tables_number   1
_chemical_formula_structural   V2H13C23(NO5)2
_chemical_formula_sum   'V4 H26 C46 N4 O20'
_cell_volume   2522.67862890
_cell_formula_units_Z   2
loop_
 _symmetry_equiv_pos_site_id
 _symmetry_equiv_pos_as_xyz
  1  'x, y, z'
loop_
 _atom_site_type_symbol
 _atom_site_label
 _atom_site_symmetry_multiplicity
 _atom_site_fract_x
 _atom_site_fract_y
 _atom_site_fract_z
 _atom_site_occupancy
  V  V1  1  0.17124900  0.27265300  0.74008300  1
  V  V2  1  0.82625300  0.72803500  0.26177000  1
  V  V3  1  0.67119600  0.25542400  0.74111900  1
  V  V4  1  0.32635500  0.74525400  0.26056200  1
  H  H1  1  0.62626300  0.96896300  0.02773200  1
  H  H2  1  0.36429200  0.02706400  0.97102800  1
  H  H3  1  0.60780100  0.05395800  0.11227000  1
  H  H4  1  0.50586800  0.08934900  0.03918000  1
  H  H5  1  0.55048000  0.14774300  0.10633300  1
  H  H6  1  0.99943200  0.18380300  0.00577900  1
  H  H7  1  0.77188600  0.22111700  0.04620700  1
  H  H8  1  0.73531400  0.16548500  0.97679600  1
  H  H9  1  0.38241300  0.94210300  0.88629000  1
  H  H10  1  0.44031700  0.84837300  0.89234000  1
  H  H11  1  0.48487300  0.90691900  0.95939600  1
  H  H12  1  0.25603500  0.83068500  0.02195100  1
  H  H13  1  0.21976400  0.77495600  0.95258800  1
  H  H14  1  0.99202200  0.81210500  0.99302300  1
  H  H15  1  0.29333500  0.92446500  0.12307200  1
  H  H16  1  0.05415300  0.95548500  0.16161000  1
  H  H17  1  0.31027000  0.98371400  0.19079300  1
  H  H18  1  0.12839200  0.13690400  0.10539300  1
  H  H19  1  0.21703000  0.10368100  0.18081100  1
  H  H20  1  0.95738400  0.08004900  0.15123400  1
  H  H21  1  0.86217100  0.85917100  0.89322500  1
  H  H22  1  0.03299200  0.91607300  0.84737000  1
  H  H23  1  0.77328100  0.89243500  0.81784300  1
  H  H24  1  0.69713900  0.07161300  0.87572600  1
  H  H25  1  0.68013600  0.01244100  0.80795100  1
  H  H26  1  0.93626800  0.04064800  0.83712800  1
  C  C1  1  0.43050600  0.34063400  0.82750200  1
  C  C2  1  0.56680700  0.65925600  0.17486100  1
  C  C3  1  0.46097300  0.32891800  0.65101600  1
  C  C4  1  0.53650000  0.67283800  0.35134900  1
  C  C5  1  0.97385700  0.18484900  0.65501200  1
  C  C6  1  0.02407200  0.81658900  0.34616600  1
  C  C7  1  0.94298400  0.20127500  0.83057800  1
  C  C8  1  0.05348500  0.79787200  0.17058100  1
  C  C9  1  0.10159400  0.01348600  0.04908600  1
  C  C10  1  0.88891900  0.98253000  0.94961100  1
  C  C11  1  0.90804000  0.05146500  0.02762900  1
  C  C12  1  0.08258200  0.94452400  0.97109600  1
  C  C13  1  0.96895600  0.15352400  0.88018100  1
  C  C14  1  0.02484000  0.84411100  0.11997700  1
  C  C15  1  0.19859700  0.01376300  0.98348300  1
  C  C16  1  0.79195700  0.98224200  0.01526100  1
  C  C17  1  0.99873300  0.05182800  0.96227300  1
  C  C18  1  0.99184100  0.94416200  0.03645400  1
  C  C19  1  0.98577600  0.10919500  0.91906900  1
  C  C20  1  0.00608900  0.88743600  0.08027900  1
  C  C21  1  0.01977400  0.87396500  0.39351400  1
  C  C22  1  0.97887400  0.12770500  0.60744600  1
  C  C23  1  0.01331300  0.92148900  0.43331900  1
  C  C24  1  0.98564100  0.08028000  0.56755200  1
  C  C25  1  0.00382000  0.97727100  0.48041200  1
  C  C26  1  0.99527500  0.02454200  0.52042000  1
  C  C27  1  0.45841300  0.39135400  0.87984600  1
  C  C28  1  0.53825600  0.60833600  0.12270700  1
  C  C29  1  0.47545800  0.43233100  0.92478300  1
  C  C30  1  0.52093000  0.56726400  0.07785000  1
  C  C31  1  0.49167500  0.47974900  0.97847800  1
  C  C32  1  0.50457100  0.51979400  0.02419700  1
  C  C33  1  0.46403300  0.37915300  0.60242500  1
  C  C34  1  0.53364200  0.62323900  0.40045800  1
  C  C35  1  0.47375800  0.42401900  0.56357100  1
  C  C36  1  0.52407600  0.57878200  0.43968600  1
  C  C37  1  0.49086900  0.47812200  0.52015500  1
  C  C38  1  0.50708300  0.52493800  0.48335900  1
  C  C39  1  0.60935900  0.10025600  0.08042200  1
  C  C40  1  0.83269700  0.17431300  0.01971200  1
  C  C41  1  0.38126700  0.89586600  0.91820700  1
  C  C42  1  0.15864900  0.82172900  0.97905700  1
  C  C43  1  0.21779900  0.96997900  0.14788000  1
  C  C44  1  0.12369900  0.09111600  0.13779200  1
  C  C45  1  0.86673400  0.90497700  0.86084500  1
  C  C46  1  0.77264600  0.02613000  0.85086700  1
  N  N1  1  0.82162100  0.11285300  0.05902900  1
  N  N2  1  0.16916800  0.88316200  0.93969500  1
  N  N3  1  0.21213400  0.02989700  0.10664100  1
  N  N4  1  0.77834800  0.96616700  0.89205300  1
  O  O1  1  0.63027800  0.28876600  0.65431000  1
  O  O2  1  0.36717300  0.71293900  0.34769100  1
  O  O3  1  0.25483600  0.30400600  0.82584900  1
  O  O4  1  0.74268900  0.69576000  0.17626600  1
  O  O5  1  0.04684000  0.18810100  0.77921900  1
  O  O6  1  0.95075100  0.81212200  0.22189900  1
  O  O7  1  0.35164100  0.34634500  0.70190200  1
  O  O8  1  0.64580100  0.65479900  0.30061000  1
  O  O9  1  0.13605900  0.22973800  0.65552700  1
  O  O10  1  0.86146800  0.77186500  0.34595700  1
  O  O11  1  0.55108800  0.34397600  0.77670000  1
  O  O12  1  0.44647200  0.65633700  0.22573500  1
  O  O13  1  0.44534100  0.20927500  0.74223200  1
  O  O14  1  0.55219300  0.79139600  0.25905800  1
  O  O15  1  0.84682800  0.17761500  0.70533700  1
  O  O16  1  0.15071100  0.82342200  0.29570000  1
  O  O17  1  0.76197500  0.23292600  0.82777400  1
  O  O18  1  0.23545700  0.76689900  0.17373400  1
  O  O19  1  0.94569400  0.31862600  0.73666900  1
  O  O20  1  0.05182700  0.68211100  0.26557500  1
