# generated using pymatgen
data_Cu3H24C62(ClO2)6
_symmetry_space_group_name_H-M   'P 1'
_cell_length_a   23.62803700
_cell_length_b   31.96661100
_cell_length_c   23.63609300
_cell_angle_alpha   90.00000000
_cell_angle_beta   90.00000000
_cell_angle_gamma   90.00000000
_symmetry_Int_Tables_number   1
_chemical_formula_structural   Cu3H24C62(ClO2)6
_chemical_formula_sum   'Cu12 H96 C248 Cl24 O48'
_cell_volume   17852.53645365
_cell_formula_units_Z   4
loop_
 _symmetry_equiv_pos_site_id
 _symmetry_equiv_pos_as_xyz
  1  'x, y, z'
loop_
 _atom_site_type_symbol
 _atom_site_label
 _atom_site_symmetry_multiplicity
 _atom_site_fract_x
 _atom_site_fract_y
 _atom_site_fract_z
 _atom_site_occupancy
  Cu  Cu1  1  0.55596600  0.99998100  0.50115100  1
  Cu  Cu2  1  0.50123400  0.04171000  0.00108400  1
  Cu  Cu3  1  0.00125300  0.45833000  0.50115100  1
  Cu  Cu4  1  0.00123400  0.54171000  0.50108400  1
  Cu  Cu5  1  0.05596600  0.49998100  0.00115100  1
  Cu  Cu6  1  0.44316200  0.00001200  0.50106900  1
  Cu  Cu7  1  0.94316200  0.50001200  0.00106900  1
  Cu  Cu8  1  0.50127700  0.49987600  0.44559500  1
  Cu  Cu9  1  0.50127100  0.50011700  0.55835300  1
  Cu  Cu10  1  0.00127700  0.99987600  0.94559500  1
  Cu  Cu11  1  0.00127100  0.00011700  0.05835300  1
  Cu  Cu12  1  0.50125300  0.95833000  0.00115100  1
  H  H1  1  0.43386200  0.70693800  0.38301400  1
  H  H2  1  0.37982700  0.28181100  0.29668700  1
  H  H3  1  0.38717900  0.15024500  0.32291600  1
  H  H4  1  0.44040000  0.16081900  0.40940500  1
  H  H5  1  0.43380900  0.70739500  0.61972300  1
  H  H6  1  0.38010100  0.71904900  0.70672300  1
  H  H7  1  0.38778800  0.85051400  0.67967500  1
  H  H8  1  0.44096800  0.83957100  0.59324400  1
  H  H9  1  0.93386200  0.20693800  0.88301400  1
  H  H10  1  0.88020000  0.21828300  0.79590900  1
  H  H11  1  0.88792100  0.34984500  0.82207900  1
  H  H12  1  0.38020000  0.71828300  0.29590900  1
  H  H13  1  0.94105900  0.33920800  0.90861000  1
  H  H14  1  0.93356100  0.79270400  0.12045600  1
  H  H15  1  0.87987800  0.78110600  0.20748700  1
  H  H16  1  0.88741100  0.64962900  0.18050300  1
  H  H17  1  0.94056900  0.66051700  0.09404100  1
  H  H18  1  0.93357800  0.79309300  0.88375000  1
  H  H19  1  0.87982700  0.78181100  0.79668700  1
  H  H20  1  0.88717900  0.65024500  0.82291600  1
  H  H21  1  0.94040000  0.66081900  0.90940500  1
  H  H22  1  0.93380900  0.20739500  0.11972300  1
  H  H23  1  0.38792100  0.84984500  0.32207900  1
  H  H24  1  0.88010100  0.21904900  0.20672300  1
  H  H25  1  0.88778800  0.35051400  0.17967500  1
  H  H26  1  0.94096800  0.33957100  0.09324400  1
  H  H27  1  0.56593200  0.79273700  0.38286600  1
  H  H28  1  0.61980700  0.78119600  0.29595000  1
  H  H29  1  0.61230100  0.64970700  0.32281600  1
  H  H30  1  0.55889800  0.66053500  0.40914300  1
  H  H31  1  0.56550500  0.20677600  0.62008300  1
  H  H32  1  0.61939400  0.21797000  0.70707600  1
  H  H33  1  0.61209500  0.34955700  0.68104400  1
  H  H34  1  0.44105900  0.83920800  0.40861000  1
  H  H35  1  0.55868000  0.33907400  0.59464500  1
  H  H36  1  0.56539300  0.20705900  0.38363700  1
  H  H37  1  0.61927100  0.21842100  0.29668000  1
  H  H38  1  0.61219500  0.34994900  0.32331200  1
  H  H39  1  0.55879700  0.33930000  0.40967600  1
  H  H40  1  0.56583800  0.79327700  0.61930200  1
  H  H41  1  0.61968500  0.78215500  0.70633500  1
  H  H42  1  0.61229300  0.65054300  0.68056000  1
  H  H43  1  0.55892100  0.66095500  0.59412600  1
  H  H44  1  0.06593200  0.29273700  0.88286600  1
  H  H45  1  0.43356100  0.29270400  0.62045600  1
  H  H46  1  0.11980700  0.28119600  0.79595000  1
  H  H47  1  0.11230100  0.14970700  0.82281600  1
  H  H48  1  0.05889800  0.16053500  0.90914300  1
  H  H49  1  0.06550500  0.70677600  0.12008300  1
  H  H50  1  0.11939400  0.71797000  0.20707600  1
  H  H51  1  0.11209500  0.84955700  0.18104400  1
  H  H52  1  0.05868000  0.83907400  0.09464500  1
  H  H53  1  0.06539300  0.70705900  0.88363700  1
  H  H54  1  0.11927100  0.71842100  0.79668000  1
  H  H55  1  0.11219500  0.84994900  0.82331200  1
  H  H56  1  0.37987800  0.28110600  0.70748700  1
  H  H57  1  0.05879700  0.83930000  0.90967600  1
  H  H58  1  0.06583800  0.29327700  0.11930200  1
  H  H59  1  0.11968500  0.28215500  0.20633500  1
  H  H60  1  0.11229300  0.15054300  0.18056000  1
  H  H61  1  0.05892100  0.16095500  0.09412600  1
  H  H62  1  0.36339300  0.79123400  0.50111600  1
  H  H63  1  0.26141600  0.77842600  0.50103800  1
  H  H64  1  0.29120500  0.64716700  0.50132200  1
  H  H65  1  0.39238000  0.65921600  0.50139600  1
  H  H66  1  0.39220500  0.34089100  0.50239800  1
  H  H67  1  0.38741100  0.14962900  0.68050300  1
  H  H68  1  0.29105300  0.35304500  0.50251600  1
  H  H69  1  0.26101400  0.22181800  0.50194300  1
  H  H70  1  0.36296500  0.20890300  0.50181400  1
  H  H71  1  0.86339300  0.29123400  0.00111600  1
  H  H72  1  0.76141600  0.27842600  0.00103800  1
  H  H73  1  0.79120500  0.14716700  0.00132200  1
  H  H74  1  0.89238000  0.15921600  0.00139600  1
  H  H75  1  0.89220500  0.84089100  0.00239800  1
  H  H76  1  0.79105300  0.85304500  0.00251600  1
  H  H77  1  0.76101400  0.72181800  0.00194300  1
  H  H78  1  0.44056900  0.16051700  0.59404100  1
  H  H79  1  0.86296500  0.70890300  0.00181400  1
  H  H80  1  0.63602500  0.70849200  0.50149600  1
  H  H81  1  0.73806900  0.72091100  0.50140800  1
  H  H82  1  0.70918500  0.85227400  0.50071800  1
  H  H83  1  0.60790700  0.84061000  0.50079700  1
  H  H84  1  0.60737400  0.15926500  0.50189500  1
  H  H85  1  0.70862900  0.14748900  0.50193700  1
  H  H86  1  0.73777900  0.27882000  0.50202500  1
  H  H87  1  0.63576000  0.29135300  0.50197900  1
  H  H88  1  0.13602500  0.20849200  0.00149600  1
  H  H89  1  0.43357800  0.29309300  0.38375000  1
  H  H90  1  0.23806900  0.22091100  0.00140800  1
  H  H91  1  0.20918500  0.35227400  0.00071800  1
  H  H92  1  0.10790700  0.34061000  0.00079700  1
  H  H93  1  0.10737400  0.65926500  0.00189500  1
  H  H94  1  0.20862900  0.64748900  0.00193700  1
  H  H95  1  0.23777900  0.77882000  0.00202500  1
  H  H96  1  0.13576000  0.79135300  0.00197900  1
  C  C1  1  0.49923400  0.00007900  0.39260800  1
  C  C2  1  0.52592100  0.26346300  0.54730600  1
  C  C3  1  0.78107800  0.00003800  0.00181600  1
  C  C4  1  0.72136700  0.00004100  0.00154000  1
  C  C5  1  0.22136700  0.50004100  0.50154000  1
  C  C6  1  0.67039900  0.00004000  0.00117800  1
  C  C7  1  0.17039900  0.50004000  0.50117800  1
  C  C8  1  0.44171200  0.77212800  0.40222200  1
  C  C9  1  0.42416600  0.73851300  0.36983800  1
  C  C10  1  0.39387300  0.74478500  0.32079300  1
  C  C11  1  0.38080300  0.78476400  0.30361600  1
  C  C12  1  0.39823000  0.81843100  0.33548700  1
  C  C13  1  0.52590800  0.26359000  0.45667900  1
  C  C14  1  0.42853600  0.81223000  0.38460600  1
  C  C15  1  0.44131300  0.22757400  0.60084100  1
  C  C16  1  0.42381600  0.26109200  0.63343400  1
  C  C17  1  0.39351300  0.25467800  0.68243800  1
  C  C18  1  0.38038300  0.21465200  0.69936700  1
  C  C19  1  0.39776300  0.18107900  0.66728800  1
  C  C20  1  0.42808000  0.18742300  0.61820900  1
  C  C21  1  0.44125800  0.22789600  0.40298300  1
  C  C22  1  0.42378400  0.26153000  0.37059500  1
  C  C23  1  0.39344100  0.25529400  0.32157400  1
  C  C24  1  0.52622500  0.73653700  0.54662500  1
  C  C25  1  0.38024300  0.21533200  0.30442400  1
  C  C26  1  0.39759100  0.18164500  0.33630100  1
  C  C27  1  0.42794900  0.18781100  0.38539600  1
  C  C28  1  0.44164900  0.77251500  0.60008100  1
  C  C29  1  0.42409600  0.73901600  0.63268100  1
  C  C30  1  0.39377700  0.74546200  0.68166800  1
  C  C31  1  0.38068600  0.78550000  0.69857200  1
  C  C32  1  0.39811500  0.81905300  0.66648300  1
  C  C33  1  0.42844700  0.81267800  0.61742100  1
  C  C34  1  0.94171200  0.27212800  0.90222200  1
  C  C35  1  0.02624900  0.23634000  0.95599800  1
  C  C36  1  0.92416600  0.23851300  0.86983800  1
  C  C37  1  0.89387300  0.24478500  0.82079300  1
  C  C38  1  0.88080300  0.28476400  0.80361600  1
  C  C39  1  0.89823000  0.31843100  0.83548700  1
  C  C40  1  0.92853600  0.31223000  0.88460600  1
  C  C41  1  0.94131300  0.72757400  0.10084100  1
  C  C42  1  0.92381600  0.76109200  0.13343400  1
  C  C43  1  0.89351300  0.75467800  0.18243800  1
  C  C44  1  0.88038300  0.71465200  0.19936700  1
  C  C45  1  0.89776300  0.68107900  0.16728800  1
  C  C46  1  0.02592100  0.76346300  0.04730600  1
  C  C47  1  0.92808000  0.68742300  0.11820900  1
  C  C48  1  0.94125800  0.72789600  0.90298300  1
  C  C49  1  0.92378400  0.76153000  0.87059500  1
  C  C50  1  0.89344100  0.75529400  0.82157400  1
  C  C51  1  0.88024300  0.71533200  0.80442400  1
  C  C52  1  0.89759100  0.68164500  0.83630100  1
  C  C53  1  0.92794900  0.68781100  0.88539600  1
  C  C54  1  0.94164900  0.27251500  0.10008100  1
  C  C55  1  0.92409600  0.23901600  0.13268100  1
  C  C56  1  0.89377700  0.24546200  0.18166800  1
  C  C57  1  0.02590800  0.76359000  0.95667900  1
  C  C58  1  0.88068600  0.28550000  0.19857200  1
  C  C59  1  0.89811500  0.31905300  0.16648300  1
  C  C60  1  0.92844700  0.31267800  0.11742100  1
  C  C61  1  0.55815400  0.72759400  0.40241000  1
  C  C62  1  0.57570400  0.76113300  0.36987800  1
  C  C63  1  0.60612300  0.75475200  0.32094000  1
  C  C64  1  0.61932700  0.71473900  0.30401700  1
  C  C65  1  0.60188500  0.68114600  0.33602500  1
  C  C66  1  0.57143500  0.68745600  0.38503100  1
  C  C67  1  0.55783400  0.27199300  0.60095200  1
  C  C68  1  0.02622500  0.23653700  0.04662500  1
  C  C69  1  0.57532700  0.23832700  0.63327200  1
  C  C70  1  0.60575300  0.24451200  0.68225300  1
  C  C71  1  0.61902000  0.28445400  0.69942900  1
  C  C72  1  0.60163200  0.31817200  0.66763500  1
  C  C73  1  0.57117500  0.31205900  0.61858700  1
  C  C74  1  0.55781800  0.27223500  0.40306200  1
  C  C75  1  0.57525600  0.23863400  0.37058700  1
  C  C76  1  0.60567800  0.24491400  0.32162600  1
  C  C77  1  0.61900200  0.28488700  0.30462600  1
  C  C78  1  0.60168000  0.31854000  0.33658000  1
  C  C79  1  0.47355900  0.76352000  0.45588200  1
  C  C80  1  0.57122700  0.31233200  0.38560700  1
  C  C81  1  0.55811000  0.72804300  0.60030100  1
  C  C82  1  0.57562500  0.76173600  0.63255800  1
  C  C83  1  0.60603000  0.75559100  0.68156100  1
  C  C84  1  0.61925800  0.71566200  0.69882200  1
  C  C85  1  0.60185500  0.68191700  0.66708700  1
  C  C86  1  0.57141900  0.68799100  0.61801800  1
  C  C87  1  0.05815400  0.22759400  0.90241000  1
  C  C88  1  0.07570400  0.26113300  0.86987800  1
  C  C89  1  0.10612300  0.25475200  0.82094000  1
  C  C90  1  0.47317800  0.23633800  0.54723800  1
  C  C91  1  0.11932700  0.21473900  0.80401700  1
  C  C92  1  0.10188500  0.18114600  0.83602500  1
  C  C93  1  0.07143500  0.18745600  0.88503100  1
  C  C94  1  0.05783400  0.77199300  0.10095200  1
  C  C95  1  0.07532700  0.73832700  0.13327200  1
  C  C96  1  0.10575300  0.74451200  0.18225300  1
  C  C97  1  0.11902000  0.78445400  0.19942900  1
  C  C98  1  0.10163200  0.81817200  0.16763500  1
  C  C99  1  0.07117500  0.81205900  0.11858700  1
  C  C100  1  0.05781800  0.77223500  0.90306200  1
  C  C101  1  0.47316000  0.23647400  0.45662100  1
  C  C102  1  0.07525600  0.73863400  0.87058700  1
  C  C103  1  0.10567800  0.74491400  0.82162600  1
  C  C104  1  0.11900200  0.78488700  0.80462600  1
  C  C105  1  0.10168000  0.81854000  0.83658000  1
  C  C106  1  0.07122700  0.81233200  0.88560700  1
  C  C107  1  0.05811000  0.22804300  0.10030100  1
  C  C108  1  0.07562500  0.26173600  0.13255800  1
  C  C109  1  0.10603000  0.25559100  0.18156100  1
  C  C110  1  0.11925800  0.21566200  0.19882200  1
  C  C111  1  0.10185500  0.18191700  0.16708700  1
  C  C112  1  0.49988200  0.99991700  0.60961000  1
  C  C113  1  0.47353100  0.76371000  0.54649900  1
  C  C114  1  0.07141900  0.18799100  0.11801800  1
  C  C115  1  0.38564700  0.72630200  0.50128000  1
  C  C116  1  0.34795100  0.75940900  0.50117300  1
  C  C117  1  0.29047100  0.75231400  0.50112500  1
  C  C118  1  0.27004500  0.71200800  0.50118100  1
  C  C119  1  0.30720100  0.67884500  0.50128500  1
  C  C120  1  0.36475100  0.68586900  0.50133300  1
  C  C121  1  0.38534400  0.27381200  0.50207300  1
  C  C122  1  0.36452600  0.31426700  0.50227800  1
  C  C123  1  0.30698900  0.32135000  0.50235300  1
  C  C124  1  0.97355900  0.26352000  0.95588200  1
  C  C125  1  0.26976900  0.28822600  0.50223000  1
  C  C126  1  0.29011800  0.24789900  0.50203300  1
  C  C127  1  0.34758500  0.24074400  0.50195800  1
  C  C128  1  0.88564700  0.22630200  0.00128000  1
  C  C129  1  0.84795100  0.25940900  0.00117300  1
  C  C130  1  0.79047100  0.25231400  0.00112500  1
  C  C131  1  0.77004500  0.21200800  0.00118100  1
  C  C132  1  0.80720100  0.17884500  0.00128500  1
  C  C133  1  0.86475100  0.18586900  0.00133300  1
  C  C134  1  0.88534400  0.77381200  0.00207300  1
  C  C135  1  0.97317800  0.73633800  0.04723800  1
  C  C136  1  0.86452600  0.81426700  0.00227800  1
  C  C137  1  0.80698900  0.82135000  0.00235300  1
  C  C138  1  0.76976900  0.78822600  0.00223000  1
  C  C139  1  0.79011800  0.74789900  0.00203300  1
  C  C140  1  0.84758500  0.74074400  0.00195800  1
  C  C141  1  0.61420000  0.77351100  0.50116900  1
  C  C142  1  0.65167300  0.74026100  0.50133200  1
  C  C143  1  0.70919700  0.74713300  0.50128100  1
  C  C144  1  0.72989700  0.78735800  0.50106200  1
  C  C145  1  0.69296700  0.82066100  0.50089500  1
  C  C146  1  0.97316000  0.73647400  0.95662100  1
  C  C147  1  0.63536500  0.81386100  0.50094600  1
  C  C148  1  0.61380400  0.22635800  0.50191000  1
  C  C149  1  0.63488700  0.18598400  0.50190500  1
  C  C150  1  0.69247500  0.17912000  0.50193600  1
  C  C151  1  0.72947300  0.21238200  0.50197700  1
  C  C152  1  0.70885400  0.25263000  0.50198700  1
  C  C153  1  0.65134400  0.25956600  0.50195600  1
  C  C154  1  0.11420000  0.27351100  0.00116900  1
  C  C155  1  0.15167300  0.24026100  0.00133200  1
  C  C156  1  0.20919700  0.24713300  0.00128100  1
  C  C157  1  0.97353100  0.26371000  0.04649900  1
  C  C158  1  0.22989700  0.28735800  0.00106200  1
  C  C159  1  0.19296700  0.32066100  0.00089500  1
  C  C160  1  0.13536500  0.31386100  0.00094600  1
  C  C161  1  0.11380400  0.72635800  0.00191000  1
  C  C162  1  0.13488700  0.68598400  0.00190500  1
  C  C163  1  0.19247500  0.67912000  0.00193600  1
  C  C164  1  0.22947300  0.71238200  0.00197700  1
  C  C165  1  0.20885400  0.75263000  0.00198700  1
  C  C166  1  0.15134400  0.75956600  0.00195600  1
  C  C167  1  0.49928300  0.87496900  0.50091500  1
  C  C168  1  0.49866800  0.12502400  0.50150800  1
  C  C169  1  0.99928300  0.37496900  0.00091500  1
  C  C170  1  0.99866800  0.62502400  0.00150800  1
  C  C171  1  0.50137000  0.62508700  0.50183800  1
  C  C172  1  0.99923400  0.50007900  0.89260800  1
  C  C173  1  0.50124700  0.37490600  0.50206200  1
  C  C174  1  0.00137000  0.12508700  0.00183800  1
  C  C175  1  0.00124700  0.87490600  0.00206200  1
  C  C176  1  0.55192400  0.76422100  0.50120900  1
  C  C177  1  0.55154600  0.23571600  0.50191600  1
  C  C178  1  0.05192400  0.26422100  0.00120900  1
  C  C179  1  0.05154600  0.73571600  0.00191600  1
  C  C180  1  0.49922300  0.79154100  0.50108900  1
  C  C181  1  0.49879200  0.20845300  0.50184800  1
  C  C182  1  0.99922300  0.29154100  0.00108900  1
  C  C183  1  0.99988200  0.49991700  0.10961000  1
  C  C184  1  0.99879200  0.70845300  0.00184800  1
  C  C185  1  0.50058900  0.70850600  0.50141600  1
  C  C186  1  0.50032100  0.29148700  0.50207200  1
  C  C187  1  0.00058900  0.20850600  0.00141600  1
  C  C188  1  0.00032100  0.79148700  0.00207200  1
  C  C189  1  0.44786800  0.73580200  0.50129000  1
  C  C190  1  0.44754700  0.26424700  0.50201000  1
  C  C191  1  0.94786800  0.23580200  0.00129000  1
  C  C192  1  0.94754700  0.76424700  0.00201000  1
  C  C193  1  0.49911500  0.83728200  0.50096400  1
  C  C194  1  0.49973500  0.91978300  0.50093500  1
  C  C195  1  0.49858800  0.16271100  0.50166900  1
  C  C196  1  0.99911500  0.33728200  0.00096400  1
  C  C197  1  0.99858800  0.66271100  0.00166900  1
  C  C198  1  0.50103500  0.66277000  0.50164100  1
  C  C199  1  0.50085100  0.33722200  0.50211300  1
  C  C200  1  0.00103500  0.16277000  0.00164100  1
  C  C201  1  0.00085100  0.83722200  0.00211300  1
  C  C202  1  0.49936200  0.00010600  0.33194200  1
  C  C203  1  0.49985400  0.99991400  0.67027300  1
  C  C204  1  0.99936200  0.50010600  0.83194200  1
  C  C205  1  0.49900600  0.08021000  0.50133200  1
  C  C206  1  0.99985400  0.49991400  0.17027300  1
  C  C207  1  0.49965800  0.00011400  0.28098100  1
  C  C208  1  0.50002800  0.99991900  0.72123200  1
  C  C209  1  0.99965800  0.50011400  0.78098100  1
  C  C210  1  0.00002800  0.49991900  0.22123200  1
  C  C211  1  0.50007800  0.00010800  0.22127400  1
  C  C212  1  0.50031700  0.99993100  0.78093700  1
  C  C213  1  0.00007800  0.50010800  0.72127400  1
  C  C214  1  0.00031700  0.49993100  0.28093700  1
  C  C215  1  0.50034800  0.00009400  0.17031200  1
  C  C216  1  0.99973500  0.41978300  0.00093500  1
  C  C217  1  0.50048900  0.99994700  0.83189800  1
  C  C218  1  0.00034800  0.50009400  0.67031200  1
  C  C219  1  0.00048900  0.49994700  0.33189800  1
  C  C220  1  0.60983900  0.49997500  0.50197900  1
  C  C221  1  0.10983900  0.99997500  0.00197900  1
  C  C222  1  0.50182200  0.58027800  0.50206100  1
  C  C223  1  0.50175800  0.41971500  0.50188100  1
  C  C224  1  0.00182200  0.08027800  0.00206100  1
  C  C225  1  0.00175800  0.91971500  0.00188100  1
  C  C226  1  0.39271400  0.50002000  0.50196800  1
  C  C227  1  0.99900600  0.58021000  0.00133200  1
  C  C228  1  0.89271400  0.00002000  0.00196800  1
  C  C229  1  0.39271200  0.00000700  0.00072700  1
  C  C230  1  0.89271200  0.50000700  0.50072700  1
  C  C231  1  0.50039600  0.00006800  0.10964400  1
  C  C232  1  0.50043900  0.99997300  0.89256400  1
  C  C233  1  0.00039600  0.50006800  0.60964400  1
  C  C234  1  0.00043900  0.49997300  0.39256400  1
  C  C235  1  0.60973000  0.00003300  0.00058100  1
  C  C236  1  0.10973000  0.50003300  0.50058100  1
  C  C237  1  0.67048000  0.49997800  0.50195700  1
  C  C238  1  0.52624900  0.73634000  0.45599800  1
  C  C239  1  0.17048000  0.99997800  0.00195700  1
  C  C240  1  0.72143300  0.49998300  0.50184500  1
  C  C241  1  0.22143300  0.99998300  0.00184500  1
  C  C242  1  0.28111900  0.99999100  0.00159400  1
  C  C243  1  0.78111900  0.49999100  0.50159400  1
  C  C244  1  0.33207100  0.99999900  0.00126500  1
  C  C245  1  0.83207100  0.49999900  0.50126500  1
  C  C246  1  0.33204600  0.50003100  0.50194000  1
  C  C247  1  0.83204600  0.00003100  0.00194000  1
  C  C248  1  0.28107800  0.50003800  0.50181600  1
  Cl  Cl1  1  0.34183800  0.79277300  0.24154900  1
  Cl  Cl2  1  0.65818800  0.29235000  0.76139500  1
  Cl  Cl3  1  0.65816700  0.29290200  0.24268600  1
  Cl  Cl4  1  0.65840200  0.70781600  0.76081400  1
  Cl  Cl5  1  0.15848700  0.20659500  0.74210500  1
  Cl  Cl6  1  0.15818800  0.79235000  0.26139500  1
  Cl  Cl7  1  0.15816700  0.79290200  0.74268600  1
  Cl  Cl8  1  0.15840200  0.20781600  0.26081400  1
  Cl  Cl9  1  0.19698700  0.70292000  0.50110600  1
  Cl  Cl10  1  0.19672900  0.29739000  0.50233700  1
  Cl  Cl11  1  0.69698700  0.20292000  0.00110600  1
  Cl  Cl12  1  0.34140500  0.20646400  0.76138300  1
  Cl  Cl13  1  0.69672900  0.79739000  0.00233700  1
  Cl  Cl14  1  0.80301800  0.79615600  0.50098600  1
  Cl  Cl15  1  0.80257600  0.20350300  0.50203000  1
  Cl  Cl16  1  0.30301800  0.29615600  0.00098600  1
  Cl  Cl17  1  0.30257600  0.70350300  0.00203000  1
  Cl  Cl18  1  0.34120900  0.20736900  0.24238900  1
  Cl  Cl19  1  0.34168800  0.79372900  0.76056500  1
  Cl  Cl20  1  0.84183800  0.29277300  0.74154900  1
  Cl  Cl21  1  0.84140500  0.70646400  0.26138300  1
  Cl  Cl22  1  0.84120900  0.70736900  0.74238900  1
  Cl  Cl23  1  0.84168800  0.29372900  0.26056500  1
  Cl  Cl24  1  0.65848700  0.70659500  0.24210500  1
  O  O1  1  0.54800700  0.99833900  0.41894100  1
  O  O2  1  0.54795900  0.06097800  0.50361100  1
  O  O3  1  0.04872100  0.43893500  0.00337300  1
  O  O4  1  0.04795900  0.56097800  0.00361100  1
  O  O5  1  0.45113000  0.93950600  0.49863300  1
  O  O6  1  0.45036800  0.06056800  0.49886400  1
  O  O7  1  0.95113000  0.43950600  0.99863300  1
  O  O8  1  0.95036800  0.56056800  0.99886400  1
  O  O9  1  0.58353100  0.49810700  0.45326700  1
  O  O10  1  0.58352900  0.50185200  0.55069100  1
  O  O11  1  0.08353100  0.99810700  0.95326700  1
  O  O12  1  0.54871000  0.99817100  0.58341000  1
  O  O13  1  0.08352900  0.00185200  0.05069100  1
  O  O14  1  0.49923700  0.56074100  0.45338100  1
  O  O15  1  0.49918500  0.43925100  0.55056500  1
  O  O16  1  0.49907700  0.43899800  0.45304000  1
  O  O17  1  0.49911900  0.56099700  0.55090700  1
  O  O18  1  0.99923700  0.06074100  0.95338100  1
  O  O19  1  0.99918500  0.93925100  0.05056500  1
  O  O20  1  0.99907700  0.93899800  0.95304000  1
  O  O21  1  0.99911900  0.06099700  0.05090700  1
  O  O22  1  0.41900200  0.49822100  0.45314300  1
  O  O23  1  0.04800700  0.49833900  0.91894100  1
  O  O24  1  0.41899600  0.50180700  0.55079800  1
  O  O25  1  0.91900200  0.99822100  0.95314300  1
  O  O26  1  0.91899600  0.00180700  0.05079800  1
  O  O27  1  0.41892300  0.96383100  0.00326100  1
  O  O28  1  0.41890700  0.03619100  0.00320300  1
  O  O29  1  0.91892300  0.46383100  0.50326100  1
  O  O30  1  0.91890700  0.53619100  0.50320300  1
  O  O31  1  0.50329200  0.96396800  0.08343900  1
  O  O32  1  0.50328400  0.03599100  0.91881000  1
  O  O33  1  0.50327600  0.03614600  0.08338200  1
  O  O34  1  0.04871000  0.49817100  0.08341000  1
  O  O35  1  0.50330000  0.96397700  0.91886700  1
  O  O36  1  0.00329200  0.46396800  0.58343900  1
  O  O37  1  0.00328400  0.53599100  0.41881000  1
  O  O38  1  0.00327600  0.53614600  0.58338200  1
  O  O39  1  0.00330000  0.46397700  0.41886700  1
  O  O40  1  0.58341700  0.96409100  0.00326400  1
  O  O41  1  0.58340100  0.03597300  0.00320600  1
  O  O42  1  0.08341700  0.46409100  0.50326400  1
  O  O43  1  0.08340100  0.53597300  0.50320600  1
  O  O44  1  0.45042300  0.00181900  0.41888400  1
  O  O45  1  0.45112300  0.00165400  0.58320400  1
  O  O46  1  0.95042300  0.50181900  0.91888400  1
  O  O47  1  0.95112300  0.50165400  0.08320400  1
  O  O48  1  0.54872100  0.93893500  0.50337300  1
