# generated using pymatgen
data_Cu3H26C40(NO7)2
_symmetry_space_group_name_H-M   'P 1'
_cell_length_a   28.86265100
_cell_length_b   30.42773200
_cell_length_c   21.04462600
_cell_angle_alpha   90.00000000
_cell_angle_beta   133.28931400
_cell_angle_gamma   90.00000000
_symmetry_Int_Tables_number   1
_chemical_formula_structural   Cu3H26C40(NO7)2
_chemical_formula_sum   'Cu12 H104 C160 N8 O56'
_cell_volume   13452.99937790
_cell_formula_units_Z   4
loop_
 _symmetry_equiv_pos_site_id
 _symmetry_equiv_pos_as_xyz
  1  'x, y, z'
loop_
 _atom_site_type_symbol
 _atom_site_label
 _atom_site_symmetry_multiplicity
 _atom_site_fract_x
 _atom_site_fract_y
 _atom_site_fract_z
 _atom_site_occupancy
  Cu  Cu1  1  0.27985200  0.31495600  0.06019600  1
  Cu  Cu2  1  0.71687900  0.75277600  0.93808100  1
  Cu  Cu3  1  0.71850400  0.31480300  0.94142700  1
  Cu  Cu4  1  0.28154700  0.75251900  0.06330700  1
  Cu  Cu5  1  0.77985200  0.81495600  0.06019600  1
  Cu  Cu6  1  0.21687900  0.25277600  0.93808100  1
  Cu  Cu7  1  0.21850400  0.81480300  0.94142700  1
  Cu  Cu8  1  0.78154700  0.25251900  0.06330700  1
  Cu  Cu9  1  0.04152800  0.53450500  0.49462900  1
  Cu  Cu10  1  0.95697500  0.53460500  0.50646800  1
  Cu  Cu11  1  0.54152800  0.03450500  0.49462900  1
  Cu  Cu12  1  0.45697500  0.03460500  0.50646800  1
  H  H1  1  0.42508500  0.21796600  0.25363300  1
  H  H2  1  0.62806900  0.90993500  0.86194800  1
  H  H3  1  0.57349200  0.21802000  0.74730900  1
  H  H4  1  0.36195200  0.91306200  0.13236500  1
  H  H5  1  0.92508500  0.71796600  0.25363300  1
  H  H6  1  0.12806900  0.40993500  0.86194800  1
  H  H7  1  0.07349200  0.71802000  0.74730900  1
  H  H8  1  0.86195200  0.41306200  0.13236500  1
  H  H9  1  0.20548900  0.18268600  0.07658600  1
  H  H10  1  0.72977300  0.82155200  0.80119600  1
  H  H11  1  0.79309400  0.18257100  0.92483100  1
  H  H12  1  0.27620300  0.81763800  0.20952200  1
  H  H13  1  0.70548900  0.68268600  0.07658600  1
  H  H14  1  0.22977300  0.32155200  0.80119600  1
  H  H15  1  0.29309400  0.68257100  0.92483100  1
  H  H16  1  0.77620300  0.31763800  0.20952200  1
  H  H17  1  0.14966600  0.12244600  0.06974800  1
  H  H18  1  0.72889300  0.81890900  0.68761800  1
  H  H19  1  0.84892000  0.12229700  0.93175600  1
  H  H20  1  0.28701400  0.81175900  0.33270900  1
  H  H21  1  0.64966600  0.62244600  0.06974800  1
  H  H22  1  0.22889300  0.31890900  0.68761800  1
  H  H23  1  0.34892000  0.62229700  0.93175600  1
  H  H24  1  0.78701400  0.31175900  0.33270900  1
  H  H25  1  0.32286400  0.06209300  0.28688700  1
  H  H26  1  0.59949600  0.92569000  0.55800900  1
  H  H27  1  0.67571900  0.06207800  0.71426900  1
  H  H28  1  0.40624500  0.92410300  0.44861500  1
  H  H29  1  0.82286400  0.56209300  0.28688700  1
  H  H30  1  0.09949600  0.42569000  0.55800900  1
  H  H31  1  0.17571900  0.56207800  0.71426900  1
  H  H32  1  0.90624500  0.42410300  0.44861500  1
  H  H33  1  0.48251100  0.16104500  0.36576300  1
  H  H34  1  0.56955700  0.96533500  0.74677600  1
  H  H35  1  0.51610700  0.16115700  0.63507400  1
  H  H36  1  0.42049800  0.96876000  0.24693300  1
  H  H37  1  0.98251100  0.66104500  0.36576300  1
  H  H38  1  0.06955700  0.46533500  0.74677600  1
  H  H39  1  0.01610700  0.66115700  0.63507400  1
  H  H40  1  0.92049800  0.46876000  0.24693300  1
  H  H41  1  0.23508200  0.07181200  0.29434500  1
  H  H42  1  0.21113800  0.01487300  0.26663900  1
  H  H43  1  0.12399800  0.09613300  0.18202200  1
  H  H44  1  0.13285400  0.05693600  0.25324600  1
  H  H45  1  0.07379300  0.07954700  0.04711400  1
  H  H46  1  0.04746700  0.02502700  0.00625200  1
  H  H47  1  0.14697800  0.04409100  0.03945600  1
  H  H48  1  0.15266600  0.99639300  0.09442500  1
  H  H49  1  0.69601100  0.93611300  0.57818400  1
  H  H50  1  0.65831600  0.91827000  0.47003100  1
  H  H51  1  0.78726800  0.88754300  0.64455700  1
  H  H52  1  0.77356000  0.92273800  0.56482600  1
  H  H53  1  0.76652500  0.81716600  0.62062600  1
  H  H54  1  0.72875800  0.79302300  0.51778700  1
  H  H55  1  0.65217600  0.80241000  0.53638200  1
  H  H56  1  0.62948400  0.82993400  0.44342100  1
  H  H57  1  0.76314200  0.07128700  0.70668800  1
  H  H58  1  0.78716900  0.01438300  0.73487800  1
  H  H59  1  0.87420000  0.09571800  0.81837400  1
  H  H60  1  0.86519600  0.05624000  0.74740300  1
  H  H61  1  0.92462700  0.07953100  0.95353500  1
  H  H62  1  0.95120800  0.02511100  0.99498200  1
  H  H63  1  0.85183900  0.04412800  0.96208700  1
  H  H64  1  0.84607000  0.99634400  0.90723400  1
  H  H65  1  0.45254800  0.87368600  0.56173700  1
  H  H66  1  0.42292100  0.84640900  0.60315700  1
  H  H67  1  0.40396700  0.94406600  0.55245500  1
  H  H68  1  0.45100700  0.92046100  0.65844200  1
  H  H69  1  0.30023000  0.94070000  0.45567700  1
  H  H70  1  0.25788300  0.91741900  0.48157600  1
  H  H71  1  0.25424000  0.86955600  0.38299300  1
  H  H72  1  0.29153400  0.84320600  0.48538300  1
  H  H73  1  0.73508200  0.57181200  0.29434500  1
  H  H74  1  0.71113800  0.51487300  0.26663900  1
  H  H75  1  0.62399800  0.59613300  0.18202200  1
  H  H76  1  0.63285400  0.55693600  0.25324600  1
  H  H77  1  0.57379300  0.57954700  0.04711400  1
  H  H78  1  0.54746700  0.52502700  0.00625200  1
  H  H79  1  0.64697800  0.54409100  0.03945600  1
  H  H80  1  0.65266600  0.49639300  0.09442500  1
  H  H81  1  0.19601100  0.43611300  0.57818400  1
  H  H82  1  0.15831600  0.41827000  0.47003100  1
  H  H83  1  0.28726800  0.38754300  0.64455700  1
  H  H84  1  0.27356000  0.42273800  0.56482600  1
  H  H85  1  0.26652500  0.31716600  0.62062600  1
  H  H86  1  0.22875800  0.29302300  0.51778700  1
  H  H87  1  0.15217600  0.30241000  0.53638200  1
  H  H88  1  0.12948400  0.32993400  0.44342100  1
  H  H89  1  0.26314200  0.57128700  0.70668800  1
  H  H90  1  0.28716900  0.51438300  0.73487800  1
  H  H91  1  0.37420000  0.59571800  0.81837400  1
  H  H92  1  0.36519600  0.55624000  0.74740300  1
  H  H93  1  0.42462700  0.57953100  0.95353500  1
  H  H94  1  0.45120800  0.52511100  0.99498200  1
  H  H95  1  0.35183900  0.54412800  0.96208700  1
  H  H96  1  0.34607000  0.49634400  0.90723400  1
  H  H97  1  0.95254800  0.37368600  0.56173700  1
  H  H98  1  0.92292100  0.34640900  0.60315700  1
  H  H99  1  0.90396700  0.44406600  0.55245500  1
  H  H100  1  0.95100700  0.42046100  0.65844200  1
  H  H101  1  0.80023000  0.44070000  0.45567700  1
  H  H102  1  0.75788300  0.41741900  0.48157600  1
  H  H103  1  0.75424000  0.36955600  0.38299300  1
  H  H104  1  0.79153400  0.34320600  0.48538300  1
  C  C1  1  0.30201400  0.22448500  0.11799100  1
  C  C2  1  0.69418000  0.84324300  0.88030300  1
  C  C3  1  0.69650600  0.22440700  0.88328800  1
  C  C4  1  0.30386100  0.84291500  0.12145200  1
  C  C5  1  0.80201400  0.72448500  0.11799100  1
  C  C6  1  0.19418000  0.34324300  0.88030300  1
  C  C7  1  0.19650600  0.72440700  0.88328800  1
  C  C8  1  0.80386100  0.34291500  0.12145200  1
  C  C9  1  0.33903000  0.27974400  0.00294300  1
  C  C10  1  0.65772200  0.78797300  0.99539900  1
  C  C11  1  0.65932800  0.27927300  0.99847300  1
  C  C12  1  0.34070300  0.78804000  0.00620800  1
  C  C13  1  0.83903000  0.77974400  0.00294300  1
  C  C14  1  0.15772200  0.28797300  0.99539900  1
  C  C15  1  0.15932800  0.77927300  0.99847300  1
  C  C16  1  0.84070300  0.28804000  0.00620800  1
  C  C17  1  0.38878700  0.27811000  0.00305100  1
  C  C18  1  0.60825100  0.78939500  0.99584700  1
  C  C19  1  0.60964300  0.27763600  0.99850900  1
  C  C20  1  0.39013100  0.78952700  0.00567700  1
  C  C21  1  0.88878700  0.77811000  0.00305100  1
  C  C22  1  0.10825100  0.28939500  0.99584700  1
  C  C23  1  0.10964300  0.77763600  0.99850900  1
  C  C24  1  0.89013100  0.28952700  0.00567700  1
  C  C25  1  0.43025600  0.27714800  0.00249300  1
  C  C26  1  0.56721200  0.79020600  0.99724500  1
  C  C27  1  0.56820900  0.27679800  0.99914100  1
  C  C28  1  0.43114700  0.79031900  0.00423400  1
  C  C29  1  0.93025600  0.77714800  0.00249300  1
  C  C30  1  0.06721200  0.29020600  0.99724500  1
  C  C31  1  0.06820900  0.77679800  0.99914100  1
  C  C32  1  0.93114700  0.29031900  0.00423400  1
  C  C33  1  0.47863300  0.27650500  0.00138000  1
  C  C34  1  0.51948800  0.79071300  0.99961700  1
  C  C35  1  0.51985100  0.27639200  0.00029800  1
  C  C36  1  0.47885900  0.79075200  0.00183700  1
  C  C37  1  0.97863300  0.77650500  0.00138000  1
  C  C38  1  0.01948800  0.29071300  0.99961700  1
  C  C39  1  0.01985100  0.77639200  0.00029800  1
  C  C40  1  0.97885900  0.29075200  0.00183700  1
  C  C41  1  0.23356500  0.15639200  0.12277400  1
  C  C42  1  0.69990400  0.84490300  0.74866500  1
  C  C43  1  0.76502200  0.15630400  0.87856600  1
  C  C44  1  0.30638900  0.84122000  0.26144800  1
  C  C45  1  0.73356500  0.65639200  0.12277400  1
  C  C46  1  0.19990400  0.34490300  0.74866500  1
  C  C47  1  0.26502200  0.65630400  0.87856600  1
  C  C48  1  0.80638900  0.34122000  0.26144800  1
  C  C49  1  0.20096300  0.12188300  0.11902800  1
  C  C50  1  0.69973400  0.84333200  0.68319200  1
  C  C51  1  0.79762300  0.12177300  0.88236000  1
  C  C52  1  0.31146000  0.83801100  0.33115700  1
  C  C53  1  0.70096300  0.62188300  0.11902800  1
  C  C54  1  0.19973400  0.34333200  0.68319200  1
  C  C55  1  0.29762300  0.62177300  0.88236000  1
  C  C56  1  0.81146000  0.33801100  0.33115700  1
  C  C57  1  0.23370600  0.08770200  0.17772800  1
  C  C58  1  0.66328600  0.87260800  0.61449000  1
  C  C59  1  0.76488200  0.08761700  0.82358300  1
  C  C60  1  0.34823100  0.86726700  0.39942000  1
  C  C61  1  0.73370600  0.58770200  0.17772800  1
  C  C62  1  0.16328600  0.37260800  0.61449000  1
  C  C63  1  0.26488200  0.58761700  0.82358300  1
  C  C64  1  0.84823100  0.36726800  0.39942000  1
  C  C65  1  0.29910000  0.08948900  0.24243000  1
  C  C66  1  0.62865000  0.90417300  0.61380300  1
  C  C67  1  0.69949500  0.08945900  0.75876400  1
  C  C68  1  0.37827700  0.90110900  0.39557300  1
  C  C69  1  0.79910000  0.58948900  0.24243000  1
  C  C70  1  0.12865000  0.40417300  0.61380300  1
  C  C71  1  0.19949500  0.58945900  0.75876400  1
  C  C72  1  0.87827700  0.40110900  0.39557300  1
  C  C73  1  0.33258400  0.12440700  0.24771500  1
  C  C74  1  0.63005000  0.90708000  0.68099600  1
  C  C75  1  0.66601900  0.12440700  0.75341200  1
  C  C76  1  0.37241100  0.90535500  0.32449200  1
  C  C77  1  0.83258400  0.62440700  0.24771500  1
  C  C78  1  0.13005000  0.40708000  0.68099600  1
  C  C79  1  0.16601900  0.62440700  0.75341200  1
  C  C80  1  0.87241100  0.40535500  0.32449200  1
  C  C81  1  0.29967500  0.15722300  0.18480600  1
  C  C82  1  0.66402200  0.87598300  0.74727600  1
  C  C83  1  0.69891300  0.15719300  0.81639500  1
  C  C84  1  0.33827700  0.87404200  0.25852300  1
  C  C85  1  0.79967500  0.65722300  0.18480600  1
  C  C86  1  0.16402200  0.37598300  0.74727600  1
  C  C87  1  0.19891300  0.65719300  0.81639500  1
  C  C88  1  0.83827700  0.37404200  0.25852300  1
  C  C89  1  0.33333333  0.19083800  0.18632600  1
  C  C90  1  0.66283100  0.87691600  0.81228100  1
  C  C91  1  0.66527700  0.19082400  0.81482800  1
  C  C92  1  0.33515100  0.87662600  0.18953700  1
  C  C93  1  0.83330100  0.69083800  0.18632600  1
  C  C94  1  0.16283100  0.37691600  0.81228100  1
  C  C95  1  0.16527700  0.69082400  0.81482800  1
  C  C96  1  0.83515100  0.37662600  0.18953700  1
  C  C97  1  0.39871600  0.19211400  0.25224500  1
  C  C98  1  0.62930200  0.90930800  0.81176600  1
  C  C99  1  0.59987600  0.19216100  0.74874800  1
  C  C100  1  0.36411600  0.91101900  0.18563400  1
  C  C101  1  0.89871600  0.69211400  0.25224500  1
  C  C102  1  0.12930200  0.40930800  0.81176600  1
  C  C103  1  0.09987600  0.69216100  0.74874800  1
  C  C104  1  0.86411600  0.41101900  0.18563400  1
  C  C105  1  0.43115900  0.15978300  0.31483100  1
  C  C106  1  0.59575200  0.94016200  0.74631800  1
  C  C107  1  0.56745300  0.15986300  0.68609200  1
  C  C108  1  0.39771500  0.94207900  0.25066500  1
  C  C109  1  0.93115900  0.65978300  0.31483100  1
  C  C110  1  0.09575200  0.44016200  0.74631800  1
  C  C111  1  0.06745300  0.65986300  0.68609200  1
  C  C112  1  0.89771500  0.44207900  0.25066500  1
  C  C113  1  0.39867100  0.12611500  0.31351800  1
  C  C114  1  0.59634700  0.93972300  0.68142300  1
  C  C115  1  0.59994200  0.12616500  0.68748200  1
  C  C116  1  0.40174100  0.93982600  0.31967100  1
  C  C117  1  0.89867100  0.62611500  0.31351800  1
  C  C118  1  0.09634700  0.43972300  0.68142300  1
  C  C119  1  0.09994200  0.62616500  0.68748200  1
  C  C120  1  0.90174100  0.43982600  0.31967100  1
  C  C121  1  0.93719700  0.47454800  0.38571900  1
  C  C122  1  0.06293700  0.59292300  0.61860600  1
  C  C123  1  0.06109600  0.47441000  0.61517600  1
  C  C124  1  0.93566400  0.59290100  0.38244200  1
  C  C125  1  0.43719700  0.97454800  0.38571900  1
  C  C126  1  0.56293700  0.09292300  0.61860600  1
  C  C127  1  0.56109600  0.97441000  0.61517600  1
  C  C128  1  0.43566400  0.09290100  0.38244200  1
  C  C129  1  0.19981000  0.04881300  0.24046300  1
  C  C130  1  0.13417300  0.06113100  0.20216500  1
  C  C131  1  0.08596600  0.04442700  0.06502900  1
  C  C132  1  0.14798000  0.03269100  0.09041700  1
  C  C133  1  0.68951800  0.90801500  0.53920400  1
  C  C134  1  0.75383300  0.89476500  0.57370300  1
  C  C135  1  0.73033500  0.82295500  0.54927800  1
  C  C136  1  0.66458700  0.82988900  0.51578200  1
  C  C137  1  0.79851000  0.04839400  0.76074000  1
  C  C138  1  0.86405300  0.06066200  0.79861300  1
  C  C139  1  0.91257600  0.04436400  0.93604400  1
  C  C140  1  0.85070000  0.03264500  0.91104200  1
  C  C141  1  0.41245300  0.87262600  0.55823800  1
  C  C142  1  0.40712500  0.91594700  0.58863500  1
  C  C143  1  0.30055100  0.91358700  0.49119200  1
  C  C144  1  0.29661600  0.86960800  0.45419400  1
  C  C145  1  0.69981000  0.54881300  0.24046300  1
  C  C146  1  0.63417300  0.56113100  0.20216500  1
  C  C147  1  0.58596600  0.54442700  0.06502900  1
  C  C148  1  0.64798000  0.53269100  0.09041700  1
  C  C149  1  0.18951800  0.40801500  0.53920400  1
  C  C150  1  0.25383300  0.39476500  0.57370300  1
  C  C151  1  0.23033500  0.32295500  0.54927800  1
  C  C152  1  0.16458700  0.32988900  0.51578200  1
  C  C153  1  0.29851000  0.54839400  0.76074000  1
  C  C154  1  0.36405300  0.56066200  0.79861300  1
  C  C155  1  0.41257600  0.54436400  0.93604400  1
  C  C156  1  0.35070000  0.53264500  0.91104200  1
  C  C157  1  0.91245300  0.37262600  0.55823800  1
  C  C158  1  0.90712500  0.41594700  0.58863500  1
  C  C159  1  0.80055100  0.41358700  0.49119200  1
  C  C160  1  0.79661600  0.36960800  0.45419400  1
  N  N1  1  0.20189600  0.05096400  0.17422300  1
  N  N2  1  0.66079900  0.87149600  0.54479300  1
  N  N3  1  0.79667200  0.05081800  0.82720400  1
  N  N4  1  0.35348500  0.86213200  0.47117800  1
  N  N5  1  0.70189600  0.55096400  0.17422300  1
  N  N6  1  0.16079900  0.37149600  0.54479300  1
  N  N7  1  0.29667200  0.55081800  0.82720400  1
  N  N8  1  0.85348500  0.36213200  0.47117800  1
  O  O1  1  0.31923900  0.26561800  0.14175900  1
  O  O2  1  0.67814000  0.80201400  0.85641500  1
  O  O3  1  0.67930900  0.26555800  0.85966300  1
  O  O4  1  0.32024500  0.80169100  0.14512200  1
  O  O5  1  0.81923900  0.76561800  0.14175900  1
  O  O6  1  0.17814000  0.30201400  0.85641500  1
  O  O7  1  0.17930900  0.76555800  0.85966300  1
  O  O8  1  0.82024500  0.30169100  0.14512200  1
  O  O9  1  0.26014200  0.21200900  0.03601000  1
  O  O10  1  0.73572400  0.85582600  0.96221200  1
  O  O11  1  0.73828200  0.21185300  0.96522700  1
  O  O12  1  0.26240900  0.85555100  0.03955900  1
  O  O13  1  0.76014200  0.71200900  0.03601000  1
  O  O14  1  0.23572400  0.35582600  0.96221200  1
  O  O15  1  0.23828200  0.71185300  0.96522700  1
  O  O16  1  0.76240900  0.35555100  0.03955900  1
  O  O17  1  0.34301300  0.30918500  0.05201200  1
  O  O18  1  0.65321700  0.75900800  0.94523900  1
  O  O19  1  0.65524900  0.30875100  0.94937800  1
  O  O20  1  0.34517200  0.75891200  0.05611500  1
  O  O21  1  0.84301300  0.80918500  0.05201200  1
  O  O22  1  0.15321700  0.25900800  0.94523900  1
  O  O23  1  0.15524900  0.80875100  0.94937800  1
  O  O24  1  0.84517200  0.25891200  0.05611500  1
  O  O25  1  0.29120100  0.25233000  0.95238100  1
  O  O26  1  0.70599700  0.81495100  0.04694500  1
  O  O27  1  0.70725200  0.25192700  0.04907100  1
  O  O28  1  0.29245400  0.81506200  0.95489000  1
  O  O29  1  0.79120100  0.75233000  0.95238100  1
  O  O30  1  0.20599700  0.31495100  0.04694500  1
  O  O31  1  0.20725200  0.75192700  0.04907100  1
  O  O32  1  0.79245400  0.31506200  0.95489000  1
  O  O33  1  0.99661800  0.48176400  0.42409400  1
  O  O34  1  0.01937800  0.57091400  0.60972900  1
  O  O35  1  0.00178000  0.48184700  0.57698400  1
  O  O36  1  0.97920100  0.57082500  0.39134900  1
  O  O37  1  0.49661800  0.98176400  0.42409400  1
  O  O38  1  0.51937800  0.07091400  0.60972900  1
  O  O39  1  0.50178000  0.98184700  0.57698400  1
  O  O40  1  0.47920100  0.07082500  0.39134900  1
  O  O41  1  0.90764300  0.49809500  0.40159100  1
  O  O42  1  0.07367700  0.58715600  0.56740100  1
  O  O43  1  0.09076200  0.49799900  0.59951300  1
  O  O44  1  0.92493300  0.58723700  0.43367700  1
  O  O45  1  0.40764300  0.99809500  0.40159100  1
  O  O46  1  0.57367700  0.08715600  0.56740100  1
  O  O47  1  0.59076200  0.99799900  0.59951300  1
  O  O48  1  0.42493300  0.08723700  0.43367700  1
  O  O49  1  0.08866300  0.03348000  0.13203200  1
  O  O50  1  0.74730000  0.85866300  0.52699500  1
  O  O51  1  0.90972100  0.03317300  0.86898400  1
  O  O52  1  0.35485700  0.91524000  0.58060000  1
  O  O53  1  0.58866300  0.53348000  0.13203200  1
  O  O54  1  0.24730000  0.35866300  0.52699500  1
  O  O55  1  0.40972100  0.53317300  0.86898400  1
  O  O56  1  0.85485700  0.41524000  0.58060000  1
