# generated using pymatgen
data_Zn2H15C36N3O10
_symmetry_space_group_name_H-M   'P 1'
_cell_length_a   8.53062400
_cell_length_b   13.04081500
_cell_length_c   13.32466800
_cell_angle_alpha   90.59864900
_cell_angle_beta   93.30544200
_cell_angle_gamma   86.46166900
_symmetry_Int_Tables_number   1
_chemical_formula_structural   Zn2H15C36N3O10
_chemical_formula_sum   'Zn2 H15 C36 N3 O10'
_cell_volume   1476.99749965
_cell_formula_units_Z   1
loop_
 _symmetry_equiv_pos_site_id
 _symmetry_equiv_pos_as_xyz
  1  'x, y, z'
loop_
 _atom_site_type_symbol
 _atom_site_label
 _atom_site_symmetry_multiplicity
 _atom_site_fract_x
 _atom_site_fract_y
 _atom_site_fract_z
 _atom_site_occupancy
  Zn  Zn1  1  0.55378600  0.51074800  0.88686700  1
  Zn  Zn2  1  0.56700400  0.49452700  0.11049400  1
  H  H1  1  0.63734200  0.81401100  0.01318500  1
  H  H2  1  0.60258800  0.99661100  0.00405500  1
  H  H3  1  0.04916800  0.43120000  0.96337100  1
  H  H4  1  0.34898300  0.16166300  0.99333300  1
  H  H5  1  0.24565300  0.00539300  0.00035900  1
  H  H6  1  0.27429400  0.84971200  0.98287800  1
  H  H7  1  0.06818500  0.57419600  0.03960700  1
  H  H8  1  0.81561600  0.46083100  0.26390500  1
  H  H9  1  0.32356400  0.51380100  0.23851600  1
  H  H10  1  0.17661700  0.54315200  0.38541600  1
  H  H11  1  0.16967700  0.55676500  0.56893000  1
  H  H12  1  0.30533600  0.54439400  0.73344300  1
  H  H13  1  0.79737500  0.49136200  0.75886500  1
  H  H14  1  0.94433700  0.46200300  0.61195000  1
  H  H15  1  0.95128000  0.44841200  0.42843300  1
  C  C1  1  0.02077700  0.86587200  0.00240000  1
  C  C2  1  0.88931600  0.80883400  0.00953600  1
  C  C3  1  0.74070800  0.85711500  0.00832500  1
  C  C4  1  0.72090600  0.96207300  0.00365000  1
  C  C5  1  0.84947000  0.02100700  0.00044800  1
  C  C6  1  0.99987700  0.97359600  0.99933000  1
  C  C7  1  0.82610600  0.12745200  0.99796300  1
  C  C8  1  0.95262800  0.18830500  0.99310000  1
  C  C9  1  0.10236100  0.14102600  0.99280200  1
  C  C10  1  0.12577000  0.03571600  0.99751300  1
  C  C11  1  0.93462100  0.29525400  0.98728300  1
  C  C12  1  0.06446800  0.34972200  0.97382700  1
  C  C13  1  0.21302600  0.30311700  0.97829100  1
  C  C14  1  0.23225100  0.19861500  0.98920300  1
  C  C15  1  0.16846600  0.81296200  0.99668500  1
  C  C16  1  0.18407900  0.70780000  0.00935500  1
  C  C17  1  0.05446700  0.65531800  0.02646300  1
  C  C18  1  0.90702300  0.70326300  0.01963800  1
  C  C19  1  0.34723400  0.36734100  0.98376400  1
  C  C20  1  0.33425900  0.64734500  0.00388200  1
  C  C21  1  0.77344200  0.63812400  0.01377600  1
  C  C22  1  0.78586200  0.35744400  0.99328600  1
  C  C23  1  0.70510100  0.47322000  0.29929600  1
  C  C24  1  0.43118400  0.50355400  0.28507300  1
  C  C25  1  0.42561800  0.51077100  0.38805700  1
  C  C26  1  0.56239000  0.49848700  0.44722300  1
  C  C27  1  0.70292100  0.47836000  0.40291000  1
  C  C28  1  0.28433500  0.53203600  0.43180700  1
  C  C29  1  0.28047100  0.53998500  0.53503500  1
  C  C30  1  0.41803600  0.52682200  0.59444900  1
  C  C31  1  0.55856900  0.50668400  0.55014200  1
  C  C32  1  0.69533700  0.49439400  0.60931200  1
  C  C33  1  0.83661800  0.47312300  0.56555900  1
  C  C34  1  0.84048400  0.46518800  0.46232800  1
  C  C35  1  0.41585300  0.53198800  0.69805900  1
  C  C36  1  0.68976400  0.50161700  0.71229900  1
  N  N1  1  0.56996900  0.48695300  0.24215700  1
  N  N2  1  0.55097800  0.51826400  0.75520500  1
  N  N3  1  0.67078200  0.17360000  0.99808300  1
  O  O1  1  0.40157600  0.39488400  0.07337700  1
  O  O2  1  0.39472300  0.40437800  0.90029200  1
  O  O3  1  0.38002700  0.61737600  0.91496600  1
  O  O4  1  0.39699800  0.60757600  0.08799900  1
  O  O5  1  0.71926000  0.61038800  0.92410000  1
  O  O6  1  0.72586600  0.60101200  0.09709500  1
  O  O7  1  0.74074900  0.38786500  0.08231200  1
  O  O8  1  0.72350000  0.39754200  0.90930700  1
  O  O9  1  0.61091600  0.19822200  0.08323400  1
  O  O10  1  0.60227200  0.20853500  0.91454900  1
