# generated using pymatgen
data_Zn2H17C41(NO3)5
_symmetry_space_group_name_H-M   'P 1'
_cell_length_a   18.98112200
_cell_length_b   8.50773100
_cell_length_c   13.41371300
_cell_angle_alpha   90.00000000
_cell_angle_beta   101.90190100
_cell_angle_gamma   90.00000000
_symmetry_Int_Tables_number   1
_chemical_formula_structural   Zn2H17C41(NO3)5
_chemical_formula_sum   'Zn2 H17 C41 N5 O15'
_cell_volume   2119.56344784
_cell_formula_units_Z   1
loop_
 _symmetry_equiv_pos_site_id
 _symmetry_equiv_pos_as_xyz
  1  'x, y, z'
loop_
 _atom_site_type_symbol
 _atom_site_label
 _atom_site_symmetry_multiplicity
 _atom_site_fract_x
 _atom_site_fract_y
 _atom_site_fract_z
 _atom_site_occupancy
  Zn  Zn1  1  0.50318400  0.50098400  0.88927700  1
  Zn  Zn2  1  0.49879900  0.49857100  0.11064500  1
  H  H1  1  0.90211900  0.24931500  0.80571700  1
  H  H2  1  0.97134900  0.74565500  0.19370900  1
  H  H3  1  0.02873100  0.25230300  0.79889400  1
  H  H4  1  0.09790500  0.74857000  0.18685100  1
  H  H5  1  0.26448100  0.74968700  0.98600900  1
  H  H6  1  0.26369200  0.25208800  0.98591700  1
  H  H7  1  0.73583700  0.24944400  0.00714400  1
  H  H8  1  0.73595600  0.74761400  0.00849600  1
  H  H9  1  0.44118900  0.00314500  0.91666300  1
  H  H10  1  0.38426700  0.50005000  0.21401400  1
  H  H11  1  0.67689000  0.49427800  0.63301400  1
  H  H12  1  0.37871300  0.50156000  0.39036000  1
  H  H13  1  0.38110600  0.50551300  0.54475900  1
  H  H14  1  0.39107600  0.50630200  0.72434400  1
  H  H15  1  0.64283500  0.38709100  0.29633500  1
  H  H16  1  0.51681900  0.93865700  0.05358100  1
  H  H17  1  0.64689700  0.60800600  0.79276200  1
  C  C1  1  0.86796200  0.90756300  0.07279700  1
  C  C2  1  0.84328800  0.08487700  0.93624000  1
  C  C3  1  0.91536600  0.08731700  0.93103000  1
  C  C4  1  0.94017400  0.90705500  0.06918800  1
  C  C5  1  0.96397500  0.99799600  0.99811800  1
  C  C6  1  0.93919300  0.17834300  0.85929100  1
  C  C7  1  0.98880900  0.81774700  0.13704700  1
  C  C8  1  0.01124500  0.18011300  0.85548900  1
  C  C9  1  0.06083300  0.81946900  0.13322500  1
  C  C10  1  0.05990200  0.09084500  0.92336300  1
  C  C11  1  0.08464200  0.91052200  0.06150300  1
  C  C12  1  0.03605100  0.99974600  0.99432900  1
  C  C13  1  0.13219900  0.09074000  0.92006900  1
  C  C14  1  0.15673300  0.91328900  0.05655900  1
  C  C15  1  0.28973300  0.86073400  0.97598600  1
  C  C16  1  0.28875400  0.14197200  0.97291400  1
  C  C17  1  0.35803500  0.86153000  0.95530000  1
  C  C18  1  0.35687400  0.14176000  0.95221400  1
  C  C19  1  0.38841500  0.00177100  0.93477700  1
  C  C20  1  0.25315600  0.00131900  0.97819000  1
  C  C21  1  0.71097400  0.13865700  0.01895400  1
  C  C22  1  0.71157800  0.85796900  0.02276700  1
  C  C23  1  0.64397500  0.13857800  0.04397600  1
  C  C24  1  0.64469300  0.85845900  0.04759600  1
  C  C25  1  0.61420400  0.99937400  0.06754600  1
  C  C26  1  0.74716000  0.99797600  0.01589700  1
  C  C27  1  0.40331600  0.72073700  0.96944600  1
  C  C28  1  0.40188200  0.28235700  0.96700100  1
  C  C29  1  0.60018800  0.71703700  0.03311800  1
  C  C30  1  0.59868200  0.27896000  0.03045100  1
  C  C31  1  0.55948200  0.49599900  0.31085200  1
  C  C32  1  0.43390000  0.49895300  0.27057200  1
  C  C33  1  0.43135700  0.50004900  0.37259000  1
  C  C34  1  0.49471200  0.49923900  0.44629100  1
  C  C35  1  0.55904700  0.49692100  0.41347800  1
  C  C36  1  0.43456500  0.50375000  0.59087500  1
  C  C37  1  0.49631300  0.50065100  0.55094600  1
  C  C38  1  0.56219900  0.49885600  0.61847200  1
  C  C39  1  0.62493900  0.49601900  0.58165900  1
  C  C40  1  0.43981200  0.50454000  0.69462700  1
  C  C41  1  0.56533800  0.49977200  0.72272300  1
  N  N1  1  0.82079100  0.99608600  0.00698000  1
  N  N2  1  0.17931100  0.00227800  0.98599900  1
  N  N3  1  0.49733400  0.49701600  0.24095400  1
  N  N4  1  0.62221100  0.49537600  0.48084600  1
  N  N5  1  0.50431800  0.50256900  0.75888800  1
  O  O1  1  0.84492300  0.82368200  0.14471700  1
  O  O2  1  0.79526600  0.16813300  0.86912100  1
  O  O3  1  0.15542200  0.17522100  0.84856800  1
  O  O4  1  0.20473600  0.83037900  0.12392600  1
  O  O5  1  0.42593100  0.66892100  0.06282300  1
  O  O6  1  0.42477700  0.33140500  0.06085800  1
  O  O7  1  0.42754700  0.66658400  0.89136000  1
  O  O8  1  0.42644800  0.33725800  0.88939700  1
  O  O9  1  0.57705000  0.66875200  0.93907700  1
  O  O10  1  0.57603600  0.33037000  0.93703100  1
  O  O11  1  0.57551100  0.66239800  0.11071800  1
  O  O12  1  0.57419000  0.33235700  0.10861100  1
  O  O13  1  0.62391400  0.49469200  0.28056400  1
  O  O14  1  0.55127500  0.00227500  0.10214500  1
  O  O15  1  0.63033700  0.49741000  0.78940400  1
