# generated using pymatgen
data_ZnH18C28(N2O3)2
_symmetry_space_group_name_H-M   'P 1'
_cell_length_a   15.91243900
_cell_length_b   17.10304800
_cell_length_c   23.44655200
_cell_angle_alpha   90.00650700
_cell_angle_beta   92.71409000
_cell_angle_gamma   89.11970000
_symmetry_Int_Tables_number   1
_chemical_formula_structural   ZnH18C28(N2O3)2
_chemical_formula_sum   'Zn2 H36 C56 N8 O12'
_cell_volume   6373.09613853
_cell_formula_units_Z   2
loop_
 _symmetry_equiv_pos_site_id
 _symmetry_equiv_pos_as_xyz
  1  'x, y, z'
loop_
 _atom_site_type_symbol
 _atom_site_label
 _atom_site_symmetry_multiplicity
 _atom_site_fract_x
 _atom_site_fract_y
 _atom_site_fract_z
 _atom_site_occupancy
  Zn  Zn1  1  0.40451900  0.49599700  0.49698700  1
  Zn  Zn2  1  0.59548100  0.50400200  0.50301300  1
  H  H1  1  0.58183300  0.67531400  0.05798100  1
  H  H2  1  0.41816700  0.32468600  0.94201900  1
  H  H3  1  0.63432500  0.50551400  0.78982000  1
  H  H4  1  0.36567500  0.49448600  0.21018000  1
  H  H5  1  0.63479100  0.50537800  0.68605400  1
  H  H6  1  0.36520800  0.49462200  0.31394600  1
  H  H7  1  0.36561000  0.49595200  0.67764800  1
  H  H8  1  0.63439000  0.50404700  0.32235200  1
  H  H9  1  0.36642600  0.49693100  0.78145800  1
  H  H10  1  0.63357300  0.50306800  0.21854200  1
  H  H11  1  0.38180400  0.24546200  0.49626300  1
  H  H12  1  0.61819600  0.75453800  0.50373700  1
  H  H13  1  0.38950500  0.10558000  0.49646200  1
  H  H14  1  0.61049400  0.89441900  0.50353800  1
  H  H15  1  0.34108700  0.88577100  0.49483600  1
  H  H16  1  0.65891200  0.11422900  0.50516400  1
  H  H17  1  0.34931800  0.74354600  0.49504700  1
  H  H18  1  0.65068200  0.25645400  0.50495300  1
  H  H19  1  0.26598200  0.57707800  0.55593400  1
  H  H20  1  0.73401700  0.42292200  0.44406600  1
  H  H21  1  0.11428500  0.57286600  0.55292100  1
  H  H22  1  0.88571400  0.42713400  0.44707900  1
  H  H23  1  0.72191200  0.59623400  0.57024400  1
  H  H24  1  0.27808700  0.40376600  0.42975500  1
  H  H25  1  0.84135800  0.65269000  0.61131800  1
  H  H26  1  0.93093200  0.58685900  0.61799400  1
  H  H27  1  0.92579600  0.66171200  0.56317300  1
  H  H28  1  0.15864100  0.34730900  0.38868200  1
  H  H29  1  0.07420300  0.33828800  0.43682700  1
  H  H30  1  0.06906800  0.41314000  0.38200600  1
  H  H31  1  0.54555600  0.73258600  0.92256900  1
  H  H32  1  0.61571200  0.74317400  0.98360900  1
  H  H33  1  0.65064200  0.68723900  0.92477700  1
  H  H34  1  0.45444300  0.26741400  0.07743100  1
  H  H35  1  0.34935700  0.31276000  0.07522300  1
  H  H36  1  0.38428700  0.25682600  0.01639100  1
  C  C1  1  0.48998200  0.65296700  0.49952400  1
  C  C2  1  0.51001700  0.34703200  0.50047600  1
  C  C3  1  0.50009400  0.50028300  0.61168500  1
  C  C4  1  0.49990600  0.49971600  0.38831500  1
  C  C5  1  0.47089100  0.43557300  0.11771600  1
  C  C6  1  0.52910900  0.56442600  0.88228400  1
  C  C7  1  0.52822900  0.56095000  0.11950200  1
  C  C8  1  0.47177000  0.43904900  0.88049800  1
  C  C9  1  0.52891100  0.56187000  0.06071400  1
  C  C10  1  0.47108800  0.43813000  0.93928600  1
  C  C11  1  0.49958200  0.49889200  0.02956700  1
  C  C12  1  0.50041700  0.50110800  0.97043300  1
  C  C13  1  0.46964500  0.43421600  0.05789100  1
  C  C14  1  0.53035500  0.56578400  0.94210900  1
  C  C15  1  0.55879400  0.62621100  0.03327800  1
  C  C16  1  0.44120500  0.37378800  0.96672200  1
  C  C17  1  0.56017300  0.62929300  0.97457900  1
  C  C18  1  0.43982600  0.37070700  0.02542100  1
  C  C19  1  0.57526600  0.50383300  0.76512300  1
  C  C20  1  0.42473400  0.49616600  0.23487700  1
  C  C21  1  0.57527900  0.50348600  0.70633100  1
  C  C22  1  0.42472100  0.49651300  0.29366900  1
  C  C23  1  0.50018600  0.50060200  0.67423000  1
  C  C24  1  0.49981400  0.49939800  0.32577000  1
  C  C25  1  0.42519400  0.49807500  0.70164800  1
  C  C26  1  0.57480600  0.50192500  0.29835200  1
  C  C27  1  0.42540700  0.49839900  0.76045000  1
  C  C28  1  0.57459200  0.50160000  0.23955000  1
  C  C29  1  0.50038100  0.50135100  0.79239500  1
  C  C30  1  0.49961800  0.49864800  0.20760500  1
  C  C31  1  0.48445600  0.73863500  0.49936800  1
  C  C32  1  0.51554400  0.26136500  0.50063200  1
  C  C33  1  0.55678400  0.78251700  0.50174100  1
  C  C34  1  0.44321500  0.21748300  0.49825900  1
  C  C35  1  0.55193500  0.86311800  0.50162200  1
  C  C36  1  0.44806400  0.13688100  0.49837800  1
  C  C37  1  0.47394800  0.90076400  0.49911700  1
  C  C38  1  0.52605200  0.09923500  0.50088300  1
  C  C39  1  0.40199600  0.85678300  0.49678000  1
  C  C40  1  0.59800400  0.14321600  0.50322000  1
  C  C41  1  0.40692100  0.77627900  0.49690100  1
  C  C42  1  0.59307800  0.22372100  0.50309900  1
  C  C43  1  0.76598700  0.46286700  0.47315100  1
  C  C44  1  0.23401300  0.53713300  0.52684900  1
  C  C45  1  0.85262900  0.46570700  0.47518000  1
  C  C46  1  0.14737000  0.53429300  0.52482000  1
  C  C47  1  0.89353500  0.51701400  0.51250800  1
  C  C48  1  0.10646400  0.48298600  0.48749200  1
  C  C49  1  0.84611100  0.56409500  0.54681800  1
  C  C50  1  0.15388900  0.43590400  0.45318200  1
  C  C51  1  0.75947100  0.55951600  0.54351900  1
  C  C52  1  0.24052900  0.44048300  0.45648100  1
  C  C53  1  0.88861500  0.61970500  0.58727400  1
  C  C54  1  0.11138500  0.38029500  0.41272600  1
  C  C55  1  0.59486100  0.70196700  0.94954300  1
  C  C56  1  0.40513800  0.29803200  0.05045700  1
  N  N1  1  0.49951700  0.49846000  0.14676200  1
  N  N2  1  0.50048200  0.50154000  0.85323800  1
  N  N3  1  0.46556100  0.98324400  0.49888500  1
  N  N4  1  0.53443900  0.01675500  0.50111500  1
  N  N5  1  0.72102200  0.50934600  0.50700700  1
  N  N6  1  0.27897800  0.49065400  0.49299300  1
  N  N7  1  0.98224200  0.52262000  0.51651400  1
  N  N8  1  0.01775700  0.47738000  0.48348600  1
  O  O1  1  0.41995100  0.61335900  0.49732600  1
  O  O2  1  0.58004900  0.38664100  0.50267400  1
  O  O3  1  0.56474900  0.61939800  0.50191600  1
  O  O4  1  0.43525000  0.38060200  0.49808400  1
  O  O5  1  0.42765600  0.49719500  0.58269300  1
  O  O6  1  0.57234400  0.50280400  0.41730700  1
  O  O7  1  0.57246300  0.50319200  0.58725300  1
  O  O8  1  0.42753600  0.49680700  0.41274700  1
  O  O9  1  0.44572200  0.37430100  0.14795700  1
  O  O10  1  0.55427800  0.62569800  0.85204300  1
  O  O11  1  0.55478400  0.62321900  0.14991400  1
  O  O12  1  0.44521600  0.37678000  0.85008600  1
