# generated using pymatgen
data_FeH14C30S(NO4)2
_symmetry_space_group_name_H-M   'P 1'
_cell_length_a   16.98281800
_cell_length_b   9.25428500
_cell_length_c   24.84658800
_cell_angle_alpha   94.19223900
_cell_angle_beta   89.85371300
_cell_angle_gamma   69.71190800
_symmetry_Int_Tables_number   1
_chemical_formula_structural   FeH14C30S(NO4)2
_chemical_formula_sum   'Fe2 H28 C60 S2 N4 O16'
_cell_volume   3651.29861357
_cell_formula_units_Z   2
loop_
 _symmetry_equiv_pos_site_id
 _symmetry_equiv_pos_as_xyz
  1  'x, y, z'
loop_
 _atom_site_type_symbol
 _atom_site_label
 _atom_site_symmetry_multiplicity
 _atom_site_fract_x
 _atom_site_fract_y
 _atom_site_fract_z
 _atom_site_occupancy
  Fe  Fe1  1  0.47605600  0.99879600  0.75921400  1
  Fe  Fe2  1  0.52173800  0.99937700  0.24632300  1
  H  H1  1  0.00433200  0.82343300  0.83163800  1
  H  H2  1  0.27643100  0.93108300  0.99233400  1
  H  H3  1  0.99373000  0.17382000  0.17395700  1
  H  H4  1  0.72141400  0.06687400  0.01319400  1
  H  H5  1  0.06370700  0.86604000  0.98017500  1
  H  H6  1  0.93415100  0.13186600  0.02537300  1
  H  H7  1  0.92153000  0.05445700  0.22047400  1
  H  H8  1  0.69847900  0.99281600  0.10197800  1
  H  H9  1  0.65550400  0.05081500  0.93326700  1
  H  H10  1  0.73593300  0.80343400  0.77880800  1
  H  H11  1  0.07627800  0.94335600  0.78507500  1
  H  H12  1  0.29930000  0.00525400  0.90354100  1
  H  H13  1  0.34231400  0.94708700  0.07231500  1
  H  H14  1  0.26176000  0.19473700  0.22672800  1
  H  H15  1  0.80780600  0.98836300  0.25832400  1
  H  H16  1  0.18996300  0.00955400  0.74720200  1
  H  H17  1  0.52127300  0.27883500  0.40400500  1
  H  H18  1  0.49952700  0.75088700  0.42865100  1
  H  H19  1  0.49811700  0.24736300  0.57683500  1
  H  H20  1  0.47639200  0.71940600  0.60148400  1
  H  H21  1  0.53895400  0.52901600  0.26954100  1
  H  H22  1  0.45873100  0.46921600  0.73594800  1
  H  H23  1  0.95867600  0.85533200  0.72027600  1
  H  H24  1  0.87197800  0.97533600  0.76378500  1
  H  H25  1  0.85258900  0.86329100  0.70568800  1
  H  H26  1  0.02874600  0.56707500  0.21258100  1
  H  H27  1  0.07539900  0.45364200  0.15094800  1
  H  H28  1  0.14184800  0.49262000  0.20312500  1
  C  C1  1  0.78839900  0.95737200  0.91487600  1
  C  C2  1  0.85100800  0.88569600  0.87729100  1
  C  C3  1  0.92470300  0.89242600  0.89979900  1
  C  C4  1  0.82569300  0.99591800  0.96029900  1
  C  C5  1  0.99837300  0.85928400  0.87384500  1
  C  C6  1  0.06883400  0.89907700  0.89615700  1
  C  C7  1  0.12504000  0.93548900  0.86484100  1
  C  C8  1  0.18487300  0.95523900  0.89752900  1
  C  C9  1  0.16352900  0.93239500  0.94913700  1
  C  C10  1  0.21059900  0.94683700  0.99745200  1
  C  C11  1  0.17212600  0.00215900  0.04520800  1
  C  C12  1  0.20940600  0.04071900  0.09063300  1
  C  C13  1  0.14677700  0.11251000  0.12818400  1
  C  C14  1  0.07310000  0.10571500  0.10568700  1
  C  C15  1  0.99951000  0.13849700  0.13170300  1
  C  C16  1  0.92901700  0.09878300  0.10938900  1
  C  C17  1  0.87279100  0.06238500  0.14069700  1
  C  C18  1  0.81294800  0.04269800  0.10800000  1
  C  C19  1  0.83431000  0.06554600  0.05639500  1
  C  C20  1  0.78724000  0.05115100  0.00807000  1
  C  C21  1  0.87283300  0.04197800  0.19468800  1
  C  C22  1  0.80842400  0.00283900  0.21560400  1
  C  C23  1  0.74480400  0.98651900  0.18297700  1
  C  C24  1  0.74696500  0.00549800  0.12796700  1
  C  C25  1  0.70481500  0.98590700  0.90425800  1
  C  C26  1  0.68569800  0.93365700  0.85401300  1
  C  C27  1  0.75001300  0.84821200  0.81754700  1
  C  C28  1  0.83310900  0.82395600  0.82827400  1
  C  C29  1  0.12497600  0.95588300  0.81084900  1
  C  C30  1  0.18935700  0.99508300  0.78992300  1
  C  C31  1  0.25296200  0.01148500  0.82254500  1
  C  C32  1  0.25082300  0.99251000  0.87755600  1
  C  C33  1  0.29298200  0.01207200  0.10129900  1
  C  C34  1  0.31205500  0.06428800  0.15156400  1
  C  C35  1  0.24770800  0.14987900  0.18799400  1
  C  C36  1  0.16460600  0.17441000  0.17718000  1
  C  C37  1  0.46279200  0.74116100  0.70994100  1
  C  C38  1  0.32355300  0.03795500  0.79614100  1
  C  C39  1  0.59887500  0.97421300  0.83654700  1
  C  C40  1  0.48351200  0.19906300  0.68192300  1
  C  C41  1  0.51416200  0.79919100  0.32357000  1
  C  C42  1  0.39887100  0.02370200  0.16904900  1
  C  C43  1  0.67418800  0.96011400  0.20938300  1
  C  C44  1  0.53490900  0.25704400  0.29555100  1
  C  C45  1  0.53121500  0.38905400  0.33275200  1
  C  C46  1  0.52185600  0.38340600  0.38756500  1
  C  C47  1  0.51185200  0.51255300  0.42191000  1
  C  C48  1  0.50931000  0.64910400  0.40148300  1
  C  C49  1  0.52044300  0.65426800  0.34657000  1
  C  C50  1  0.53268600  0.52332400  0.31252500  1
  C  C51  1  0.50258100  0.50381300  0.47887900  1
  C  C52  1  0.49506200  0.49444100  0.52660800  1
  C  C53  1  0.48833900  0.34914500  0.60400300  1
  C  C54  1  0.47721700  0.34397900  0.65891700  1
  C  C55  1  0.46498500  0.47491500  0.69296300  1
  C  C56  1  0.46646000  0.60917800  0.67273600  1
  C  C57  1  0.47580600  0.61483600  0.61792300  1
  C  C58  1  0.48579600  0.48569800  0.58357700  1
  C  C59  1  0.89698200  0.86506400  0.73817200  1
  C  C60  1  0.08318100  0.46862800  0.19507000  1
  S  S1  1  0.91039800  0.70488700  0.77946900  1
  S  S2  1  0.08716700  0.29435800  0.22574000  1
  N  N1  1  0.90903300  0.95769400  0.95088800  1
  N  N2  1  0.09219500  0.89768400  0.94809800  1
  N  N3  1  0.08877800  0.04041700  0.05460300  1
  N  N4  1  0.90565500  0.10022100  0.05744600  1
  O  O1  1  0.47349300  0.86401200  0.69268900  1
  O  O2  1  0.45540100  0.73239100  0.76206900  1
  O  O3  1  0.39400300  0.02409100  0.82053500  1
  O  O4  1  0.32188900  0.05051500  0.74386700  1
  O  O5  1  0.53008300  0.06709400  0.65696000  1
  O  O6  1  0.58428400  0.89724700  0.79355700  1
  O  O7  1  0.44826600  0.20304400  0.72962100  1
  O  O8  1  0.54011500  0.09961100  0.85760400  1
  O  O9  1  0.54944500  0.79522400  0.27588600  1
  O  O10  1  0.45762300  0.89824500  0.14802500  1
  O  O11  1  0.46759200  0.93115900  0.34853400  1
  O  O12  1  0.41348500  0.10082000  0.21199100  1
  O  O13  1  0.60370600  0.97411600  0.18500800  1
  O  O14  1  0.67587800  0.94745400  0.26165200  1
  O  O15  1  0.52425800  0.13415200  0.31280800  1
  O  O16  1  0.54228900  0.26581500  0.24342200  1
