# generated using pymatgen
data_Fe2H20C43O16
_symmetry_space_group_name_H-M   'P 1'
_cell_length_a   13.61119700
_cell_length_b   14.17427900
_cell_length_c   11.04050400
_cell_angle_alpha   95.98992900
_cell_angle_beta   85.68118000
_cell_angle_gamma   98.32169600
_symmetry_Int_Tables_number   1
_chemical_formula_structural   Fe2H20C43O16
_chemical_formula_sum   'Fe2 H20 C43 O16'
_cell_volume   2092.17212671
_cell_formula_units_Z   1
loop_
 _symmetry_equiv_pos_site_id
 _symmetry_equiv_pos_as_xyz
  1  'x, y, z'
loop_
 _atom_site_type_symbol
 _atom_site_label
 _atom_site_symmetry_multiplicity
 _atom_site_fract_x
 _atom_site_fract_y
 _atom_site_fract_z
 _atom_site_occupancy
  Fe  Fe1  1  0.50000700  0.98903400  0.25786800  1
  Fe  Fe2  1  0.49033300  0.00109200  0.74237100  1
  H  H1  1  0.17726200  0.94047800  0.24374400  1
  H  H2  1  0.00896600  0.93556300  0.18742900  1
  H  H3  1  0.12147600  0.06279400  0.85893600  1
  H  H4  1  0.98659900  0.98144300  0.79875400  1
  H  H5  1  0.88057900  0.01106300  0.16962000  1
  H  H6  1  0.27882000  0.38353100  0.36327100  1
  H  H7  1  0.32417800  0.51026500  0.28480100  1
  H  H8  1  0.35130100  0.66982200  0.24342500  1
  H  H9  1  0.70292400  0.46643400  0.65318500  1
  H  H10  1  0.67659300  0.60640900  0.69046900  1
  H  H11  1  0.67589600  0.30634300  0.70033700  1
  H  H12  1  0.28540400  0.21786800  0.35658300  1
  H  H13  1  0.66677600  0.76965900  0.68960800  1
  H  H14  1  0.82957800  0.95341700  0.44963500  1
  H  H15  1  0.83740500  0.08206200  0.48490000  1
  H  H16  1  0.94557100  0.02986800  0.42128600  1
  H  H17  1  0.95308100  0.07722900  0.64382200  1
  H  H18  1  0.95188300  0.94881600  0.60360400  1
  H  H19  1  0.77842400  0.91589200  0.66725500  1
  H  H20  1  0.76721000  0.04291400  0.67990700  1
  C  C1  1  0.16467200  0.96465900  0.15727100  1
  C  C2  1  0.06869400  0.96491500  0.12657000  1
  C  C3  1  0.05053300  0.00178300  0.02045500  1
  C  C4  1  0.13172000  0.03334000  0.94249700  1
  C  C5  1  0.22795200  0.02543500  0.96848700  1
  C  C6  1  0.24414400  0.99657000  0.08028900  1
  C  C7  1  0.92736600  0.99362700  0.86549900  1
  C  C8  1  0.83284400  0.99501400  0.82897800  1
  C  C9  1  0.75275600  0.99273200  0.91606200  1
  C  C10  1  0.76993400  0.99559500  0.03987000  1
  C  C11  1  0.86731300  0.00318000  0.07379400  1
  C  C12  1  0.94667500  0.00108100  0.98694000  1
  C  C13  1  0.68815200  0.98970900  0.13735600  1
  C  C14  1  0.48773000  0.80539300  0.31339000  1
  C  C15  1  0.34384700  0.00705000  0.12405200  1
  C  C16  1  0.43328600  0.13439300  0.40877800  1
  C  C17  1  0.54580700  0.85225500  0.58648000  1
  C  C18  1  0.65123700  0.97882100  0.87408000  1
  C  C19  1  0.51883700  0.18166400  0.66984700  1
  C  C20  1  0.31023400  0.03689000  0.87339300  1
  C  C21  1  0.34186300  0.26657700  0.40355900  1
  C  C22  1  0.41777900  0.23243000  0.45270200  1
  C  C23  1  0.48635100  0.29596700  0.51836700  1
  C  C24  1  0.54688100  0.26553900  0.59917500  1
  C  C25  1  0.62505500  0.32921800  0.64235100  1
  C  C26  1  0.34187500  0.36288500  0.40181000  1
  C  C27  1  0.42157600  0.42758900  0.44356400  1
  C  C28  1  0.49137600  0.39419500  0.50745100  1
  C  C29  1  0.56560600  0.45900900  0.56105500  1
  C  C30  1  0.37527100  0.55681100  0.34138000  1
  C  C31  1  0.43195200  0.52455300  0.42348200  1
  C  C32  1  0.50187600  0.59037200  0.48363100  1
  C  C33  1  0.39144900  0.65014100  0.31561600  1
  C  C34  1  0.45871500  0.71708000  0.37588100  1
  C  C35  1  0.63736000  0.42328100  0.61922300  1
  C  C36  1  0.56647200  0.55760900  0.55628800  1
  C  C37  1  0.62938000  0.62455700  0.62520300  1
  C  C38  1  0.50715800  0.68874200  0.47122900  1
  C  C39  1  0.56331200  0.75338400  0.55192600  1
  C  C40  1  0.62506000  0.72014500  0.62499500  1
  C  C41  1  0.81490700  0.98895100  0.69497200  1
  C  C42  1  0.90775800  0.00931200  0.61045700  1
  C  C43  1  0.87779900  0.01933400  0.48340300  1
  O  O1  1  0.59927900  0.00994600  0.11926600  1
  O  O2  1  0.48258200  0.79875900  0.19453100  1
  O  O3  1  0.70479700  0.96439300  0.24412100  1
  O  O4  1  0.50570500  0.89097400  0.37133500  1
  O  O5  1  0.36862000  0.94165400  0.18659300  1
  O  O6  1  0.40484200  0.08674400  0.11255700  1
  O  O7  1  0.51975300  0.11711700  0.35565400  1
  O  O8  1  0.35559200  0.06828300  0.39783000  1
  O  O9  1  0.46545900  0.86957700  0.65380400  1
  O  O10  1  0.62025800  0.92131500  0.57761800  1
  O  O11  1  0.62099200  0.04539600  0.81734400  1
  O  O12  1  0.59392500  0.89684800  0.88415600  1
  O  O13  1  0.30132400  0.08147700  0.77729100  1
  O  O14  1  0.49378100  0.09411400  0.61967800  1
  O  O15  1  0.38701300  0.99075400  0.87831500  1
  O  O16  1  0.52892800  0.19476800  0.78788000  1
