# generated using pymatgen
data_Fe2H15C46I(NO8)2
_symmetry_space_group_name_H-M   'P 1'
_cell_length_a   17.50568400
_cell_length_b   14.28385600
_cell_length_c   13.16634500
_cell_angle_alpha   87.07991300
_cell_angle_beta   81.90288100
_cell_angle_gamma   111.95695700
_symmetry_Int_Tables_number   1
_chemical_formula_structural   Fe2H15C46I(NO8)2
_chemical_formula_sum   'Fe2 H15 C46 I1 N2 O16'
_cell_volume   3003.67884505
_cell_formula_units_Z   1
loop_
 _symmetry_equiv_pos_site_id
 _symmetry_equiv_pos_as_xyz
  1  'x, y, z'
loop_
 _atom_site_type_symbol
 _atom_site_label
 _atom_site_symmetry_multiplicity
 _atom_site_fract_x
 _atom_site_fract_y
 _atom_site_fract_z
 _atom_site_occupancy
  Fe  Fe1  1  0.50470600  0.00632600  0.22193200  1
  Fe  Fe2  1  0.50120400  0.00210300  0.77125500  1
  H  H1  1  0.25564800  0.99315600  0.23261700  1
  H  H2  1  0.12114700  0.98565500  0.29416100  1
  H  H3  1  0.22951900  0.96380000  0.79671400  1
  H  H4  1  0.99024500  0.98274100  0.26774200  1
  H  H5  1  0.10210400  0.95910700  0.76538500  1
  H  H6  1  0.89288200  0.01892200  0.23513700  1
  H  H7  1  0.01142300  0.00861400  0.73054100  1
  H  H8  1  0.76678200  0.01672400  0.20256400  1
  H  H9  1  0.88156800  0.00879800  0.70251900  1
  H  H10  1  0.74784800  0.00368200  0.76259300  1
  H  H11  1  0.51680200  0.38237800  0.62823200  1
  H  H12  1  0.50828300  0.63829800  0.68329900  1
  H  H13  1  0.47657500  0.62371500  0.36649000  1
  H  H14  1  0.53453400  0.13504000  0.47219800  1
  H  H15  1  0.45802800  0.86849800  0.52622100  1
  C  C1  1  0.24448200  0.99460900  0.15400200  1
  C  C2  1  0.10936000  0.98921000  0.21593000  1
  C  C3  1  0.30809000  0.00523800  0.07449600  1
  C  C4  1  0.29446300  0.00914000  0.97266300  1
  C  C5  1  0.16920500  0.99368900  0.13465500  1
  C  C6  1  0.15315800  0.99509100  0.03550600  1
  C  C7  1  0.21409000  0.99683400  0.95492400  1
  C  C8  1  0.19116500  0.97975100  0.85924500  1
  C  C9  1  0.03394800  0.98932700  0.19914000  1
  C  C10  1  0.01650900  0.99408700  0.09937300  1
  C  C11  1  0.07583700  0.99308000  0.01763100  1
  C  C12  1  0.05815300  0.98936300  0.91827300  1
  C  C13  1  0.11498500  0.97618100  0.84123600  1
  C  C14  1  0.88212400  0.00639700  0.15776700  1
  C  C15  1  0.94047700  0.99668500  0.08014800  1
  C  C16  1  0.92349100  0.99472100  0.98034200  1
  C  C17  1  0.98287100  0.99360000  0.89880100  1
  C  C18  1  0.96678700  0.00076400  0.79867200  1
  C  C19  1  0.80651400  0.00438800  0.13895600  1
  C  C20  1  0.78565900  0.99290500  0.04173300  1
  C  C21  1  0.84696300  0.99481800  0.96160300  1
  C  C22  1  0.83216300  0.99870500  0.86193000  1
  C  C23  1  0.70682800  0.98556800  0.02245800  1
  C  C24  1  0.69439000  0.99159400  0.92045700  1
  C  C25  1  0.89227900  0.00309500  0.78105500  1
  C  C26  1  0.75795200  0.00056500  0.84158100  1
  C  C27  1  0.63823800  0.97443100  0.10783100  1
  C  C28  1  0.46739500  0.81053100  0.33986000  1
  C  C29  1  0.38897200  0.01729400  0.10329400  1
  C  C30  1  0.49554900  0.17943900  0.30181800  1
  C  C31  1  0.49600100  0.81950400  0.69781900  1
  C  C32  1  0.61466700  0.98415600  0.89117700  1
  C  C33  1  0.52901100  0.19781500  0.65763100  1
  C  C34  1  0.36341900  0.02382600  0.88600000  1
  C  C35  1  0.51115600  0.24475900  0.38415400  1
  C  C36  1  0.49839700  0.33400300  0.38102200  1
  C  C37  1  0.50378900  0.38701700  0.46624500  1
  C  C38  1  0.51707800  0.34621500  0.55813300  1
  C  C39  1  0.52765900  0.25444600  0.56134800  1
  C  C40  1  0.52786900  0.20717400  0.47247600  1
  C  C41  1  0.49392100  0.66810700  0.61455900  1
  C  C42  1  0.48062900  0.75681700  0.61346300  1
  C  C43  1  0.46470300  0.79637300  0.52552100  1
  C  C44  1  0.46590100  0.75097800  0.43559900  1
  C  C45  1  0.47560800  0.65860700  0.43732600  1
  C  C46  1  0.48855500  0.61634000  0.52858200  1
  I  I1  1  0.47178300  0.39168800  0.24586200  1
  N  N1  1  0.49202500  0.47982100  0.45728500  1
  N  N2  1  0.50037500  0.52357400  0.53652700  1
  O  O1  1  0.58662500  0.01978900  0.09646500  1
  O  O2  1  0.46085300  0.77117100  0.25201100  1
  O  O3  1  0.62697800  0.91708500  0.19396900  1
  O  O4  1  0.48507100  0.90827100  0.34415000  1
  O  O5  1  0.39118400  0.95729900  0.18112300  1
  O  O6  1  0.45616900  0.09755700  0.06413700  1
  O  O7  1  0.55323400  0.14535200  0.26735300  1
  O  O8  1  0.41765300  0.12821700  0.29276500  1
  O  O9  1  0.44498800  0.86554800  0.72365800  1
  O  O10  1  0.57139100  0.85432600  0.72067500  1
  O  O11  1  0.61543300  0.04106800  0.80896200  1
  O  O12  1  0.54459000  0.91055800  0.93571700  1
  O  O13  1  0.36725300  0.07115800  0.79631200  1
  O  O14  1  0.52398000  0.10402800  0.65141000  1
  O  O15  1  0.42285200  0.99186700  0.89932300  1
  O  O16  1  0.52442900  0.23372700  0.74708100  1
