# generated using pymatgen
data_Zn2H15C24N2ClO8
_symmetry_space_group_name_H-M   'P 1'
_cell_length_a   9.90097700
_cell_length_b   11.15791700
_cell_length_c   13.64590900
_cell_angle_alpha   89.99280800
_cell_angle_beta   74.61106000
_cell_angle_gamma   89.99744300
_symmetry_Int_Tables_number   1
_chemical_formula_structural   Zn2H15C24N2ClO8
_chemical_formula_sum   'Zn2 H15 C24 N2 Cl1 O8'
_cell_volume   1453.47223802
_cell_formula_units_Z   1
loop_
 _symmetry_equiv_pos_site_id
 _symmetry_equiv_pos_as_xyz
  1  'x, y, z'
loop_
 _atom_site_type_symbol
 _atom_site_label
 _atom_site_symmetry_multiplicity
 _atom_site_fract_x
 _atom_site_fract_y
 _atom_site_fract_z
 _atom_site_occupancy
  Zn  Zn1  1  0.34952700  0.49137700  0.50442400  1
  Zn  Zn2  1  0.65708300  0.48463000  0.50185000  1
  H  H1  1  0.81769700  0.57848900  0.18290600  1
  H  H2  1  0.79003300  0.64587500  0.85490000  1
  H  H3  1  0.86520900  0.62539700  0.00326600  1
  H  H4  1  0.41701500  0.44621000  0.18393700  1
  H  H5  1  0.19391500  0.39429500  0.81664600  1
  H  H6  1  0.28214200  0.39851200  0.09943600  1
  H  H7  1  0.12889800  0.35498700  0.99749200  1
  H  H8  1  0.62443500  0.61424600  0.75974900  1
  H  H9  1  0.70476100  0.10555700  0.49835300  1
  H  H10  1  0.39893800  0.07989500  0.49057600  1
  H  H11  1  0.40215100  0.89376900  0.52882500  1
  H  H12  1  0.17830000  0.38106500  0.38208400  1
  H  H13  1  0.08278800  0.56089100  0.54308800  1
  H  H14  1  0.93895300  0.42602100  0.35490100  1
  H  H15  1  0.88041900  0.48306900  0.57224300  1
  C  C1  1  0.50858100  0.72283900  0.50904500  1
  C  C2  1  0.43050100  0.48220100  0.70269800  1
  C  C3  1  0.49817000  0.25358700  0.49709500  1
  C  C4  1  0.57604600  0.49563700  0.30418900  1
  C  C5  1  0.76665400  0.58387200  0.04145800  1
  C  C6  1  0.61233200  0.50965000  0.19336000  1
  C  C7  1  0.26446100  0.42167900  0.86078100  1
  C  C8  1  0.22789400  0.39801000  0.96287300  1
  C  C9  1  0.31805500  0.42401000  0.02095800  1
  C  C10  1  0.44626100  0.47982600  0.97853200  1
  C  C11  1  0.48054600  0.50865400  0.87503900  1
  C  C12  1  0.54118900  0.50727200  0.03645600  1
  C  C13  1  0.66761400  0.56127800  0.98918600  1
  C  C14  1  0.69493300  0.59737100  0.88983900  1
  C  C15  1  0.60098200  0.57504500  0.83437500  1
  C  C16  1  0.51412200  0.48384100  0.14051100  1
  C  C17  1  0.74026000  0.55670300  0.14286500  1
  C  C18  1  0.39166000  0.47402900  0.81491100  1
  C  C19  1  0.60941500  0.05853100  0.49746900  1
  C  C20  1  0.49530200  0.12208000  0.49514800  1
  C  C21  1  0.61918600  0.92621300  0.49481600  1
  C  C22  1  0.50560600  0.85491300  0.51207800  1
  C  C23  1  0.10515400  0.43715100  0.43599300  1
  C  C24  1  0.96013200  0.44838500  0.42665000  1
  N  N1  1  0.14815500  0.49603200  0.50294400  1
  N  N2  1  0.85856400  0.47809300  0.50290300  1
  Cl  Cl1  1  0.79026000  0.86817600  0.46867700  1
  O  O1  1  0.39105200  0.66869700  0.50934100  1
  O  O2  1  0.62385600  0.66399000  0.50728200  1
  O  O3  1  0.33040000  0.48454800  0.65596400  1
  O  O4  1  0.56294100  0.47856100  0.65281900  1
  O  O5  1  0.38170900  0.31183800  0.50047100  1
  O  O6  1  0.61612500  0.30727100  0.49664300  1
  O  O7  1  0.44269600  0.49489700  0.35318500  1
  O  O8  1  0.67715500  0.49150200  0.35019600  1
