# generated using pymatgen
data_FeH7(C2O)9
_symmetry_space_group_name_H-M   'P 1'
_cell_length_a   13.49258500
_cell_length_b   9.36951500
_cell_length_c   15.73490000
_cell_angle_alpha   93.99400200
_cell_angle_beta   82.97885900
_cell_angle_gamma   111.49003800
_symmetry_Int_Tables_number   1
_chemical_formula_structural   FeH7(C2O)9
_chemical_formula_sum   'Fe2 H14 C36 O18'
_cell_volume   1836.35793459
_cell_formula_units_Z   2
loop_
 _symmetry_equiv_pos_site_id
 _symmetry_equiv_pos_as_xyz
  1  'x, y, z'
loop_
 _atom_site_type_symbol
 _atom_site_label
 _atom_site_symmetry_multiplicity
 _atom_site_fract_x
 _atom_site_fract_y
 _atom_site_fract_z
 _atom_site_occupancy
  Fe  Fe1  1  0.51915300  0.06232000  0.17743200  1
  Fe  Fe2  1  0.49002900  0.94891000  0.83067700  1
  H  H1  1  0.22508000  0.18843200  0.16737500  1
  H  H2  1  0.05515300  0.17102600  0.12280900  1
  H  H3  1  0.10247800  0.89921900  0.90390800  1
  H  H4  1  0.00993900  0.03581100  0.85558300  1
  H  H5  1  0.83620300  0.02082400  0.81712000  1
  H  H6  1  0.50321300  0.51241000  0.20657200  1
  H  H7  1  0.46889200  0.80895700  0.41684000  1
  H  H8  1  0.45939700  0.47148900  0.80495600  1
  H  H9  1  0.48411900  0.17275100  0.59340900  1
  H  H10  1  0.49466700  0.24761900  0.45458400  1
  H  H11  1  0.45684900  0.73360900  0.55721600  1
  H  H12  1  0.92734400  0.95636500  0.28453000  1
  H  H13  1  0.03428200  0.88746400  0.24606000  1
  H  H14  1  0.89953800  0.75217700  0.27187900  1
  C  C1  1  0.19743800  0.12237700  0.11013800  1
  C  C2  1  0.10052100  0.11005300  0.08558900  1
  C  C3  1  0.06399700  0.02472500  0.01320600  1
  C  C4  1  0.12945700  0.96138900  0.96224200  1
  C  C5  1  0.22920300  0.97754400  0.98534700  1
  C  C6  1  0.26062900  0.05374200  0.06194800  1
  C  C7  1  0.94457300  0.02125400  0.90531800  1
  C  C8  1  0.84756400  0.01775300  0.88369800  1
  C  C9  1  0.76460500  0.00680200  0.94658200  1
  C  C10  1  0.78001500  0.00320100  0.03152300  1
  C  C11  1  0.87378800  0.99363700  0.05274000  1
  C  C12  1  0.95812600  0.00795400  0.98974400  1
  C  C13  1  0.69719500  0.01283800  0.09845900  1
  C  C14  1  0.48839600  0.78722100  0.24556600  1
  C  C15  1  0.36394800  0.07846900  0.09083700  1
  C  C16  1  0.49521100  0.28096300  0.29456300  1
  C  C17  1  0.47663400  0.71003000  0.71694800  1
  C  C18  1  0.65699500  0.97772700  0.92273600  1
  C  C19  1  0.47302000  0.19562000  0.76358000  1
  C  C20  1  0.30411700  0.93355400  0.92247200  1
  C  C21  1  0.49381600  0.42848800  0.33058600  1
  C  C22  1  0.49614900  0.53691900  0.27469700  1
  C  C23  1  0.48591200  0.67287600  0.30529400  1
  C  C24  1  0.47591800  0.70201000  0.39242900  1
  C  C25  1  0.47583100  0.59553600  0.44881900  1
  C  C26  1  0.48414500  0.45813200  0.41830100  1
  C  C27  1  0.46777900  0.62804200  0.53585100  1
  C  C28  1  0.47025200  0.52467200  0.59362300  1
  C  C29  1  0.47704900  0.38645600  0.56281200  1
  C  C30  1  0.48508000  0.35405900  0.47596600  1
  C  C31  1  0.46483800  0.55608300  0.68152600  1
  C  C32  1  0.46151800  0.44573500  0.73689300  1
  C  C33  1  0.46932200  0.30835200  0.70542100  1
  C  C34  1  0.47758700  0.27966500  0.61842300  1
  C  C35  1  0.92482100  0.87014800  0.15544300  1
  C  C36  1  0.94797000  0.86628500  0.24520700  1
  O  O1  1  0.63498200  0.08585200  0.08336200  1
  O  O2  1  0.49130500  0.75586100  0.16289100  1
  O  O3  1  0.68905500  0.95819400  0.17455600  1
  O  O4  1  0.49541100  0.92520700  0.27406800  1
  O  O5  1  0.38034900  0.96673200  0.12548800  1
  O  O6  1  0.43100400  0.21967800  0.10039800  1
  O  O7  1  0.56102900  0.27724000  0.22639500  1
  O  O8  1  0.41891200  0.15343400  0.32086500  1
  O  O9  1  0.42900600  0.72748800  0.79292700  1
  O  O10  1  0.55019300  0.83033600  0.68012700  1
  O  O11  1  0.64357400  0.04139200  0.85553800  1
  O  O12  1  0.57402200  0.87435500  0.96368600  1
  O  O13  1  0.28152000  0.90375500  0.84286800  1
  O  O14  1  0.49173900  0.07257500  0.73319300  1
  O  O15  1  0.40036700  0.94869400  0.94015600  1
  O  O16  1  0.45923300  0.21811600  0.84673700  1
  O  O17  1  0.88180800  0.97062300  0.13473200  1
  O  O18  1  0.93934000  0.77691100  0.10220400  1
