# generated using pymatgen
data_CuH13C25NClO4
_symmetry_space_group_name_H-M   'P 1'
_cell_length_a   14.98417000
_cell_length_b   12.96894000
_cell_length_c   11.52705200
_cell_angle_alpha   99.70861000
_cell_angle_beta   94.27736200
_cell_angle_gamma   90.00247700
_symmetry_Int_Tables_number   1
_chemical_formula_structural   CuH13C25NClO4
_chemical_formula_sum   'Cu2 H26 C50 N2 Cl2 O8'
_cell_volume   2201.62530711
_cell_formula_units_Z   2
loop_
 _symmetry_equiv_pos_site_id
 _symmetry_equiv_pos_as_xyz
  1  'x, y, z'
loop_
 _atom_site_type_symbol
 _atom_site_label
 _atom_site_symmetry_multiplicity
 _atom_site_fract_x
 _atom_site_fract_y
 _atom_site_fract_z
 _atom_site_occupancy
  Cu  Cu1  1  0.50426600  0.50706100  0.61836400  1
  Cu  Cu2  1  0.49268700  0.49065800  0.38331200  1
  H  H1  1  0.77005100  0.34345500  0.47444900  1
  H  H2  1  0.22724100  0.65163200  0.53126300  1
  H  H3  1  0.90246600  0.24279900  0.45209900  1
  H  H4  1  0.09515100  0.75189500  0.55457000  1
  H  H5  1  0.06185900  0.23048500  0.44551400  1
  H  H6  1  0.93607700  0.76411400  0.56011600  1
  H  H7  1  0.49951800  0.81410400  0.34764500  1
  H  H8  1  0.50027100  0.18395000  0.65427000  1
  H  H9  1  0.48167000  0.84041800  0.72025000  1
  H  H10  1  0.51716200  0.15731400  0.28122800  1
  H  H11  1  0.51104000  0.96779700  0.26184100  1
  H  H12  1  0.48870500  0.03002700  0.74026300  1
  H  H13  1  0.41841300  0.39846500  0.79181000  1
  H  H14  1  0.57348100  0.60451300  0.21040600  1
  H  H15  1  0.60415600  0.64616700  0.81841900  1
  H  H16  1  0.39090300  0.35359400  0.18352500  1
  H  H17  1  0.37564800  0.33925500  0.96829100  1
  H  H18  1  0.61548800  0.66469100  0.03416800  1
  H  H19  1  0.78856400  0.72376800  0.36028800  1
  H  H20  1  0.69647600  0.98766300  0.59005200  1
  H  H21  1  0.70376100  0.88665600  0.75297500  1
  H  H22  1  0.75713400  0.70558300  0.72094200  1
  H  H23  1  0.22306600  0.28934300  0.26986600  1
  H  H24  1  0.30465700  0.00939300  0.39210100  1
  H  H25  1  0.28225100  0.09200000  0.59594300  1
  H  H26  1  0.22820100  0.27250000  0.63664000  1
  C  C1  1  0.50731300  0.29863700  0.48098200  1
  C  C2  1  0.49008500  0.69908100  0.52067900  1
  C  C3  1  0.32715700  0.48497500  0.49667300  1
  C  C4  1  0.67005600  0.51119600  0.50493800  1
  C  C5  1  0.81839200  0.60124600  0.52269100  1
  C  C6  1  0.17907100  0.39368700  0.47753800  1
  C  C7  1  0.76789600  0.50976000  0.50616300  1
  C  C8  1  0.22942800  0.48544900  0.49577400  1
  C  C9  1  0.80985300  0.41458600  0.48814000  1
  C  C10  1  0.18752100  0.58038000  0.51642500  1
  C  C11  1  0.90163400  0.40979600  0.48610500  1
  C  C12  1  0.09585500  0.58492700  0.51835800  1
  C  C13  1  0.95265300  0.50028000  0.50312800  1
  C  C14  1  0.04491300  0.49436000  0.50065200  1
  C  C15  1  0.91133300  0.59651700  0.52219200  1
  C  C16  1  0.08621900  0.39813700  0.48035200  1
  C  C17  1  0.94228700  0.31395800  0.46606400  1
  C  C18  1  0.05534800  0.68070300  0.53940800  1
  C  C19  1  0.03377200  0.30770400  0.46257900  1
  C  C20  1  0.96391000  0.68689300  0.54173300  1
  C  C21  1  0.48980800  0.81357000  0.53243300  1
  C  C22  1  0.50871400  0.18428900  0.46929000  1
  C  C23  1  0.50874200  0.01513300  0.34817100  1
  C  C24  1  0.49086900  0.98273100  0.65377700  1
  C  C25  1  0.51237500  0.12263600  0.35949800  1
  C  C26  1  0.48664500  0.87523800  0.64222000  1
  C  C27  1  0.50307300  0.13716800  0.56769400  1
  C  C28  1  0.49639400  0.86081700  0.43424000  1
  C  C29  1  0.49855300  0.02950100  0.55586800  1
  C  C30  1  0.50116100  0.96846600  0.44612000  1
  C  C31  1  0.41986000  0.39803100  0.02042400  1
  C  C32  1  0.57191500  0.60515900  0.98184100  1
  C  C33  1  0.42859900  0.40616100  0.14156700  1
  C  C34  1  0.56535600  0.59471700  0.86043400  1
  C  C35  1  0.53050900  0.54547700  0.15649100  1
  C  C36  1  0.46245700  0.45644100  0.84568400  1
  C  C37  1  0.52362900  0.53862200  0.03543000  1
  C  C38  1  0.46843400  0.46427200  0.96691300  1
  C  C39  1  0.77411100  0.70256000  0.53794600  1
  C  C40  1  0.76768900  0.75854400  0.44583800  1
  C  C41  1  0.73970000  0.86077400  0.46445800  1
  C  C42  1  0.71704200  0.90688400  0.57489100  1
  C  C43  1  0.72118700  0.85026500  0.66628500  1
  C  C44  1  0.75009600  0.74827900  0.64801900  1
  C  C45  1  0.22348800  0.29263100  0.45592600  1
  C  C46  1  0.23802100  0.24691700  0.34191400  1
  C  C47  1  0.26812400  0.14555800  0.31923600  1
  C  C48  1  0.28310900  0.08962600  0.41033900  1
  C  C49  1  0.27043800  0.13589800  0.52457400  1
  C  C50  1  0.24080500  0.23741600  0.54746300  1
  N  N1  1  0.51257100  0.51958100  0.79422300  1
  N  N2  1  0.48486800  0.47780900  0.20745000  1
  Cl  Cl1  1  0.73700400  0.93330500  0.34918000  1
  Cl  Cl2  1  0.28438900  0.08657700  0.17418800  1
  O  O1  1  0.50681900  0.35453200  0.58676300  1
  O  O2  1  0.49015600  0.64314600  0.41485700  1
  O  O3  1  0.50372700  0.34064200  0.38504500  1
  O  O4  1  0.49362000  0.65706100  0.61664100  1
  O  O5  1  0.37379400  0.49338100  0.59866600  1
  O  O6  1  0.62331300  0.50422000  0.40316400  1
  O  O7  1  0.36396700  0.48593800  0.39726200  1
  O  O8  1  0.63312700  0.51118300  0.60438100  1
