# generated using pymatgen
data_Zn2H10C27N3ClO8
_symmetry_space_group_name_H-M   'P 1'
_cell_length_a   6.58133900
_cell_length_b   12.35561700
_cell_length_c   14.28874500
_cell_angle_alpha   89.89864600
_cell_angle_beta   89.93118800
_cell_angle_gamma   80.33645400
_symmetry_Int_Tables_number   1
_chemical_formula_structural   Zn2H10C27N3ClO8
_chemical_formula_sum   'Zn2 H10 C27 N3 Cl1 O8'
_cell_volume   1145.42154816
_cell_formula_units_Z   1
loop_
 _symmetry_equiv_pos_site_id
 _symmetry_equiv_pos_as_xyz
  1  'x, y, z'
loop_
 _atom_site_type_symbol
 _atom_site_label
 _atom_site_symmetry_multiplicity
 _atom_site_fract_x
 _atom_site_fract_y
 _atom_site_fract_z
 _atom_site_occupancy
  Zn  Zn1  1  0.50998200  0.50300700  0.10435800  1
  Zn  Zn2  1  0.48665000  0.49698400  0.89581400  1
  H  H1  1  0.46844300  0.15300800  0.05614700  1
  H  H2  1  0.60280900  0.21919200  0.95260900  1
  H  H3  1  0.52609200  0.85498200  0.95713400  1
  H  H4  1  0.35072200  0.97961600  0.04867100  1
  H  H5  1  0.25911100  0.84498200  0.02281200  1
  H  H6  1  0.63431700  0.66224900  0.45018400  1
  H  H7  1  0.84095900  0.49243500  0.56663300  1
  H  H8  1  0.72338200  0.33707000  0.44228200  1
  H  H9  1  0.36320700  0.33730700  0.55002700  1
  H  H10  1  0.15668400  0.50716300  0.43358400  1
  C  C1  1  0.18029300  0.24753400  0.01667100  1
  C  C2  1  0.31049900  0.15119800  0.03683900  1
  C  C3  1  0.24254500  0.05222200  0.03169300  1
  C  C4  1  0.97643500  0.24557200  0.99562800  1
  C  C5  1  0.90889700  0.14568900  0.98886400  1
  C  C6  1  0.04157200  0.04862800  0.00557500  1
  C  C7  1  0.96827300  0.95005400  0.99839100  1
  C  C8  1  0.09645400  0.85042100  0.01098300  1
  C  C9  1  0.02171300  0.75322500  0.00416500  1
  C  C10  1  0.70615300  0.14318100  0.96657800  1
  C  C11  1  0.76370300  0.95100700  0.97674600  1
  C  C12  1  0.68789600  0.85345700  0.97120200  1
  C  C13  1  0.81601700  0.75413600  0.98517500  1
  C  C14  1  0.26941400  0.34737400  0.01076400  1
  C  C15  1  0.82308100  0.34606700  0.99567100  1
  C  C16  1  0.72517100  0.65401000  0.98976100  1
  C  C17  1  0.17224200  0.65254700  0.00433700  1
  C  C18  1  0.37891600  0.58696700  0.52968800  1
  C  C19  1  0.57407200  0.58813000  0.47378500  1
  C  C20  1  0.31207700  0.50290500  0.46476300  1
  C  C21  1  0.50904400  0.50259800  0.41033100  1
  C  C22  1  0.42455800  0.41099000  0.52617000  1
  C  C23  1  0.48941900  0.49631400  0.58983900  1
  C  C24  1  0.62129900  0.41070300  0.46984700  1
  C  C25  1  0.68599000  0.49603000  0.53517600  1
  C  C26  1  0.51864100  0.50485200  0.30805700  1
  C  C27  1  0.47893400  0.49473400  0.69210800  1
  N  N1  1  0.63689100  0.04681900  0.96134900  1
  N  N2  1  0.52308800  0.50590200  0.22711400  1
  N  N3  1  0.47390900  0.49408500  0.77305000  1
  Cl  Cl1  1  0.21515000  0.70517400  0.57357000  1
  O  O1  1  0.31931100  0.37939500  0.92735500  1
  O  O2  1  0.32968200  0.38769500  0.08873200  1
  O  O3  1  0.75187200  0.38401400  0.07722500  1
  O  O4  1  0.73965700  0.38254600  0.91590100  1
  O  O5  1  0.67664600  0.62085900  0.07283700  1
  O  O6  1  0.66643300  0.61271100  0.91165300  1
  O  O7  1  0.24443700  0.61566800  0.92279600  1
  O  O8  1  0.25665000  0.61718300  0.08430700  1
