# generated using pymatgen
data_Fe2H18C45N4O17
_symmetry_space_group_name_H-M   'P 1'
_cell_length_a   14.18785100
_cell_length_b   11.59372300
_cell_length_c   15.66407000
_cell_angle_alpha   90.44408000
_cell_angle_beta   91.51657200
_cell_angle_gamma   109.58986200
_symmetry_Int_Tables_number   1
_chemical_formula_structural   Fe2H18C45N4O17
_chemical_formula_sum   'Fe2 H18 C45 N4 O17'
_cell_volume   2426.21382770
_cell_formula_units_Z   1
loop_
 _symmetry_equiv_pos_site_id
 _symmetry_equiv_pos_as_xyz
  1  'x, y, z'
loop_
 _atom_site_type_symbol
 _atom_site_label
 _atom_site_symmetry_multiplicity
 _atom_site_fract_x
 _atom_site_fract_y
 _atom_site_fract_z
 _atom_site_occupancy
  Fe  Fe1  1  0.50575900  0.00128900  0.24256400  1
  Fe  Fe2  1  0.48719600  0.97097900  0.75296600  1
  H  H1  1  0.89580600  0.11819000  0.28720200  1
  H  H2  1  0.72863800  0.77875900  0.77083800  1
  H  H3  1  0.90430500  0.77878000  0.76422400  1
  H  H4  1  0.09073200  0.85145500  0.72124700  1
  H  H5  1  0.26083500  0.18287600  0.25094400  1
  H  H6  1  0.08542000  0.18377500  0.25808000  1
  H  H7  1  0.67947700  0.00496500  0.01733300  1
  H  H8  1  0.03756200  0.92843000  0.97491300  1
  H  H9  1  0.96787500  0.09216400  0.02901700  1
  H  H10  1  0.50990000  0.41758000  0.71761900  1
  H  H11  1  0.50266500  0.61819600  0.70406700  1
  H  H12  1  0.50363100  0.36105600  0.29160100  1
  H  H13  1  0.49413100  0.56086500  0.27778900  1
  H  H14  1  0.50448300  0.10109500  0.51998300  1
  H  H15  1  0.49601400  0.87579000  0.47497600  1
  H  H16  1  0.38641500  0.19819200  0.99277500  1
  H  H17  1  0.36401000  0.13629200  0.88998900  1
  H  H18  1  0.37502000  0.95879300  0.99059200  1
  C  C1  1  0.70879300  0.88479300  0.88144500  1
  C  C2  1  0.75742600  0.82790900  0.83010400  1
  C  C3  1  0.85343100  0.85843200  0.86336300  1
  C  C4  1  0.77615800  0.94444900  0.94620500  1
  C  C5  1  0.92540200  0.83080900  0.82363400  1
  C  C6  1  0.03337700  0.88214700  0.84460400  1
  C  C7  1  0.10464000  0.88688100  0.78611800  1
  C  C8  1  0.19648800  0.94168900  0.82632900  1
  C  C9  1  0.17770600  0.97257200  0.90999600  1
  C  C10  1  0.25227800  0.03994800  0.97947500  1
  C  C11  1  0.22481200  0.06819800  0.05668800  1
  C  C12  1  0.28863400  0.11219800  0.12733200  1
  C  C13  1  0.23557600  0.14986900  0.18675600  1
  C  C14  1  0.14141800  0.12630600  0.15158800  1
  C  C15  1  0.06815300  0.14706800  0.19349400  1
  C  C16  1  0.96321700  0.11236300  0.16385900  1
  C  C17  1  0.88734500  0.10150000  0.21896500  1
  C  C18  1  0.79940200  0.06288300  0.17108900  1
  C  C19  1  0.82525400  0.05102300  0.08699900  1
  C  C20  1  0.75498500  0.00322600  0.01322100  1
  C  C21  1  0.70248700  0.03877400  0.21118600  1
  C  C22  1  0.50157700  0.78254400  0.32516500  1
  C  C23  1  0.38356900  0.09530900  0.15006200  1
  C  C24  1  0.49000200  0.15879200  0.36466000  1
  C  C25  1  0.50863100  0.19567600  0.51630400  1
  C  C26  1  0.50530000  0.26061600  0.58936600  1
  C  C27  1  0.50395000  0.37983200  0.58225400  1
  C  C28  1  0.50509100  0.45046400  0.65400700  1
  C  C29  1  0.50224100  0.56717300  0.64611100  1
  C  C30  1  0.50840900  0.24434100  0.43696300  1
  C  C31  1  0.50566200  0.36212700  0.42907100  1
  C  C32  1  0.50358500  0.43009200  0.50173200  1
  C  C33  1  0.49940200  0.54771100  0.49365300  1
  C  C34  1  0.49799700  0.61587000  0.56635700  1
  C  C35  1  0.49560400  0.73365500  0.55845000  1
  C  C36  1  0.50230500  0.41136100  0.34938600  1
  C  C37  1  0.49824700  0.52759700  0.34140800  1
  C  C38  1  0.49816700  0.59772700  0.41312000  1
  C  C39  1  0.49497400  0.71621100  0.40592100  1
  C  C40  1  0.49325600  0.78172800  0.47906500  1
  C  C41  1  0.61090400  0.89238500  0.85779600  1
  C  C42  1  0.51205200  0.81810600  0.63112000  1
  C  C43  1  0.28869200  0.95044800  0.78155700  1
  C  C44  1  0.49569000  0.19296200  0.66971000  1
  C  C45  1  0.35882000  0.10935700  0.95756500  1
  N  N1  1  0.86496200  0.92808100  0.93481400  1
  N  N2  1  0.07707400  0.93110800  0.91981000  1
  N  N3  1  0.13414200  0.07628800  0.07268000  1
  N  N4  1  0.92598200  0.08396600  0.08348700  1
  O  O1  1  0.61846900  0.01670400  0.16653300  1
  O  O2  1  0.57383500  0.78919900  0.27287800  1
  O  O3  1  0.70113900  0.04311100  0.29481200  1
  O  O4  1  0.45211600  0.86023000  0.31881900  1
  O  O5  1  0.38509800  0.98501800  0.16741000  1
  O  O6  1  0.45974700  0.19131500  0.17419700  1
  O  O7  1  0.56346000  0.15009500  0.31841900  1
  O  O8  1  0.40117000  0.07494500  0.35550400  1
  O  O9  1  0.60562900  0.99824100  0.83327200  1
  O  O10  1  0.53965700  0.79155600  0.83309000  1
  O  O11  1  0.43817500  0.81821800  0.67993900  1
  O  O12  1  0.59757900  0.90840800  0.63832100  1
  O  O13  1  0.42667200  0.19305600  0.72371500  1
  O  O14  1  0.36970100  0.95134100  0.82406300  1
  O  O15  1  0.53943100  0.10946200  0.67437500  1
  O  O16  1  0.28685700  0.94683700  0.69776100  1
  O  O17  1  0.42112500  0.04148300  0.97720100  1
