# generated using pymatgen
data_CuH12(C5O2)2
_symmetry_space_group_name_H-M   'P 1'
_cell_length_a   22.14142500
_cell_length_b   22.10245700
_cell_length_c   29.51414900
_cell_angle_alpha   90.00357100
_cell_angle_beta   89.99722600
_cell_angle_gamma   119.90459000
_symmetry_Int_Tables_number   1
_chemical_formula_structural   CuH12(C5O2)2
_chemical_formula_sum   'Cu16 H192 C160 O64'
_cell_volume   12520.55998959
_cell_formula_units_Z   16
loop_
 _symmetry_equiv_pos_site_id
 _symmetry_equiv_pos_as_xyz
  1  'x, y, z'
loop_
 _atom_site_type_symbol
 _atom_site_label
 _atom_site_symmetry_multiplicity
 _atom_site_fract_x
 _atom_site_fract_y
 _atom_site_fract_z
 _atom_site_occupancy
  Cu  Cu1  1  0.01890400  0.45758200  0.47440200  1
  Cu  Cu2  1  0.97366100  0.51419800  0.78032400  1
  Cu  Cu3  1  0.57107600  0.80899200  0.78355100  1
  Cu  Cu4  1  0.51074400  0.71044300  0.83928000  1
  Cu  Cu5  1  0.03100800  0.94375500  0.97710900  1
  Cu  Cu6  1  0.97367800  0.84350500  0.03200100  1
  Cu  Cu7  1  0.57139600  0.14896800  0.03026100  1
  Cu  Cu8  1  0.51057300  0.18748900  0.97511800  1
  Cu  Cu9  1  0.96147200  0.49914800  0.53018600  1
  Cu  Cu10  1  0.56015000  0.80287600  0.53233300  1
  Cu  Cu11  1  0.50470700  0.70272700  0.47793700  1
  Cu  Cu12  1  0.02674400  0.93838900  0.33775400  1
  Cu  Cu13  1  0.96369100  0.83918700  0.28287400  1
  Cu  Cu14  1  0.55784500  0.13422200  0.28072400  1
  Cu  Cu15  1  0.49642400  0.17342200  0.33518800  1
  Cu  Cu16  1  0.02944400  0.46771500  0.83451800  1
  H  H1  1  0.20938300  0.61483400  0.46687300  1
  H  H2  1  0.31877700  0.66789900  0.61346700  1
  H  H3  1  0.99044100  0.89050600  0.12726100  1
  H  H4  1  0.89481100  0.89686400  0.18301700  1
  H  H5  1  0.88252000  0.92509900  0.11454800  1
  H  H6  1  0.00595500  0.09201700  0.19321600  1
  H  H7  1  0.08708500  0.09256400  0.20108400  1
  H  H8  1  0.09987200  0.08204500  0.12378200  1
  H  H9  1  0.03163800  0.10314200  0.11598200  1
  H  H10  1  0.88972600  0.97330800  0.19860700  1
  H  H11  1  0.91487800  0.01519600  0.12684000  1
  H  H12  1  0.43829000  0.16637500  0.18535900  1
  H  H13  1  0.20015100  0.70569700  0.57102400  1
  H  H14  1  0.51233800  0.15387200  0.19196800  1
  H  H15  1  0.54407200  0.17240700  0.12465100  1
  H  H16  1  0.45836100  0.16027800  0.11299600  1
  H  H17  1  0.44548000  0.27732900  0.19834800  1
  H  H18  1  0.43602700  0.25623800  0.12046900  1
  H  H19  1  0.64169700  0.34601600  0.20089300  1
  H  H20  1  0.63311800  0.26432100  0.18190800  1
  H  H21  1  0.65353400  0.31524700  0.11590600  1
  H  H22  1  0.62012100  0.37135700  0.13005900  1
  H  H23  1  0.52902600  0.35573100  0.19271700  1
  H  H24  1  0.31908100  0.76616400  0.57119900  1
  H  H25  1  0.50541400  0.34544000  0.11488800  1
  H  H26  1  0.32052800  0.67620500  0.84497300  1
  H  H27  1  0.32461600  0.60550200  0.81342700  1
  H  H28  1  0.22179100  0.55105400  0.80944400  1
  H  H29  1  0.21755500  0.61952400  0.84356800  1
  H  H30  1  0.33029900  0.77804800  0.80318800  1
  H  H31  1  0.21174500  0.71542200  0.80434600  1
  H  H32  1  0.33512900  0.68316200  0.69917700  1
  H  H33  1  0.33271700  0.61127200  0.72967500  1
  H  H34  1  0.21433600  0.55310200  0.72552100  1
  H  H35  1  0.00788000  0.69655300  0.48610700  1
  H  H36  1  0.21622900  0.62663900  0.69761400  1
  H  H37  1  0.33002400  0.77838000  0.74205100  1
  H  H38  1  0.21106000  0.71936600  0.74330700  1
  H  H39  1  0.02409700  0.69544400  0.98638000  1
  H  H40  1  0.10898900  0.76248900  0.96770300  1
  H  H41  1  0.12019900  0.68548500  0.92225800  1
  H  H42  1  0.04407000  0.61784500  0.95106000  1
  H  H43  1  0.91565900  0.68311500  0.94571600  1
  H  H44  1  0.92795400  0.59197800  0.92458300  1
  H  H45  1  0.04422700  0.80732900  0.86257300  1
  H  H46  1  0.92166700  0.63348400  0.46539000  1
  H  H47  1  0.12014400  0.81583700  0.89172300  1
  H  H48  1  0.10960000  0.72804700  0.84625900  1
  H  H49  1  0.02487000  0.71034400  0.82727100  1
  H  H50  1  0.92783300  0.71702200  0.88883600  1
  H  H51  1  0.91585600  0.61379700  0.86774000  1
  H  H52  1  0.79380700  0.31448800  0.98399100  1
  H  H53  1  0.77199300  0.38264400  0.97734200  1
  H  H54  1  0.86879600  0.44052900  0.93419000  1
  H  H55  1  0.88232000  0.36655700  0.93484700  1
  H  H56  1  0.75348000  0.22083200  0.92587600  1
  H  H57  1  0.91578700  0.71376400  0.42369700  1
  H  H58  1  0.83326100  0.27766700  0.87159300  1
  H  H59  1  0.65848400  0.30536600  0.87650700  1
  H  H60  1  0.68727200  0.37356300  0.91878300  1
  H  H61  1  0.78428800  0.44244300  0.87950500  1
  H  H62  1  0.74923300  0.37938500  0.83391400  1
  H  H63  1  0.68762900  0.20966400  0.88535800  1
  H  H64  1  0.76925100  0.27883200  0.83437700  1
  H  H65  1  0.68758600  0.70073000  0.89404000  1
  H  H66  1  0.65962100  0.74019800  0.93684500  1
  H  H67  1  0.75064900  0.75623700  0.97872500  1
  H  H68  1  0.99497400  0.77820100  0.45129100  1
  H  H69  1  0.78469100  0.72782200  0.93273000  1
  H  H70  1  0.77152600  0.77631000  0.83509100  1
  H  H71  1  0.86866400  0.81379500  0.87771300  1
  H  H72  1  0.75471500  0.91986500  0.88782300  1
  H  H73  1  0.68949600  0.86528500  0.92869100  1
  H  H74  1  0.77198300  0.87729400  0.97883400  1
  H  H75  1  0.83556800  0.94204500  0.94123400  1
  H  H76  1  0.79396000  0.86651800  0.82904600  1
  H  H77  1  0.88324300  0.90167500  0.87751100  1
  H  H78  1  0.50484300  0.03942800  0.86076200  1
  H  H79  1  0.11460500  0.70919300  0.44608300  1
  H  H80  1  0.42848100  0.97326200  0.89017300  1
  H  H81  1  0.43861100  0.89398300  0.84661000  1
  H  H82  1  0.52330500  0.95995000  0.82688400  1
  H  H83  1  0.62087500  0.06623800  0.88816500  1
  H  H84  1  0.63218900  0.97430400  0.86782200  1
  H  H85  1  0.52348500  0.95101800  0.98648800  1
  H  H86  1  0.43882300  0.93261300  0.96685700  1
  H  H87  1  0.42835200  0.84308800  0.92332000  1
  H  H88  1  0.50471000  0.85306000  0.95265800  1
  H  H89  1  0.63245500  0.04526700  0.94537600  1
  H  H90  1  0.10886700  0.80291600  0.41998600  1
  H  H91  1  0.62078400  0.94188500  0.92506200  1
  H  H92  1  0.21391100  0.97786600  0.11452100  1
  H  H93  1  0.21285900  0.04699800  0.08276200  1
  H  H94  1  0.33135500  0.10708000  0.08173000  1
  H  H95  1  0.33280800  0.03847900  0.11391300  1
  H  H96  1  0.21389100  0.87851200  0.07402300  1
  H  H97  1  0.33289400  0.93872900  0.07346600  1
  H  H98  1  0.21931600  0.97462800  0.96864400  1
  H  H99  1  0.22040000  0.04902900  0.99888500  1
  H  H100  1  0.32199200  0.10024300  0.99817000  1
  H  H101  1  0.98765200  0.58745300  0.36120300  1
  H  H102  1  0.32321700  0.02693900  0.96802100  1
  H  H103  1  0.21332000  0.87649500  0.01290000  1
  H  H104  1  0.33201200  0.93631000  0.01234400  1
  H  H105  1  0.20979200  0.54197100  0.49779100  1
  H  H106  1  0.91145000  0.57724600  0.39069600  1
  H  H107  1  0.91912600  0.66409800  0.34880200  1
  H  H108  1  0.00297800  0.68270900  0.32603100  1
  H  H109  1  0.10478300  0.67375400  0.38965900  1
  H  H110  1  0.11386200  0.77459900  0.36338200  1
  H  H111  1  0.76097800  0.26388400  0.47652200  1
  H  H112  1  0.82307000  0.26355500  0.43712400  1
  H  H113  1  0.73922200  0.20375300  0.38572400  1
  H  H114  1  0.67586100  0.19510400  0.42751600  1
  H  H115  1  0.73702900  0.36194000  0.47775500  1
  H  H116  1  0.31309200  0.59382200  0.49881900  1
  H  H117  1  0.64556400  0.28965200  0.43515900  1
  H  H118  1  0.85334100  0.42552900  0.37608900  1
  H  H119  1  0.87009500  0.35365300  0.37490200  1
  H  H120  1  0.77995100  0.29732900  0.32748800  1
  H  H121  1  0.75705100  0.36482800  0.33304900  1
  H  H122  1  0.77084300  0.42625300  0.43287400  1
  H  H123  1  0.67475100  0.35776300  0.39282500  1
  H  H124  1  0.09241800  0.47132200  0.68324900  1
  H  H125  1  0.02532900  0.49355500  0.69119900  1
  H  H126  1  0.98859600  0.47404900  0.62375600  1
  H  H127  1  0.31383900  0.66694800  0.46744500  1
  H  H128  1  0.07219600  0.48152600  0.61123700  1
  H  H129  1  0.07512100  0.35780400  0.69814000  1
  H  H130  1  0.08766600  0.38051700  0.62021300  1
  H  H131  1  0.88200400  0.30416100  0.69942300  1
  H  H132  1  0.89774100  0.38790900  0.67897900  1
  H  H133  1  0.87337500  0.33277000  0.61413600  1
  H  H134  1  0.90302200  0.27425400  0.62965200  1
  H  H135  1  0.98873000  0.28372400  0.69173800  1
  H  H136  1  0.01489400  0.29318800  0.61404900  1
  H  H137  1  0.77793300  0.72782200  0.37999900  1
  H  H138  1  0.20071800  0.70655100  0.50989800  1
  H  H139  1  0.74331100  0.76090500  0.33722100  1
  H  H140  1  0.65289700  0.73721000  0.38151900  1
  H  H141  1  0.68602800  0.70146500  0.42356900  1
  H  H142  1  0.85840600  0.80696100  0.43887200  1
  H  H143  1  0.76563900  0.77863400  0.48399200  1
  H  H144  1  0.83299600  0.94351700  0.38085000  1
  H  H145  1  0.77298300  0.88474100  0.33907000  1
  H  H146  1  0.68382400  0.86219900  0.38617600  1
  H  H147  1  0.74448100  0.91850600  0.42864300  1
  H  H148  1  0.88049400  0.89722600  0.44041400  1
  H  H149  1  0.31932000  0.76614000  0.51006900  1
  H  H150  1  0.78975200  0.86961200  0.48641800  1
  H  H151  1  0.52517100  0.04508300  0.44957900  1
  H  H152  1  0.60436100  0.05905400  0.42231500  1
  H  H153  1  0.59869000  0.97441700  0.46540000  1
  H  H154  1  0.51219600  0.95137500  0.48556100  1
  H  H155  1  0.41115400  0.95452300  0.41866300  1
  H  H156  1  0.40609800  0.85597200  0.44608500  1
  H  H157  1  0.51761900  0.93866600  0.32575800  1
  H  H158  1  0.60130200  0.00475700  0.34815700  1
  H  H159  1  0.60967700  0.92726800  0.39137700  1
  H  H160  1  0.19987700  0.60686400  0.61274500  1
  H  H161  1  0.53392800  0.86012300  0.36217000  1
  H  H162  1  0.40665200  0.91988900  0.36252000  1
  H  H163  1  0.41631200  0.82925600  0.39009200  1
  H  H164  1  0.54681700  0.75702200  0.68834500  1
  H  H165  1  0.46077000  0.68431600  0.70005000  1
  H  H166  1  0.44204200  0.65534700  0.62794700  1
  H  H167  1  0.51589400  0.74178300  0.62076500  1
  H  H168  1  0.65546400  0.72361300  0.70023200  1
  H  H169  1  0.63689500  0.75222800  0.63297900  1
  H  H170  1  0.50717700  0.54537600  0.70190900  1
  H  H171  1  0.20163100  0.53761800  0.58154000  1
  H  H172  1  0.43809300  0.56530300  0.69437100  1
  H  H173  1  0.44954700  0.55147500  0.61700700  1
  H  H174  1  0.53293000  0.55670600  0.62437100  1
  H  H175  1  0.62252200  0.63373900  0.68737200  1
  H  H176  1  0.64568800  0.67845200  0.61593800  1
  H  H177  1  0.20630500  0.95930900  0.19545500  1
  H  H178  1  0.19405600  0.87774300  0.21736400  1
  H  H179  1  0.31300200  0.92455400  0.23226300  1
  H  H180  1  0.32499800  0.99378700  0.19439900  1
  H  H181  1  0.19393600  0.04397500  0.24942700  1
  H  H182  1  0.32008600  0.59798500  0.58280000  1
  H  H183  1  0.30367100  0.08174000  0.22293300  1
  H  H184  1  0.19828800  0.91891800  0.33842600  1
  H  H185  1  0.21667700  0.87248600  0.29589500  1
  H  H186  1  0.32783100  0.94837900  0.31788600  1
  H  H187  1  0.30391700  0.01002000  0.33908400  1
  H  H188  1  0.22021800  0.04383600  0.30724300  1
  H  H189  1  0.32462500  0.11417100  0.27968500  1
  H  H190  1  0.00860100  0.89958400  0.19509000  1
  H  H191  1  0.08825800  0.98338700  0.19252200  1
  H  H192  1  0.07699000  0.96412600  0.11916800  1
  C  C1  1  0.97692700  0.38636600  0.56158700  1
  C  C2  1  0.00698100  0.79926500  0.36048300  1
  C  C3  1  0.03523900  0.06495900  0.18454800  1
  C  C4  1  0.99446700  0.98900200  0.20131800  1
  C  C5  1  0.99699800  0.99186000  0.11380100  1
  C  C6  1  0.92499300  0.97127200  0.13165100  1
  C  C7  1  0.04487800  0.06570600  0.13177600  1
  C  C8  1  0.49491100  0.18929200  0.17896700  1
  C  C9  1  0.50880300  0.19383200  0.12986600  1
  C  C10  1  0.49795100  0.30000800  0.18283700  1
  C  C11  1  0.60905300  0.29791300  0.18103300  1
  C  C12  1  0.53484000  0.26076100  0.19948300  1
  C  C13  1  0.88014000  0.85763700  0.35323800  1
  C  C14  1  0.53875700  0.26769700  0.11204200  1
  C  C15  1  0.49076500  0.29384100  0.12976400  1
  C  C16  1  0.60957000  0.31686400  0.13248400  1
  C  C17  1  0.30929200  0.64644800  0.81266000  1
  C  C18  1  0.23360700  0.60624300  0.81099400  1
  C  C19  1  0.31140200  0.74464800  0.77254600  1
  C  C20  1  0.31415000  0.64951300  0.72956600  1
  C  C21  1  0.33988400  0.69444000  0.77219300  1
  C  C22  1  0.20452500  0.62521500  0.77045700  1
  C  C23  1  0.23093800  0.70344900  0.77279500  1
  C  C24  1  0.98363700  0.96822600  0.25077100  1
  C  C25  1  0.23375100  0.60994400  0.72790400  1
  C  C26  1  0.05690700  0.72104600  0.95623400  1
  C  C27  1  0.06453200  0.66586600  0.93025000  1
  C  C28  1  0.94929400  0.69729700  0.91525000  1
  C  C29  1  0.06457400  0.77977700  0.88351900  1
  C  C30  1  0.02310900  0.75306700  0.92657400  1
  C  C31  1  0.02344700  0.65134100  0.88702900  1
  C  C32  1  0.94946400  0.63320800  0.89821300  1
  C  C33  1  0.05737500  0.71727200  0.85753600  1
  C  C34  1  0.78210200  0.34475400  0.95905300  1
  C  C35  1  0.51302900  0.05190500  0.35864000  1
  C  C36  1  0.84401300  0.38368900  0.92756200  1
  C  C37  1  0.73521800  0.24862900  0.90337500  1
  C  C38  1  0.70210400  0.34011700  0.89918700  1
  C  C39  1  0.71883000  0.29618500  0.93136200  1
  C  C40  1  0.82122700  0.36887000  0.87809500  1
  C  C41  1  0.79161900  0.29144700  0.86900100  1
  C  C42  1  0.76486700  0.38718000  0.87008600  1
  C  C43  1  0.70286400  0.74892700  0.91382800  1
  C  C44  1  0.76582400  0.76402000  0.94247000  1
  C  C45  1  0.78227400  0.82423900  0.85371600  1
  C  C46  1  0.64268300  0.23621600  0.35088500  1
  C  C47  1  0.73667600  0.87371400  0.91019300  1
  C  C48  1  0.71951200  0.80983400  0.88193000  1
  C  C49  1  0.82248200  0.83845100  0.93436700  1
  C  C50  1  0.84455700  0.84638200  0.88476500  1
  C  C51  1  0.79364000  0.88681300  0.94401500  1
  C  C52  1  0.48405100  0.99212900  0.88231400  1
  C  C53  1  0.49095000  0.93574600  0.85742000  1
  C  C54  1  0.59907100  0.02548400  0.91482300  1
  C  C55  1  0.49109000  0.94298800  0.95598700  1
  C  C56  1  0.52515900  0.00790800  0.92563100  1
  C  C57  1  0.54252100  0.24645500  0.24855900  1
  C  C58  1  0.52496900  0.90476900  0.88775100  1
  C  C59  1  0.59895900  0.96090100  0.89844300  1
  C  C60  1  0.48396600  0.87964100  0.93111200  1
  C  C61  1  0.23245400  0.00958500  0.08322100  1
  C  C62  1  0.31284400  0.05032300  0.08268700  1
  C  C63  1  0.23257600  0.91104600  0.04300800  1
  C  C64  1  0.23369100  0.00662800  0.00013400  1
  C  C65  1  0.20463300  0.96172700  0.04205300  1
  C  C66  1  0.34008800  0.03011200  0.04122900  1
  C  C67  1  0.31312500  0.95171500  0.04259400  1
  C  C68  1  0.40391800  0.06529000  0.27689200  1
  C  C69  1  0.30940900  0.04479000  0.99964900  1
  C  C70  1  0.01894800  0.59233600  0.85991300  1
  C  C71  1  0.12692300  0.57790400  0.77846300  1
  C  C72  1  0.98402800  0.39908100  0.74678900  1
  C  C73  1  0.11527200  0.56727700  0.53061300  1
  C  C74  1  0.88401300  0.41072700  0.84861100  1
  C  C75  1  0.41717700  0.72655900  0.78238000  1
  C  C76  1  0.55141100  0.67925600  0.75215100  1
  C  C77  1  0.65692700  0.79115200  0.85267600  1
  C  C78  1  0.52888500  0.84880000  0.86199700  1
  C  C79  1  0.88536400  0.85838100  0.96352300  1
  C  C80  1  0.01856500  0.80793800  0.95320900  1
  C  C81  1  0.12701000  0.92998200  0.03324500  1
  C  C82  1  0.98830500  0.97052900  0.06453600  1
  C  C83  1  0.55074600  0.25803300  0.06273200  1
  C  C84  1  0.00412300  0.58013100  0.45174100  1
  C  C85  1  0.65667500  0.25301400  0.96112800  1
  C  C86  1  0.52932600  0.06779500  0.95152400  1
  C  C87  1  0.41736700  0.07662300  0.03147500  1
  C  C88  1  0.22326700  0.59768100  0.49874900  1
  C  C89  1  0.29922300  0.63580900  0.49929300  1
  C  C90  1  0.21976100  0.69191200  0.54041200  1
  C  C91  1  0.22000700  0.59436200  0.58186000  1
  C  C92  1  0.19274900  0.61349200  0.53994000  1
  C  C93  1  0.32824600  0.68197400  0.54071700  1
  C  C94  1  0.30025100  0.73259800  0.54063600  1
  C  C95  1  0.87263400  0.39666300  0.46145300  1
  C  C96  1  0.30041000  0.63533000  0.58246700  1
  C  C97  1  0.97553200  0.67296300  0.45542000  1
  C  C98  1  0.97112400  0.73007700  0.43042500  1
  C  C99  1  0.08271100  0.69474800  0.41477500  1
  C  C100  1  0.96687500  0.61414500  0.38260800  1
  C  C101  1  0.00807600  0.63980700  0.42564600  1
  C  C102  1  0.00950000  0.74264800  0.38641800  1
  C  C103  1  0.08375800  0.75924900  0.39545500  1
  C  C104  1  0.97281600  0.67624800  0.35747900  1
  C  C105  1  0.78108000  0.27655600  0.44135400  1
  C  C106  1  0.65040200  0.78921300  0.46428500  1
  C  C107  1  0.72265700  0.23289800  0.40831700  1
  C  C108  1  0.75223200  0.37087200  0.44151900  1
  C  C109  1  0.83053800  0.36890400  0.38278400  1
  C  C110  1  0.80928400  0.35382800  0.43246900  1
  C  C111  1  0.70542200  0.27979800  0.38027200  1
  C  C112  1  0.68927500  0.32411000  0.41245000  1
  C  C113  1  0.76810800  0.32807100  0.35195100  1
  C  C114  1  0.03658000  0.45386700  0.67755500  1
  C  C115  1  0.02170100  0.45004000  0.62858000  1
  C  C116  1  0.02351300  0.33904400  0.68208000  1
  C  C117  1  0.54785100  0.67793700  0.56617400  1
  C  C118  1  0.91770200  0.35077300  0.67920700  1
  C  C119  1  0.99146500  0.38316200  0.69813400  1
  C  C120  1  0.98795800  0.37570800  0.61084400  1
  C  C121  1  0.03213900  0.34532000  0.62901900  1
  C  C122  1  0.91623100  0.32965700  0.63115000  1
  C  C123  1  0.75971900  0.76546500  0.37314600  1
  C  C124  1  0.69801800  0.74859200  0.40348700  1
  C  C125  1  0.83862600  0.84344400  0.43243500  1
  C  C126  1  0.79073100  0.88922700  0.37467300  1
  C  C127  1  0.81759800  0.83881100  0.38278300  1
  C  C128  1  0.40604700  0.71406500  0.53222600  1
  C  C129  1  0.71377600  0.80949400  0.43513800  1
  C  C130  1  0.77689700  0.82510100  0.46344300  1
  C  C131  1  0.73028200  0.87286600  0.40644100  1
  C  C132  1  0.54904600  0.02028900  0.42922900  1
  C  C133  1  0.54480800  0.95953000  0.45509000  1
  C  C134  1  0.43660400  0.93564200  0.39461800  1
  C  C135  1  0.54772800  0.96326300  0.35706900  1
  C  C136  1  0.51070100  0.99338200  0.38532000  1
  C  C137  1  0.51279000  0.89317800  0.42598100  1
  C  C138  1  0.43807300  0.87286100  0.41479900  1
  C  C139  1  0.51716000  0.83838200  0.45298100  1
  C  C140  1  0.55418600  0.90803700  0.38306600  1
  C  C141  1  0.51143500  0.70024400  0.68374400  1
  C  C142  1  0.49850700  0.68938600  0.63460100  1
  C  C143  1  0.61199800  0.67757500  0.68370500  1
  C  C144  1  0.49303500  0.58201700  0.68591100  1
  C  C145  1  0.54068900  0.65651900  0.70307700  1
  C  C146  1  0.53893500  0.65726600  0.61554700  1
  C  C147  1  0.61268800  0.69463200  0.63473600  1
  C  C148  1  0.50160300  0.58162300  0.63301500  1
  C  C149  1  0.21940300  0.93470700  0.22362000  1
  C  C150  1  0.11789400  0.91986900  0.28006300  1
  C  C151  1  0.30046000  0.96667600  0.22653600  1
  C  C152  1  0.22322300  0.02771900  0.27211100  1
  C  C153  1  0.22348500  0.92416400  0.30513500  1
  C  C154  1  0.19363900  0.94910400  0.26837500  1
  C  C155  1  0.32781700  0.01809800  0.26632200  1
  C  C156  1  0.29828400  0.06601400  0.25906000  1
  C  C157  1  0.29912900  0.97624200  0.30993700  1
  C  C158  1  0.03236000  0.95381400  0.18309900  1
  C  C159  1  0.02476200  0.94702700  0.13350800  1
  C  C160  1  0.92155400  0.95460500  0.18093500  1
  O  O1  1  0.02350000  0.40342400  0.52897500  1
  O  O2  1  0.59651500  0.72747000  0.45750400  1
  O  O3  1  0.58873700  0.74477100  0.56206500  1
  O  O4  1  0.50128300  0.64665400  0.53376800  1
  O  O5  1  0.45975500  0.75913100  0.55712100  1
  O  O6  1  0.41921600  0.69108200  0.49530700  1
  O  O7  1  0.53758500  0.85611700  0.49441800  1
  O  O8  1  0.50618700  0.77731100  0.43715600  1
  O  O9  1  0.10993700  0.94528400  0.31781200  1
  O  O10  1  0.06170900  0.87724800  0.25633200  1
  O  O11  1  0.02250400  0.86135400  0.37706400  1
  O  O12  1  0.93536300  0.41180200  0.55838000  1
  O  O13  1  0.98371600  0.78251000  0.31944500  1
  O  O14  1  0.93632300  0.91780300  0.36019700  1
  O  O15  1  0.88172500  0.81391700  0.32323200  1
  O  O16  1  0.03159400  0.99654500  0.28273600  1
  O  O17  1  0.93924000  0.90209000  0.25490300  1
  O  O18  1  0.53646100  0.05759800  0.31771700  1
  O  O19  1  0.49825400  0.09932500  0.37469900  1
  O  O20  1  0.64038500  0.19045500  0.32096300  1
  O  O21  1  0.58702200  0.24108600  0.35788000  1
  O  O22  1  0.58416800  0.22121400  0.25213000  1
  O  O23  1  0.10329100  0.53210900  0.49331100  1
  O  O24  1  0.49469300  0.22876400  0.28042700  1
  O  O25  1  0.45978000  0.07591300  0.25381200  1
  O  O26  1  0.41262500  0.09933000  0.31442500  1
  O  O27  1  0.03116400  0.54272900  0.87510300  1
  O  O28  1  0.99581200  0.58886900  0.81913600  1
  O  O29  1  0.11431000  0.53929300  0.81417500  1
  O  O30  1  0.07308700  0.57199700  0.75504900  1
  O  O31  1  0.02930300  0.41201500  0.77967700  1
  O  O32  1  0.94628900  0.42893300  0.74933500  1
  O  O33  1  0.93762300  0.40253200  0.85566900  1
  O  O34  1  0.06090600  0.55697700  0.55543700  1
  O  O35  1  0.88913500  0.45841300  0.81926300  1
  O  O36  1  0.47218600  0.76910000  0.75751100  1
  O  O37  1  0.42817200  0.70413100  0.82028800  1
  O  O38  1  0.59462600  0.74592300  0.75518300  1
  O  O39  1  0.50464600  0.65092300  0.78477500  1
  O  O40  1  0.65440800  0.83480200  0.82299300  1
  O  O41  1  0.60113300  0.73113200  0.86020800  1
  O  O42  1  0.55136200  0.86562900  0.82076000  1
  O  O43  1  0.51501400  0.78729600  0.87869100  1
  O  O44  1  0.93939500  0.92003300  0.95683600  1
  O  O45  1  0.01617800  0.53122500  0.43501600  1
  O  O46  1  0.89003600  0.81499700  0.99237600  1
  O  O47  1  0.02937900  0.86871600  0.93697500  1
  O  O48  1  0.99679700  0.78991000  0.99445200  1
  O  O49  1  0.11476400  0.95298500  0.99601600  1
  O  O50  1  0.07277300  0.88578500  0.05807700  1
  O  O51  1  0.03505100  0.00118600  0.03219900  1
  O  O52  1  0.94655200  0.90373600  0.06053100  1
  O  O53  1  0.59440000  0.23510800  0.05927300  1
  O  O54  1  0.50421900  0.24008900  0.03000000  1
  O  O55  1  0.65447500  0.20697100  0.99078900  1
  O  O56  1  0.98317100  0.57577500  0.49321700  1
  O  O57  1  0.60079000  0.25727400  0.95387700  1
  O  O58  1  0.55238800  0.07341200  0.99259100  1
  O  O59  1  0.51464200  0.11512200  0.93526400  1
  O  O60  1  0.47250300  0.08853000  0.05603100  1
  O  O61  1  0.42814400  0.11128100  0.99411700  1
  O  O62  1  0.92702000  0.38978100  0.45400800  1
  O  O63  1  0.87723800  0.44392200  0.49098300  1
  O  O64  1  0.64513700  0.83215700  0.49331700  1
