# generated using pymatgen
data_CuHC17I6NO4
_symmetry_space_group_name_H-M   'P 1'
_cell_length_a   15.92335900
_cell_length_b   16.04192000
_cell_length_c   14.62169500
_cell_angle_alpha   90.00926200
_cell_angle_beta   90.02226300
_cell_angle_gamma   89.99429800
_symmetry_Int_Tables_number   1
_chemical_formula_structural   CuHC17I6NO4
_chemical_formula_sum   'Cu2 H2 C34 I12 N2 O8'
_cell_volume   3734.98371637
_cell_formula_units_Z   2
loop_
 _symmetry_equiv_pos_site_id
 _symmetry_equiv_pos_as_xyz
  1  'x, y, z'
loop_
 _atom_site_type_symbol
 _atom_site_label
 _atom_site_symmetry_multiplicity
 _atom_site_fract_x
 _atom_site_fract_y
 _atom_site_fract_z
 _atom_site_occupancy
  Cu  Cu1  1  0.50008400  0.50017900  0.59152200  1
  Cu  Cu2  1  0.49991600  0.49982100  0.40847800  1
  H  H1  1  0.49980700  0.92264700  0.64518700  1
  H  H2  1  0.50019300  0.07735300  0.35481300  1
  C  C1  1  0.50004000  0.34003100  0.49998600  1
  C  C2  1  0.49996000  0.65996800  0.50001400  1
  C  C3  1  0.33884000  0.50003200  0.49977600  1
  C  C4  1  0.66116100  0.49996800  0.50022400  1
  C  C5  1  0.97267500  0.43292700  0.54254400  1
  C  C6  1  0.02732600  0.56707300  0.45745600  1
  C  C7  1  0.02736500  0.43289200  0.45751900  1
  C  C8  1  0.97263600  0.56710800  0.54248100  1
  C  C9  1  0.24873600  0.50003500  0.49985700  1
  C  C10  1  0.75126500  0.49996500  0.50014300  1
  C  C11  1  0.02745200  0.50005000  0.58497800  1
  C  C12  1  0.97254800  0.49994900  0.41502200  1
  C  C13  1  0.08120400  0.50001500  0.49995400  1
  C  C14  1  0.91879600  0.49998400  0.50004600  1
  C  C15  1  0.17306600  0.50002900  0.49990600  1
  C  C16  1  0.82693400  0.49997000  0.50009400  1
  C  C17  1  0.49989100  0.95665500  0.58137400  1
  C  C18  1  0.50010900  0.04334500  0.41862600  1
  C  C19  1  0.49998100  0.91400500  0.49949400  1
  C  C20  1  0.50001900  0.08599500  0.50050500  1
  C  C21  1  0.50009100  0.95739300  0.41802700  1
  C  C22  1  0.49991000  0.04260700  0.58197300  1
  C  C23  1  0.49996700  0.82453100  0.49940600  1
  C  C24  1  0.50003300  0.17546800  0.50059400  1
  C  C25  1  0.50004100  0.25059800  0.50025200  1
  C  C26  1  0.49996000  0.74940200  0.49974800  1
  C  C27  1  0.55302100  0.55269600  0.95294100  1
  C  C28  1  0.44698000  0.44730300  0.04705900  1
  C  C29  1  0.49997000  0.50012200  0.90563000  1
  C  C30  1  0.50003000  0.49987700  0.09436900  1
  C  C31  1  0.44695300  0.44742200  0.95275500  1
  C  C32  1  0.55304800  0.55257700  0.04724500  1
  C  C33  1  0.49996800  0.50021800  0.80744800  1
  C  C34  1  0.50003200  0.49978200  0.19255200  1
  I  I1  1  0.07382700  0.32493600  0.38917400  1
  I  I2  1  0.92617300  0.67506400  0.61082600  1
  I  I3  1  0.92627600  0.32502600  0.61098900  1
  I  I4  1  0.07372400  0.67497400  0.38901100  1
  I  I5  1  0.92592900  0.49986800  0.27832400  1
  I  I6  1  0.07407100  0.50013200  0.72167600  1
  I  I7  1  0.49976900  0.10695400  0.70743700  1
  I  I8  1  0.50023100  0.89304600  0.29256300  1
  I  I9  1  0.63416700  0.63300900  0.11887700  1
  I  I10  1  0.36583300  0.36699100  0.88112200  1
  I  I11  1  0.63412800  0.63327700  0.88159300  1
  I  I12  1  0.36587300  0.36672200  0.11840700  1
  N  N1  1  0.50002000  0.49973200  0.27169700  1
  N  N2  1  0.49998000  0.50026800  0.72830300  1
  O  O1  1  0.50304100  0.37904400  0.57856500  1
  O  O2  1  0.49695900  0.62095600  0.42143500  1
  O  O3  1  0.49697600  0.37867700  0.42121500  1
  O  O4  1  0.50302400  0.62132300  0.57878500  1
  O  O5  1  0.37805600  0.50309400  0.57841700  1
  O  O6  1  0.62194400  0.49690500  0.42158300  1
  O  O7  1  0.37786100  0.49691000  0.42107100  1
  O  O8  1  0.62213900  0.50309000  0.57892900  1
