# generated using pymatgen
data_CuH9C10NO4
_symmetry_space_group_name_H-M   'P 1'
_cell_length_a   14.07874700
_cell_length_b   11.09387500
_cell_length_c   9.97467200
_cell_angle_alpha   111.06009600
_cell_angle_beta   94.84655300
_cell_angle_gamma   90.96119600
_symmetry_Int_Tables_number   1
_chemical_formula_structural   CuH9C10NO4
_chemical_formula_sum   'Cu2 H18 C20 N2 O8'
_cell_volume   1446.79910425
_cell_formula_units_Z   2
loop_
 _symmetry_equiv_pos_site_id
 _symmetry_equiv_pos_as_xyz
  1  'x, y, z'
loop_
 _atom_site_type_symbol
 _atom_site_label
 _atom_site_symmetry_multiplicity
 _atom_site_fract_x
 _atom_site_fract_y
 _atom_site_fract_z
 _atom_site_occupancy
  Cu  Cu1  1  0.51044300  0.52009500  0.64109200  1
  Cu  Cu2  1  0.48965000  0.47955700  0.35862100  1
  H  H1  1  0.58022400  0.61574000  0.90709400  1
  H  H2  1  0.41933900  0.38492200  0.09290200  1
  H  H3  1  0.48469400  0.86515800  0.37264000  1
  H  H4  1  0.51522400  0.13446500  0.62710400  1
  H  H5  1  0.52530100  0.95073900  0.70168600  1
  H  H6  1  0.47478100  0.04892900  0.29805100  1
  H  H7  1  0.07456400  0.58895600  0.78110900  1
  H  H8  1  0.96632100  0.65190900  0.72741700  1
  H  H9  1  0.96606600  0.48735400  0.72459100  1
  H  H10  1  0.92543400  0.41032800  0.21825700  1
  H  H11  1  0.03394200  0.51199800  0.27482400  1
  H  H12  1  0.03372100  0.34743800  0.27193100  1
  H  H13  1  0.42918700  0.28959200  0.84740900  1
  H  H14  1  0.34122100  0.41157000  0.90106300  1
  H  H15  1  0.38773900  0.37311500  0.73329900  1
  H  H16  1  0.57091300  0.71059400  0.15254600  1
  H  H17  1  0.61219500  0.62686100  0.26647600  1
  H  H18  1  0.65865700  0.58831300  0.09861800  1
  C  C1  1  0.49147000  0.25457400  0.44057400  1
  C  C2  1  0.50867500  0.74510600  0.55915700  1
  C  C3  1  0.31818800  0.50401100  0.50477200  1
  C  C4  1  0.68188100  0.49548200  0.49488600  1
  C  C5  1  0.78312800  0.49236000  0.48719600  1
  C  C6  1  0.21693000  0.50707000  0.51237900  1
  C  C7  1  0.96604400  0.48160500  0.44479900  1
  C  C8  1  0.03398200  0.51769200  0.55458600  1
  C  C9  1  0.51437400  0.51432400  0.07885600  1
  C  C10  1  0.48541200  0.48602200  0.92103500  1
  C  C11  1  0.13303100  0.51135200  0.52845600  1
  C  C12  1  0.86700000  0.48800500  0.47100200  1
  C  C13  1  0.48789800  0.11509500  0.40900800  1
  C  C14  1  0.51215400  0.88457000  0.59072800  1
  C  C15  1  0.50147700  0.06955600  0.51580200  1
  C  C16  1  0.49847900  0.93008900  0.48393600  1
  C  C17  1  0.00830300  0.56435300  0.70624000  1
  C  C18  1  0.99170600  0.43496900  0.29312600  1
  C  C19  1  0.40701800  0.38451900  0.84560400  1
  C  C20  1  0.59292900  0.61556700  0.15420100  1
  N  N1  1  0.47442200  0.45012500  0.14750200  1
  N  N2  1  0.52526400  0.55032200  0.85241600  1
  O  O1  1  0.50565500  0.33164700  0.57566000  1
  O  O2  1  0.49435500  0.66800600  0.42427000  1
  O  O3  1  0.48086800  0.29653100  0.33310900  1
  O  O4  1  0.51932400  0.70306600  0.66638900  1
  O  O5  1  0.37157300  0.52522100  0.62523500  1
  O  O6  1  0.62852500  0.47452500  0.37432000  1
  O  O7  1  0.35297900  0.48050900  0.38046700  1
  O  O8  1  0.64713700  0.51900700  0.61935400  1
