# generated using pymatgen
data_Zn3H34C60O13
_symmetry_space_group_name_H-M   'P 1'
_cell_length_a   21.38298100
_cell_length_b   21.63500100
_cell_length_c   21.61845700
_cell_angle_alpha   91.55297500
_cell_angle_beta   119.00231600
_cell_angle_gamma   118.97402900
_symmetry_Int_Tables_number   1
_chemical_formula_structural   Zn3H34C60O13
_chemical_formula_sum   'Zn6 H68 C120 O26'
_cell_volume   7189.73729080
_cell_formula_units_Z   2
loop_
 _symmetry_equiv_pos_site_id
 _symmetry_equiv_pos_as_xyz
  1  'x, y, z'
loop_
 _atom_site_type_symbol
 _atom_site_label
 _atom_site_symmetry_multiplicity
 _atom_site_fract_x
 _atom_site_fract_y
 _atom_site_fract_z
 _atom_site_occupancy
  Zn  Zn1  1  0.56927800  0.56852800  0.49876700  1
  Zn  Zn2  1  0.43440700  0.43022200  0.50265100  1
  Zn  Zn3  1  0.00089800  0.55223200  0.05189900  1
  Zn  Zn4  1  0.00233700  0.45068500  0.95414500  1
  Zn  Zn5  1  0.57132900  0.99832100  0.06793900  1
  Zn  Zn6  1  0.43107600  0.99898600  0.93120000  1
  H  H1  1  0.80873100  0.83696800  0.77289200  1
  H  H2  1  0.91806000  0.82113400  0.77973500  1
  H  H3  1  0.89616700  0.69801400  0.76923700  1
  H  H4  1  0.65482300  0.60592700  0.74451800  1
  H  H5  1  0.67816900  0.72988000  0.75645700  1
  H  H6  1  0.87745500  0.61860800  0.86199600  1
  H  H7  1  0.63185200  0.38927800  0.64211400  1
  H  H8  1  0.72928900  0.34791500  0.64605800  1
  H  H9  1  0.70283500  0.22329600  0.63652200  1
  H  H10  1  0.69346100  0.16773800  0.73200400  1
  H  H11  1  0.70979000  0.23696000  0.83680500  1
  H  H12  1  0.73691100  0.36194300  0.84680000  1
  H  H13  1  0.37466200  0.05307000  0.10263000  1
  H  H14  1  0.70627000  0.35256400  0.27051300  1
  H  H15  1  0.70417900  0.43103200  0.34952100  1
  H  H16  1  0.63292400  0.44935700  0.39822800  1
  H  H17  1  0.38027000  0.26761100  0.33007600  1
  H  H18  1  0.30795000  0.15010900  0.23939300  1
  H  H19  1  0.30560900  0.07075700  0.15456400  1
  H  H20  1  0.54314000  0.50301500  0.21728300  1
  H  H21  1  0.53659200  0.61334600  0.22200900  1
  H  H22  1  0.42952700  0.61159400  0.23784400  1
  H  H23  1  0.33745700  0.38997500  0.24688500  1
  H  H24  1  0.44210700  0.39089700  0.22776500  1
  H  H25  1  0.25010200  0.50491700  0.14109200  1
  H  H26  1  0.18373000  0.59051300  0.33263200  1
  H  H27  1  0.06224900  0.57527000  0.33291600  1
  H  H28  1  0.91649300  0.45720700  0.25281400  1
  H  H29  1  0.89207300  0.35445100  0.17211600  1
  H  H30  1  0.01326100  0.36953600  0.17141800  1
  H  H31  1  0.50888200  0.79416800  0.93033200  1
  H  H32  1  0.49222500  0.92388800  0.78568000  1
  H  H33  1  0.49363300  0.89476100  0.67852000  1
  H  H34  1  0.49741100  0.81589800  0.59892900  1
  H  H35  1  0.50156800  0.71041100  0.57027400  1
  H  H36  1  0.49075100  0.56743400  0.70198000  1
  H  H37  1  0.49617100  0.59989100  0.81219900  1
  H  H38  1  0.50389600  0.68438800  0.89730200  1
  H  H39  1  0.67462700  0.51945300  0.96229300  1
  H  H40  1  0.78796100  0.53410100  0.08600400  1
  H  H41  1  0.81726900  0.43694900  0.10025200  1
  H  H42  1  0.61835100  0.30924200  0.86756800  1
  H  H43  1  0.58909900  0.40643700  0.85333700  1
  H  H44  1  0.61780200  0.23640900  0.97881300  1
  H  H45  1  0.87740100  0.26502000  0.01746100  1
  H  H46  1  0.89552200  0.20192000  0.12446300  1
  H  H47  1  0.92291600  0.10363500  0.13684100  1
  H  H48  1  0.81797900  0.98031500  0.03599400  1
  H  H49  1  0.68622400  0.95575400  0.92228800  1
  H  H50  1  0.65777200  0.05350500  0.90961100  1
  H  H51  1  0.33235600  0.75150500  0.34293000  1
  H  H52  1  0.31342400  0.84597800  0.29190800  1
  H  H53  1  0.28259200  0.84281400  0.16631300  1
  H  H54  1  0.28891200  0.64994100  0.14213900  1
  H  H55  1  0.32176700  0.65472700  0.26875600  1
  H  H56  1  0.38349900  0.85443400  0.11954500  1
  H  H57  1  0.12812200  0.64086700  0.88731300  1
  H  H58  1  0.10945900  0.73805300  0.81396600  1
  H  H59  1  0.08160300  0.73069500  0.68879100  1
  H  H60  1  0.18511500  0.73586200  0.66493400  1
  H  H61  1  0.31588200  0.74751600  0.76607400  1
  H  H62  1  0.34511900  0.75628400  0.89201500  1
  H  H63  1  0.72575800  0.23061800  0.28737100  1
  H  H64  1  0.78928500  0.30289300  0.26225900  1
  H  H65  1  0.74494600  0.20561400  0.22082300  1
  H  H66  1  0.13004500  0.36994800  0.32301200  1
  H  H67  1  0.13387900  0.42596300  0.39037400  1
  H  H68  1  0.20441500  0.39367100  0.42271300  1
  C  C1  1  0.50542000  0.41220500  0.41768100  1
  C  C2  1  0.62449800  0.50470400  0.62273600  1
  C  C3  1  0.49811400  0.58624000  0.58358100  1
  C  C4  1  0.37901300  0.49474300  0.37925100  1
  C  C5  1  0.85999100  0.77372000  0.77154000  1
  C  C6  1  0.84760900  0.70454700  0.76564400  1
  C  C7  1  0.77313700  0.64363700  0.75439800  1
  C  C8  1  0.71210100  0.65278100  0.75109800  1
  C  C9  1  0.72516100  0.72229500  0.75798000  1
  C  C10  1  0.79872700  0.78258700  0.76765700  1
  C  C11  1  0.82362500  0.56811100  0.81344300  1
  C  C12  1  0.81714600  0.50157700  0.81417500  1
  C  C13  1  0.74839000  0.43682800  0.75140300  1
  C  C14  1  0.68638900  0.43986200  0.69037800  1
  C  C15  1  0.69283900  0.50628500  0.68970000  1
  C  C16  1  0.76274700  0.57137000  0.75137900  1
  C  C17  1  0.72540100  0.32397000  0.68834100  1
  C  C18  1  0.71063100  0.25392700  0.68293000  1
  C  C19  1  0.70538300  0.22277900  0.73641700  1
  C  C20  1  0.71475600  0.26166900  0.79525100  1
  C  C21  1  0.73008300  0.33190600  0.80091800  1
  C  C22  1  0.73627700  0.36370800  0.74792000  1
  C  C23  1  0.43184900  0.10955800  0.13799100  1
  C  C24  1  0.50365700  0.13521300  0.13633000  1
  C  C25  1  0.57770400  0.20713100  0.18224400  1
  C  C26  1  0.57854200  0.25401000  0.22861600  1
  C  C27  1  0.50659600  0.22704500  0.23092500  1
  C  C28  1  0.43383300  0.15470700  0.18616800  1
  C  C29  1  0.64942300  0.32802200  0.27160500  1
  C  C30  1  0.64856100  0.37345700  0.31669500  1
  C  C31  1  0.57762600  0.34583200  0.32010600  1
  C  C32  1  0.50682100  0.27252800  0.27746300  1
  C  C33  1  0.43590500  0.24486900  0.28107500  1
  C  C34  1  0.36395200  0.17215600  0.23714500  1
  C  C35  1  0.36263600  0.12743700  0.18931800  1
  C  C36  1  0.57732400  0.39177100  0.36556200  1
  C  C37  1  0.50686200  0.36384100  0.37011600  1
  C  C38  1  0.43648100  0.28993900  0.32813200  1
  C  C39  1  0.49315200  0.56445700  0.22791100  1
  C  C40  1  0.43317000  0.56348100  0.23693100  1
  C  C41  1  0.37828700  0.50146900  0.24531600  1
  C  C42  1  0.38195800  0.43955600  0.24252300  1
  C  C43  1  0.44065400  0.43998700  0.23179600  1
  C  C44  1  0.49685800  0.50266800  0.22529200  1
  C  C45  1  0.24772300  0.50017200  0.18965400  1
  C  C46  1  0.18188600  0.49616100  0.19037500  1
  C  C47  1  0.17846600  0.48927900  0.25236600  1
  C  C48  1  0.24258900  0.48800000  0.31394400  1
  C  C49  1  0.30962000  0.49338100  0.31324200  1
  C  C50  1  0.31164600  0.49924700  0.25055100  1
  C  C51  1  0.11974300  0.53855300  0.29746100  1
  C  C52  1  0.05158500  0.53006000  0.29753100  1
  C  C53  1  0.96987000  0.46390200  0.25260400  1
  C  C54  1  0.95614800  0.40631200  0.20728300  1
  C  C55  1  0.02413000  0.41486100  0.20686300  1
  C  C56  1  0.10622700  0.48083500  0.25232200  1
  C  C57  1  0.50551100  0.80503800  0.88067700  1
  C  C58  1  0.50074000  0.86416000  0.86319500  1
  C  C59  1  0.49473300  0.87699400  0.79894000  1
  C  C60  1  0.49591300  0.83204900  0.75347900  1
  C  C61  1  0.49816100  0.77171900  0.76990000  1
  C  C62  1  0.50175000  0.75762500  0.83295300  1
  C  C63  1  0.49497400  0.84737800  0.69161000  1
  C  C64  1  0.49711500  0.80293400  0.64675700  1
  C  C65  1  0.49775900  0.74174700  0.66238500  1
  C  C66  1  0.49694400  0.72553900  0.72334300  1
  C  C67  1  0.49515700  0.66324800  0.73786500  1
  C  C68  1  0.49705900  0.64836800  0.80018000  1
  C  C69  1  0.50149400  0.69602100  0.84817400  1
  C  C70  1  0.49958000  0.69699700  0.61735600  1
  C  C71  1  0.49589600  0.63371200  0.63088200  1
  C  C72  1  0.49208100  0.61618900  0.69042200  1
  C  C73  1  0.87718700  0.38434000  0.00106000  1
  C  C74  1  0.88456100  0.50218300  0.88129600  1
  C  C75  1  0.12634200  0.61869400  0.00561700  1
  C  C76  1  0.11712500  0.49905400  0.12434800  1
  C  C77  1  0.38270100  0.87870700  0.00069700  1
  C  C78  1  0.50131200  0.08527100  0.08677600  1
  C  C79  1  0.61952200  0.11751700  0.99731900  1
  C  C80  1  0.50167900  0.91269400  0.91251900  1
  C  C81  1  0.75147400  0.48516500  0.03776100  1
  C  C82  1  0.76828800  0.43085300  0.04563000  1
  C  C83  1  0.72287700  0.36891100  0.98388200  1
  C  C84  1  0.65662900  0.35918000  0.91539900  1
  C  C85  1  0.63996900  0.41358300  0.90742300  1
  C  C86  1  0.68782900  0.47687100  0.96848900  1
  C  C87  1  0.67491400  0.24248600  0.98731900  1
  C  C88  1  0.68584100  0.18491200  0.99720600  1
  C  C89  1  0.75984800  0.19349100  0.00915000  1
  C  C90  1  0.82089700  0.25922000  0.01018500  1
  C  C91  1  0.81115600  0.31761800  0.00231000  1
  C  C92  1  0.73811700  0.30970400  0.99245500  1
  C  C93  1  0.84900300  0.14771600  0.08006700  1
  C  C94  1  0.86443900  0.09254700  0.08713500  1
  C  C95  1  0.80562400  0.02343100  0.03065700  1
  C  C96  1  0.73147900  0.00955900  0.96700700  1
  C  C97  1  0.71549800  0.06443300  0.96013400  1
  C  C98  1  0.77395100  0.13353400  0.01704500  1
  C  C99  1  0.30761100  0.80271300  0.25881400  1
  C  C100  1  0.29035500  0.80089300  0.18828500  1
  C  C101  1  0.28184100  0.74521700  0.14543300  1
  C  C102  1  0.29308100  0.69250800  0.17442500  1
  C  C103  1  0.31163800  0.69512700  0.24548200  1
  C  C104  1  0.31816300  0.74977200  0.28738900  1
  C  C105  1  0.32708900  0.80757200  0.06832200  1
  C  C106  1  0.31643900  0.81093200  0.00057400  1
  C  C107  1  0.24412900  0.75057800  0.93493400  1
  C  C108  1  0.18429600  0.68791300  0.93846800  1
  C  C109  1  0.19450300  0.68490700  0.00610000  1
  C  C110  1  0.26637000  0.74549700  0.07165600  1
  C  C111  1  0.15548800  0.74093700  0.80390700  1
  C  C112  1  0.13976000  0.73678800  0.73359400  1
  C  C113  1  0.19776800  0.73972200  0.72023000  1
  C  C114  1  0.27142300  0.74669100  0.77716000  1
  C  C115  1  0.28782900  0.75181400  0.84781700  1
  C  C116  1  0.23011900  0.74950500  0.86149300  1
  C  C117  1  0.65245200  0.23350200  0.17795400  1
  C  C118  1  0.73327100  0.24389000  0.24122400  1
  C  C119  1  0.24129200  0.48402500  0.38104900  1
  C  C120  1  0.17293900  0.41396100  0.37904700  1
  O  O1  1  0.55486700  0.48549400  0.43556500  1
  O  O2  1  0.45348300  0.37991800  0.43952400  1
  O  O3  1  0.64620800  0.55727100  0.59345700  1
  O  O4  1  0.54396200  0.44842700  0.59337100  1
  O  O5  1  0.54839800  0.61876500  0.56011400  1
  O  O6  1  0.45052400  0.51320500  0.56756100  1
  O  O7  1  0.45979700  0.54926800  0.40687600  1
  O  O8  1  0.35746100  0.44276800  0.40917400  1
  O  O9  1  0.90728700  0.45097200  0.04014600  1
  O  O10  1  0.90716200  0.37410300  0.96402200  1
  O  O11  1  0.91189000  0.54017300  0.94748500  1
  O  O12  1  0.91413300  0.46437500  0.87252000  1
  O  O13  1  0.09756900  0.62885600  0.04373300  1
  O  O14  1  0.09492600  0.55208300  0.96489500  1
  O  O15  1  0.08788200  0.53728100  0.13335500  1
  O  O16  1  0.09269300  0.46404200  0.05841100  1
  O  O17  1  0.46449400  0.90723400  0.05318100  1
  O  O18  1  0.35800700  0.90829000  0.94923900  1
  O  O19  1  0.55372800  0.06354600  0.11755500  1
  O  O20  1  0.44750000  0.06499100  0.01369100  1
  O  O21  1  0.64425500  0.08750600  0.04832700  1
  O  O22  1  0.53785900  0.09170100  0.94763900  1
  O  O23  1  0.55270700  0.93017900  0.98551200  1
  O  O24  1  0.45093800  0.93603600  0.88160600  1
  O  O25  1  0.64731100  0.24408500  0.12107500  1
  O  O26  1  0.29806100  0.53756400  0.43965200  1
