# generated using pymatgen
data_ZnH16C26NO7
_symmetry_space_group_name_H-M   'P 1'
_cell_length_a   13.10156900
_cell_length_b   17.71637300
_cell_length_c   8.55964100
_cell_angle_alpha   90.00000000
_cell_angle_beta   95.15146500
_cell_angle_gamma   90.00000000
_symmetry_Int_Tables_number   1
_chemical_formula_structural   ZnH16C26NO7
_chemical_formula_sum   'Zn2 H32 C52 N2 O14'
_cell_volume   1978.77277420
_cell_formula_units_Z   2
loop_
 _symmetry_equiv_pos_site_id
 _symmetry_equiv_pos_as_xyz
  1  'x, y, z'
loop_
 _atom_site_type_symbol
 _atom_site_label
 _atom_site_symmetry_multiplicity
 _atom_site_fract_x
 _atom_site_fract_y
 _atom_site_fract_z
 _atom_site_occupancy
  Zn  Zn1  1  0.49625500  0.08494100  0.49566800  1
  Zn  Zn2  1  0.50351900  0.91317500  0.50381100  1
  H  H1  1  0.00042100  0.92541900  0.08469800  1
  H  H2  1  0.99981900  0.07719700  0.91277400  1
  H  H3  1  0.85617900  0.97690600  0.28303200  1
  H  H4  1  0.14509400  0.02672200  0.71665200  1
  H  H5  1  0.57154400  0.02434500  0.02673400  1
  H  H6  1  0.42679300  0.97015000  0.97235400  1
  H  H7  1  0.26074600  0.31644800  0.61019400  1
  H  H8  1  0.74190100  0.67985500  0.39867100  1
  H  H9  1  0.73201600  0.31458800  0.37300000  1
  H  H10  1  0.26532800  0.68188800  0.61922500  1
  H  H11  1  0.17891700  0.43101200  0.65344500  1
  H  H12  1  0.82164800  0.56607600  0.34926000  1
  H  H13  1  0.81822900  0.42840300  0.34002700  1
  H  H14  1  0.18108600  0.56874600  0.65779600  1
  H  H15  1  0.91661000  0.95349200  0.74976900  1
  H  H16  1  0.88836200  0.05317800  0.72127800  1
  H  H17  1  0.83332600  0.95014600  0.54341800  1
  H  H18  1  0.10703100  0.95087500  0.27699200  1
  H  H19  1  0.08679400  0.05155400  0.25165600  1
  H  H20  1  0.19467900  0.97804600  0.46470400  1
  H  H21  1  0.27245700  0.18924500  0.61135300  1
  H  H22  1  0.30067300  0.13422300  0.44739700  1
  H  H23  1  0.24758000  0.21230800  0.28576600  1
  H  H24  1  0.75193700  0.77302000  0.56814800  1
  H  H25  1  0.70002300  0.86210800  0.55305700  1
  H  H26  1  0.66679400  0.79708200  0.27372500  1
  H  H27  1  0.72016800  0.18836800  0.37420100  1
  H  H28  1  0.69399400  0.13230300  0.53660700  1
  H  H29  1  0.73431500  0.21702800  0.70004700  1
  H  H30  1  0.25630000  0.77425200  0.44964100  1
  H  H31  1  0.30469600  0.86373200  0.46190600  1
  H  H32  1  0.34187500  0.80011100  0.74314600  1
  C  C1  1  0.70623100  0.99999600  0.17120800  1
  C  C2  1  0.29339400  0.99849500  0.82828000  1
  C  C3  1  0.81094500  0.98698300  0.17339500  1
  C  C4  1  0.18948600  0.01470000  0.82635900  1
  C  C5  1  0.85916200  0.99044600  0.03423700  1
  C  C6  1  0.14105800  0.01172300  0.96552300  1
  C  C7  1  0.80184100  0.99802400  0.89092100  1
  C  C8  1  0.19805200  0.00262300  0.10886400  1
  C  C9  1  0.69687700  0.00679400  0.89086600  1
  C  C10  1  0.30259200  0.99134400  0.10868700  1
  C  C11  1  0.65215300  0.01303300  0.02945000  1
  C  C12  1  0.34674500  0.98348500  0.96985600  1
  C  C13  1  0.97001500  0.97791500  0.03614600  1
  C  C14  1  0.03039700  0.02528000  0.96402400  1
  C  C15  1  0.64626400  0.99868300  0.30986000  1
  C  C16  1  0.35362700  0.99963600  0.68982800  1
  C  C17  1  0.37111700  0.99412500  0.25094300  1
  C  C18  1  0.62877600  0.00394800  0.74830500  1
  C  C19  1  0.40725200  0.22537400  0.50610600  1
  C  C20  1  0.59212900  0.77250800  0.49041500  1
  C  C21  1  0.58374000  0.22436500  0.47525700  1
  C  C22  1  0.41635000  0.77354400  0.52725200  1
  C  C23  1  0.32762600  0.34379400  0.57185300  1
  C  C24  1  0.67312100  0.65327500  0.43158000  1
  C  C25  1  0.66606600  0.34237800  0.41335900  1
  C  C26  1  0.33273000  0.65477800  0.58255400  1
  C  C27  1  0.41095500  0.30347600  0.52545000  1
  C  C28  1  0.58901000  0.69403700  0.47460500  1
  C  C29  1  0.58163000  0.30264100  0.45766200  1
  C  C30  1  0.41773000  0.69490000  0.54072700  1
  C  C31  1  0.49686700  0.34233100  0.49263600  1
  C  C32  1  0.50272400  0.65520300  0.50628100  1
  C  C33  1  0.24605400  0.46076600  0.62164900  1
  C  C34  1  0.75412800  0.53637500  0.37968500  1
  C  C35  1  0.75218200  0.45870700  0.37429100  1
  C  C36  1  0.24730600  0.53847000  0.62408500  1
  C  C37  1  0.32960900  0.42152100  0.57703400  1
  C  C38  1  0.67055200  0.57564100  0.42438500  1
  C  C39  1  0.66695900  0.42014000  0.41473800  1
  C  C40  1  0.33231300  0.57706800  0.58266900  1
  C  C41  1  0.41450400  0.46004200  0.53713100  1
  C  C42  1  0.58516800  0.53725900  0.46221400  1
  C  C43  1  0.58353400  0.45933400  0.45804400  1
  C  C44  1  0.41598800  0.53797600  0.54049300  1
  C  C45  1  0.49823500  0.42047100  0.49566300  1
  C  C46  1  0.50133400  0.57693700  0.50316400  1
  C  C47  1  0.85550800  0.99692900  0.74169800  1
  C  C48  1  0.14443900  0.00559000  0.25830000  1
  C  C49  1  0.30252500  0.19074600  0.49432600  1
  C  C50  1  0.69608000  0.80786200  0.49469400  1
  C  C51  1  0.68903500  0.18933500  0.49046100  1
  C  C52  1  0.31204800  0.80959800  0.52208300  1
  N  N1  1  0.49485900  0.18460100  0.48992800  1
  N  N2  1  0.50489600  0.81340100  0.50956000  1
  O  O1  1  0.61415400  0.93302000  0.35925600  1
  O  O2  1  0.38531800  0.06526800  0.63985500  1
  O  O3  1  0.39314700  0.93526900  0.64734700  1
  O  O4  1  0.60689100  0.06305400  0.35242400  1
  O  O5  1  0.39725100  0.06086400  0.30796000  1
  O  O6  1  0.60283800  0.93720400  0.69114600  1
  O  O7  1  0.59526600  0.06775200  0.68667100  1
  O  O8  1  0.40420400  0.93032600  0.31314600  1
  O  O9  1  0.78993300  0.97950500  0.61016100  1
  O  O10  1  0.21127900  0.01831300  0.39098600  1
  O  O11  1  0.23698400  0.23292200  0.39059300  1
  O  O12  1  0.72687200  0.81411400  0.34324600  1
  O  O13  1  0.75331700  0.23201800  0.59507000  1
  O  O14  1  0.28131400  0.81613900  0.67350600  1
