# generated using pymatgen
data_ZnH18C19N2O5
_symmetry_space_group_name_H-M   'P 1'
_cell_length_a   15.96848600
_cell_length_b   14.80854400
_cell_length_c   10.76674800
_cell_angle_alpha   90.00000000
_cell_angle_beta   90.01095900
_cell_angle_gamma   90.00000000
_symmetry_Int_Tables_number   1
_chemical_formula_structural   ZnH18C19N2O5
_chemical_formula_sum   'Zn2 H36 C38 N4 O10'
_cell_volume   2546.01314955
_cell_formula_units_Z   2
loop_
 _symmetry_equiv_pos_site_id
 _symmetry_equiv_pos_as_xyz
  1  'x, y, z'
loop_
 _atom_site_type_symbol
 _atom_site_label
 _atom_site_symmetry_multiplicity
 _atom_site_fract_x
 _atom_site_fract_y
 _atom_site_fract_z
 _atom_site_occupancy
  Zn  Zn1  1  0.49637900  0.60092900  0.50668200  1
  Zn  Zn2  1  0.49747500  0.39514100  0.50725500  1
  H  H1  1  0.37394000  0.42050100  0.92841100  1
  H  H2  1  0.37261200  0.57396000  0.08382300  1
  H  H3  1  0.49771300  0.34332300  0.08211100  1
  H  H4  1  0.49644800  0.65275000  0.93174400  1
  H  H5  1  0.62154600  0.42211400  0.93003500  1
  H  H6  1  0.62021700  0.57557200  0.08545200  1
  H  H7  1  0.91940200  0.58337500  0.66041700  1
  H  H8  1  0.93008400  0.42026200  0.65042400  1
  H  H9  1  0.05663500  0.55052000  0.68619600  1
  H  H10  1  0.06771300  0.38971800  0.63111700  1
  H  H11  1  0.05786100  0.35726100  0.47039400  1
  H  H12  1  0.07687400  0.63635300  0.57099400  1
  H  H13  1  0.91618500  0.35867900  0.50929700  1
  H  H14  1  0.94191300  0.65008000  0.52570900  1
  H  H15  1  0.06353000  0.59398400  0.35142200  1
  H  H16  1  0.08396000  0.48165700  0.30159100  1
  H  H17  1  0.36330800  0.92579600  0.54758700  1
  H  H18  1  0.36155200  0.07772000  0.53162300  1
  H  H19  1  0.57861700  0.07625200  0.66199600  1
  H  H20  1  0.58615600  0.92439100  0.65010700  1
  H  H21  1  0.46851600  0.07080800  0.69959400  1
  H  H22  1  0.47886400  0.91890500  0.70258100  1
  H  H23  1  0.54619300  0.07696500  0.31802800  1
  H  H24  1  0.53455400  0.92517000  0.31264200  1
  H  H25  1  0.62318200  0.07027000  0.44058500  1
  H  H26  1  0.61882400  0.91845700  0.42415700  1
  H  H27  1  0.39456500  0.07173100  0.37141000  1
  H  H28  1  0.38626000  0.91986600  0.38353800  1
  H  H29  1  0.95786900  0.58127200  0.18597200  1
  H  H30  1  0.90276000  0.70469900  0.10387900  1
  H  H31  1  0.87852700  0.78808100  0.22064200  1
  H  H32  1  0.79595600  0.72012500  0.15434700  1
  H  H33  1  0.98817900  0.38109700  0.27534900  1
  H  H34  1  0.91809000  0.28536300  0.15108600  1
  H  H35  1  0.85048800  0.34872900  0.04856700  1
  H  H36  1  0.80642600  0.28625900  0.17703000  1
  C  C1  1  0.33323900  0.49717700  0.50812500  1
  C  C2  1  0.49650000  0.49770600  0.26420400  1
  C  C3  1  0.66056100  0.49895200  0.50613600  1
  C  C4  1  0.49766600  0.49836700  0.74965400  1
  C  C5  1  0.42915100  0.53954200  0.04727200  1
  C  C6  1  0.49744100  0.41368300  0.04682500  1
  C  C7  1  0.42986600  0.45566700  0.96571400  1
  C  C8  1  0.49743000  0.49849100  0.88774300  1
  C  C9  1  0.49671700  0.58239000  0.96703300  1
  C  C10  1  0.56500700  0.45653200  0.96658700  1
  C  C11  1  0.56429200  0.54040600  0.04814500  1
  C  C12  1  0.49672800  0.49758200  0.12611600  1
  C  C13  1  0.04447800  0.57139300  0.58890200  1
  C  C14  1  0.04134100  0.40958100  0.53981000  1
  C  C15  1  0.94721800  0.41856000  0.55061400  1
  C  C16  1  0.95134100  0.58335900  0.56894500  1
  C  C17  1  0.75036400  0.50003300  0.50145900  1
  C  C18  1  0.07636800  0.49982000  0.50067600  1
  C  C19  1  0.91750600  0.50591400  0.48921700  1
  C  C20  1  0.95336200  0.50967600  0.35454600  1
  C  C21  1  0.04799300  0.52218800  0.36970000  1
  C  C22  1  0.82576300  0.50247700  0.49558400  1
  C  C23  1  0.16793000  0.49758900  0.50470000  1
  C  C24  1  0.24337900  0.49685900  0.50682600  1
  C  C25  1  0.40921600  0.04965400  0.46742100  1
  C  C26  1  0.40751000  0.94749100  0.47395600  1
  C  C27  1  0.51712500  0.04877800  0.63255600  1
  C  C28  1  0.52118300  0.94664300  0.63036800  1
  C  C29  1  0.49549200  0.08324100  0.50390300  1
  C  C30  1  0.49461700  0.91281400  0.50342500  1
  C  C31  1  0.55566300  0.94674500  0.40619400  1
  C  C32  1  0.55959300  0.04885600  0.41142100  1
  C  C33  1  0.49430200  0.81401700  0.50341700  1
  C  C34  1  0.49607500  0.18203600  0.50437900  1
  C  C35  1  0.87322800  0.65230900  0.28637800  1
  C  C36  1  0.86230500  0.72008600  0.18479800  1
  C  C37  1  0.86783800  0.40895500  0.22673300  1
  C  C38  1  0.86066200  0.32726200  0.14608900  1
  N  N1  1  0.49437200  0.73588600  0.50381400  1
  N  N2  1  0.49659000  0.26016400  0.50501300  1
  N  N3  1  0.92732500  0.58208700  0.27010300  1
  N  N4  1  0.93860300  0.42327800  0.29382500  1
  O  O1  1  0.37166400  0.57549000  0.50710900  1
  O  O2  1  0.37252100  0.41932800  0.50756400  1
  O  O3  1  0.49589000  0.57589400  0.32158800  1
  O  O4  1  0.49677800  0.41970100  0.32204800  1
  O  O5  1  0.62122300  0.57668700  0.50568200  1
  O  O6  1  0.62214800  0.42061700  0.50611700  1
  O  O7  1  0.49685600  0.57629600  0.69177200  1
  O  O8  1  0.49775400  0.42024700  0.69223200  1
  O  O9  1  0.83165500  0.66167600  0.37996800  1
  O  O10  1  0.80842000  0.46040600  0.23302700  1
