# generated using pymatgen
data_Fe2H15C48Br(NO10)2
_symmetry_space_group_name_H-M   'P 1'
_cell_length_a   9.40738200
_cell_length_b   20.16173700
_cell_length_c   17.60531000
_cell_angle_alpha   109.65677200
_cell_angle_beta   86.01884200
_cell_angle_gamma   85.10581100
_symmetry_Int_Tables_number   1
_chemical_formula_structural   Fe2H15C48Br(NO10)2
_chemical_formula_sum   'Fe2 H15 C48 Br1 N2 O20'
_cell_volume   3115.94588477
_cell_formula_units_Z   1
loop_
 _symmetry_equiv_pos_site_id
 _symmetry_equiv_pos_as_xyz
  1  'x, y, z'
loop_
 _atom_site_type_symbol
 _atom_site_label
 _atom_site_symmetry_multiplicity
 _atom_site_fract_x
 _atom_site_fract_y
 _atom_site_fract_z
 _atom_site_occupancy
  Fe  Fe1  1  0.50135500  0.98743800  0.35117200  1
  Fe  Fe2  1  0.49195500  0.00699800  0.64248100  1
  H  H1  1  0.20634700  0.01001000  0.86171300  1
  H  H2  1  0.75734100  0.99991500  0.89140900  1
  H  H3  1  0.23297500  0.00140300  0.10295300  1
  H  H4  1  0.78450900  0.99020600  0.13411900  1
  H  H5  1  0.94691400  0.02090500  0.67526500  1
  H  H6  1  0.04648600  0.98019200  0.31972400  1
  H  H7  1  0.20835300  0.64613300  0.53774600  1
  H  H8  1  0.33998400  0.55148900  0.56800200  1
  H  H9  1  0.79727500  0.35697600  0.47343100  1
  H  H10  1  0.66609300  0.45140500  0.44259300  1
  H  H11  1  0.26383500  0.23447700  0.44672800  1
  H  H12  1  0.40544000  0.27614700  0.72059700  1
  H  H13  1  0.29109300  0.37330400  0.68722000  1
  H  H14  1  0.73503200  0.76882600  0.55375500  1
  H  H15  1  0.73500300  0.62147300  0.31494200  1
  C  C1  1  0.09145300  0.01578000  0.76242700  1
  C  C2  1  0.10319700  0.01074300  0.83835300  1
  C  C3  1  0.98218700  0.00624100  0.88487600  1
  C  C4  1  0.85061600  0.00490800  0.85513400  1
  C  C5  1  0.83786100  0.01126700  0.78038300  1
  C  C6  1  0.95764400  0.01784000  0.73471800  1
  C  C7  1  0.99163400  0.00218800  0.96426800  1
  C  C8  1  0.99779400  0.99898400  0.03112700  1
  C  C9  1  0.14022900  0.99654200  0.13970500  1
  C  C10  1  0.15410600  0.99019100  0.21434900  1
  C  C11  1  0.03494800  0.98358900  0.26049200  1
  C  C12  1  0.90082800  0.98497100  0.23314700  1
  C  C13  1  0.88793200  0.98991300  0.15724300  1
  C  C14  1  0.00817100  0.99498900  0.11047900  1
  C  C15  1  0.77430100  0.98306500  0.28600400  1
  C  C16  1  0.58408200  0.85603800  0.35752800  1
  C  C17  1  0.29331600  0.99331700  0.24643900  1
  C  C18  1  0.38316700  0.11812200  0.45976700  1
  C  C19  1  0.75804400  0.57508200  0.45226200  1
  C  C20  1  0.94865100  0.64366000  0.48606500  1
  C  C21  1  0.02430700  0.59041500  0.50498800  1
  C  C22  1  0.96527400  0.52855800  0.49683300  1
  C  C23  1  0.83108000  0.52085100  0.47070500  1
  C  C24  1  0.15935600  0.59816500  0.53085100  1
  C  C25  1  0.23453300  0.54412900  0.54808300  1
  C  C26  1  0.17518800  0.48194300  0.53965300  1
  C  C27  1  0.04051300  0.47447900  0.51416300  1
  C  C28  1  0.98165200  0.41255200  0.50577900  1
  C  C29  1  0.84623200  0.40496600  0.48039800  1
  C  C30  1  0.77131500  0.45886800  0.46281500  1
  C  C31  1  0.24988600  0.42693800  0.55595800  1
  C  C32  1  0.05850700  0.35872400  0.52309400  1
  C  C33  1  0.29571800  0.24337200  0.50688000  1
  C  C34  1  0.36363300  0.18751100  0.52426400  1
  C  C35  1  0.40071400  0.19792100  0.60258200  1
  C  C36  1  0.37774500  0.26584100  0.65946500  1
  C  C37  1  0.31285600  0.32145200  0.64076100  1
  C  C38  1  0.26854100  0.31013600  0.56492700  1
  C  C39  1  0.71146600  0.75710600  0.49165300  1
  C  C40  1  0.64932500  0.81068100  0.46824900  1
  C  C41  1  0.62511000  0.79732900  0.38729700  1
  C  C42  1  0.65186700  0.72774100  0.33329700  1
  C  C43  1  0.71078800  0.67464700  0.35838900  1
  C  C44  1  0.74464200  0.68933900  0.43673600  1
  C  C45  1  0.69965700  0.00632800  0.74714600  1
  C  C46  1  0.62272900  0.88161800  0.52964300  1
  C  C47  1  0.21904100  0.01662000  0.70975700  1
  C  C48  1  0.44731500  0.13904700  0.63075700  1
  Br  Br1  1  0.60646600  0.69983600  0.22344800  1
  N  N1  1  0.81765700  0.63523600  0.45987200  1
  N  N2  1  0.19104600  0.36639900  0.54736400  1
  O  O1  1  0.64473400  0.98756300  0.26347000  1
  O  O2  1  0.62159100  0.84961600  0.28203300  1
  O  O3  1  0.78983300  0.97920700  0.35795900  1
  O  O4  1  0.52285600  0.91764300  0.40739500  1
  O  O5  1  0.31776700  0.96463000  0.30175700  1
  O  O6  1  0.38846600  0.02906700  0.22450100  1
  O  O7  1  0.51184000  0.08315600  0.43426200  1
  O  O8  1  0.27160900  0.09258100  0.42461300  1
  O  O9  1  0.62636300  0.56833100  0.42755800  1
  O  O10  1  0.00776900  0.70317600  0.49112700  1
  O  O11  1  0.38301800  0.43307100  0.57864000  1
  O  O12  1  0.99962200  0.29905500  0.51757600  1
  O  O13  1  0.67172900  0.03618700  0.69322200  1
  O  O14  1  0.60906400  0.96708000  0.76621900  1
  O  O15  1  0.49156000  0.90859000  0.56293300  1
  O  O16  1  0.73126400  0.91742300  0.55323300  1
  O  O17  1  0.45625500  0.15216700  0.70839800  1
  O  O18  1  0.34868900  0.00696500  0.73034400  1
  O  O19  1  0.46428500  0.07288400  0.58162300  1
  O  O20  1  0.20416000  0.02380200  0.63927800  1
