# generated using pymatgen
data_Fe2H27C62Br(NO4)4
_symmetry_space_group_name_H-M   'P 1'
_cell_length_a   17.28390500
_cell_length_b   16.35730800
_cell_length_c   19.03227300
_cell_angle_alpha   89.65055900
_cell_angle_beta   90.61057600
_cell_angle_gamma   117.37969700
_symmetry_Int_Tables_number   1
_chemical_formula_structural   Fe2H27C62Br(NO4)4
_chemical_formula_sum   'Fe2 H27 C62 Br1 N4 O16'
_cell_volume   4777.73115490
_cell_formula_units_Z   1
loop_
 _symmetry_equiv_pos_site_id
 _symmetry_equiv_pos_as_xyz
  1  'x, y, z'
loop_
 _atom_site_type_symbol
 _atom_site_label
 _atom_site_symmetry_multiplicity
 _atom_site_fract_x
 _atom_site_fract_y
 _atom_site_fract_z
 _atom_site_occupancy
  Fe  Fe1  1  0.53029100  0.01963500  0.31578100  1
  Fe  Fe2  1  0.47517700  0.99290000  0.68204800  1
  H  H1  1  0.06827200  0.06822100  0.22337700  1
  H  H2  1  0.74954800  0.02218000  0.01754300  1
  H  H3  1  0.25110700  0.97368400  0.97708200  1
  H  H4  1  0.98530300  0.04891400  0.03086300  1
  H  H5  1  0.01026700  0.93131600  0.96532600  1
  H  H6  1  0.05304200  0.97498600  0.70658700  1
  H  H7  1  0.29568000  0.99421300  0.85835700  1
  H  H8  1  0.33712000  0.99674900  0.07734000  1
  H  H9  1  0.31523200  0.05032400  0.29461100  1
  H  H10  1  0.18379000  0.06358400  0.27040500  1
  H  H11  1  0.95237100  0.04179800  0.28995300  1
  H  H12  1  0.70682400  0.01353500  0.13729200  1
  H  H13  1  0.66400600  0.00029100  0.91975200  1
  H  H14  1  0.68751500  0.95886700  0.70092000  1
  H  H15  1  0.81708500  0.94312200  0.72270500  1
  H  H16  1  0.18743600  0.99436600  0.65400300  1
  H  H17  1  0.82111700  0.03077000  0.34220100  1
  H  H18  1  0.56190000  0.12997900  0.48224400  1
  H  H19  1  0.53637400  0.34682300  0.37958500  1
  H  H20  1  0.51867000  0.32276300  0.60349600  1
  H  H21  1  0.61134500  0.50449800  0.41825000  1
  H  H22  1  0.58783500  0.63916900  0.42398600  1
  H  H23  1  0.39195900  0.50676100  0.57934400  1
  H  H24  1  0.41566500  0.37215100  0.57370700  1
  H  H25  1  0.48594500  0.68929300  0.39407600  1
  H  H26  1  0.44261700  0.88208900  0.51503400  1
  H  H27  1  0.46582600  0.66404500  0.61790100  1
  C  C1  1  0.22657500  0.01619900  0.10726600  1
  C  C2  1  0.18593100  0.03670200  0.15992000  1
  C  C3  1  0.11198700  0.03608600  0.13182800  1
  C  C4  1  0.17528000  0.00178300  0.04778000  1
  C  C5  1  0.05464600  0.05182800  0.16841100  1
  C  C6  1  0.97045200  0.04203000  0.14186600  1
  C  C7  1  0.90395200  0.03533200  0.18450300  1
  C  C8  1  0.83652200  0.02651900  0.14245200  1
  C  C9  1  0.86286300  0.02707800  0.07371300  1
  C  C10  1  0.80847900  0.01571200  0.01053200  1
  C  C11  1  0.82413400  0.99165500  0.94705200  1
  C  C12  1  0.77136300  0.97572300  0.88838300  1
  C  C13  1  0.80972400  0.95231100  0.83539500  1
  C  C14  1  0.88401700  0.95172300  0.86301200  1
  C  C15  1  0.93740800  0.92541500  0.82989000  1
  C  C16  1  0.02671900  0.94972900  0.85478500  1
  C  C17  1  0.09640200  0.96694600  0.81153300  1
  C  C18  1  0.16451400  0.97678900  0.85316700  1
  C  C19  1  0.13654300  0.96853900  0.92188800  1
  C  C20  1  0.19170100  0.97919100  0.98432800  1
  C  C21  1  0.10462300  0.97665100  0.73991200  1
  C  C22  1  0.18195100  0.98919600  0.71051100  1
  C  C23  1  0.25038700  0.99318700  0.75222500  1
  C  C24  1  0.24286900  0.98970900  0.82507000  1
  C  C25  1  0.30372900  0.01202500  0.11892600  1
  C  C26  1  0.33549300  0.02448200  0.18738300  1
  C  C27  1  0.29094100  0.04129200  0.24122700  1
  C  C28  1  0.21652900  0.04942900  0.22777600  1
  C  C29  1  0.89937800  0.03591600  0.25633300  1
  C  C30  1  0.82422400  0.02930900  0.28561100  1
  C  C31  1  0.75479600  0.02204400  0.24362300  1
  C  C32  1  0.76015200  0.01956200  0.17063400  1
  C  C33  1  0.69586700  0.98384300  0.87764600  1
  C  C34  1  0.66451700  0.97553000  0.80935700  1
  C  C35  1  0.70934300  0.96125000  0.75460000  1
  C  C36  1  0.78176700  0.94886000  0.76704600  1
  C  C37  1  0.67827700  0.01895000  0.27894300  1
  C  C38  1  0.48218400  0.85230300  0.38695100  1
  C  C39  1  0.41460000  0.01853400  0.20670800  1
  C  C40  1  0.55230600  0.19251900  0.35827900  1
  C  C41  1  0.55546100  0.23812300  0.42490100  1
  C  C42  1  0.54138300  0.31451700  0.42792900  1
  C  C43  1  0.53052700  0.34706400  0.49233700  1
  C  C44  1  0.52944000  0.29959100  0.55325000  1
  C  C45  1  0.53976600  0.22089600  0.54977700  1
  C  C46  1  0.55603200  0.19274200  0.48587600  1
  C  C47  1  0.56214700  0.50377500  0.45317400  1
  C  C48  1  0.54855500  0.58038700  0.45638600  1
  C  C49  1  0.48778800  0.58281500  0.50193500  1
  C  C50  1  0.44117600  0.50751700  0.54442800  1
  C  C51  1  0.45483300  0.43092900  0.54125700  1
  C  C52  1  0.51553800  0.42849200  0.49565600  1
  C  C53  1  0.47476400  0.71219800  0.44428800  1
  C  C54  1  0.46506300  0.79123400  0.44778500  1
  C  C55  1  0.44820800  0.81916400  0.51151200  1
  C  C56  1  0.44771000  0.77329200  0.57244900  1
  C  C57  1  0.46144400  0.69665100  0.56952100  1
  C  C58  1  0.47284200  0.66430000  0.50518200  1
  C  C59  1  0.58701900  0.98564600  0.79121100  1
  C  C60  1  0.45048800  0.81881000  0.63901900  1
  C  C61  1  0.32778800  0.99794000  0.71713700  1
  C  C62  1  0.52368900  0.16042300  0.61093200  1
  Br  Br1  1  0.89268200  0.83568300  0.75577400  1
  N  N1  1  0.10527900  0.01442700  0.06302800  1
  N  N2  1  0.94565700  0.03851900  0.07403700  1
  N  N3  1  0.89349300  0.97801900  0.93105100  1
  N  N4  1  0.05154800  0.94998500  0.92230800  1
  O  O1  1  0.61087400  0.01586000  0.24426900  1
  O  O2  1  0.49500200  0.82770500  0.32439800  1
  O  O3  1  0.67817100  0.02227800  0.34779500  1
  O  O4  1  0.49431100  0.93643700  0.39821000  1
  O  O5  1  0.41475300  0.98248000  0.26836100  1
  O  O6  1  0.48758300  0.06728500  0.17314400  1
  O  O7  1  0.59877300  0.14782400  0.35342200  1
  O  O8  1  0.48289400  0.16814700  0.31855600  1
  O  O9  1  0.58908900  0.02704800  0.73149700  1
  O  O10  1  0.51272200  0.93467500  0.82236600  1
  O  O11  1  0.40575900  0.86549900  0.64307100  1
  O  O12  1  0.51850000  0.84067200  0.67992800  1
  O  O13  1  0.50781100  0.18396600  0.67284300  1
  O  O14  1  0.39346500  0.99732700  0.75226700  1
  O  O15  1  0.51463600  0.07726800  0.60036500  1
  O  O16  1  0.32920000  0.99706000  0.64824600  1
