# generated using pymatgen
data_Fe2H16C41N6O17
_symmetry_space_group_name_H-M   'P 1'
_cell_length_a   14.10701100
_cell_length_b   9.50355200
_cell_length_c   19.83166000
_cell_angle_alpha   85.69760100
_cell_angle_beta   90.40237800
_cell_angle_gamma   109.63874700
_symmetry_Int_Tables_number   1
_chemical_formula_structural   Fe2H16C41N6O17
_chemical_formula_sum   'Fe2 H16 C41 N6 O17'
_cell_volume   2496.58107704
_cell_formula_units_Z   1
loop_
 _symmetry_equiv_pos_site_id
 _symmetry_equiv_pos_as_xyz
  1  'x, y, z'
loop_
 _atom_site_type_symbol
 _atom_site_label
 _atom_site_symmetry_multiplicity
 _atom_site_fract_x
 _atom_site_fract_y
 _atom_site_fract_z
 _atom_site_occupancy
  Fe  Fe1  1  0.49103600  0.99783400  0.14932100  1
  Fe  Fe2  1  0.51433000  0.01401000  0.85191200  1
  H  H1  1  0.83923500  0.97791200  0.13592700  1
  H  H2  1  0.82883800  0.04904600  0.88891300  1
  H  H3  1  0.99591800  0.04731600  0.87935500  1
  H  H4  1  0.15907100  0.03715200  0.86787600  1
  H  H5  1  0.18231300  0.95428500  0.11359100  1
  H  H6  1  0.12017800  0.15368100  0.17167300  1
  H  H7  1  0.08927900  0.03491100  0.29395400  1
  H  H8  1  0.94985000  0.76434700  0.29310900  1
  H  H9  1  0.89728500  0.72370800  0.16434100  1
  H  H10  1  0.51920600  0.55732800  0.83084400  1
  H  H11  1  0.51565100  0.30289200  0.66178700  1
  H  H12  1  0.52174000  0.75672000  0.63217300  1
  H  H13  1  0.47253500  0.24998200  0.36519800  1
  H  H14  1  0.48006100  0.70333500  0.33531100  1
  H  H15  1  0.55160300  0.49627400  0.05718700  1
  H  H16  1  0.62629200  0.50756600  0.12496000  1
  C  C1  1  0.83753400  0.98947400  0.08157200  1
  C  C2  1  0.75081200  0.99926300  0.05185000  1
  C  C3  1  0.74744200  0.02033500  0.98190400  1
  C  C4  1  0.83189100  0.03527700  0.94339800  1
  C  C5  1  0.91717200  0.02060800  0.97339200  1
  C  C6  1  0.92011700  0.99542800  0.04264500  1
  C  C7  1  0.99873700  0.02822000  0.93364200  1
  C  C8  1  0.08387900  0.01179800  0.96272500  1
  C  C9  1  0.08797500  0.98681100  0.03190200  1
  C  C10  1  0.00579500  0.97848500  0.07229600  1
  C  C11  1  0.16481700  0.02020800  0.92201500  1
  C  C12  1  0.25245400  0.00893200  0.94974400  1
  C  C13  1  0.25767700  0.98754100  0.01956800  1
  C  C14  1  0.17468600  0.97116500  0.05976700  1
  C  C15  1  0.05174800  0.98294900  0.24993900  1
  C  C16  1  0.97941500  0.84255900  0.24968900  1
  C  C17  1  0.95220100  0.82149600  0.18324500  1
  C  C18  1  0.00913700  0.95001300  0.14578600  1
  C  C19  1  0.66531400  0.98762200  0.09648200  1
  C  C20  1  0.47076400  0.71938000  0.20094300  1
  C  C21  1  0.35272200  0.00297100  0.05337500  1
  C  C22  1  0.47257600  0.19704700  0.23741400  1
  C  C23  1  0.52595800  0.81150300  0.76080400  1
  C  C24  1  0.65284900  0.00521400  0.94720700  1
  C  C25  1  0.52194700  0.28901500  0.79770000  1
  C  C26  1  0.33646100  0.01821900  0.90393500  1
  C  C27  1  0.51972100  0.41639400  0.75119900  1
  C  C28  1  0.51737600  0.40623700  0.68187800  1
  C  C29  1  0.51610400  0.52731700  0.63860900  1
  C  C30  1  0.52074400  0.66011400  0.66491900  1
  C  C31  1  0.51997700  0.66953300  0.73379300  1
  C  C32  1  0.51800000  0.54730400  0.77690800  1
  C  C33  1  0.48739600  0.49194200  0.43184700  1
  C  C34  1  0.50774900  0.51518300  0.56527500  1
  C  C35  1  0.47337700  0.34652400  0.33246100  1
  C  C36  1  0.47430700  0.33710300  0.26370400  1
  C  C37  1  0.47689700  0.45849500  0.21979600  1
  C  C38  1  0.47547800  0.59023900  0.24548700  1
  C  C39  1  0.47840400  0.60030200  0.31497500  1
  C  C40  1  0.47890900  0.47949100  0.35852500  1
  C  C41  1  0.47847900  0.44224700  0.14686100  1
  N  N1  1  0.06943400  0.04763100  0.18647500  1
  N  N2  1  0.50510200  0.63294700  0.52405900  1
  N  N3  1  0.49530400  0.62169000  0.45814400  1
  N  N4  1  0.49004900  0.37420400  0.47307000  1
  N  N5  1  0.49986800  0.38546600  0.53897400  1
  N  N6  1  0.56356300  0.53128100  0.10613900  1
  O  O1  1  0.59194800  0.03446700  0.07544900  1
  O  O2  1  0.45993000  0.71152700  0.13547200  1
  O  O3  1  0.66480300  0.93687300  0.15987500  1
  O  O4  1  0.47935800  0.84672100  0.22598700  1
  O  O5  1  0.35491400  0.91723900  0.10813100  1
  O  O6  1  0.43219100  0.12009200  0.03616500  1
  O  O7  1  0.53360100  0.19880300  0.18747500  1
  O  O8  1  0.40539600  0.07026800  0.26087600  1
  O  O9  1  0.47178900  0.81210800  0.81432500  1
  O  O10  1  0.58928800  0.93760800  0.73331800  1
  O  O11  1  0.65016400  0.09434400  0.89369300  1
  O  O12  1  0.57315800  0.88801200  0.96387300  1
  O  O13  1  0.33275800  0.05980900  0.83966700  1
  O  O14  1  0.52701500  0.16490500  0.77491400  1
  O  O15  1  0.41277900  0.97839500  0.92536100  1
  O  O16  1  0.51590800  0.29725900  0.86320700  1
  O  O17  1  0.40992400  0.34614700  0.12167800  1
