# generated using pymatgen
data_ZnH15C23NO5
_symmetry_space_group_name_H-M   'P 1'
_cell_length_a   15.69724400
_cell_length_b   10.83189300
_cell_length_c   14.11061300
_cell_angle_alpha   90.00000000
_cell_angle_beta   95.98560100
_cell_angle_gamma   90.00000000
_symmetry_Int_Tables_number   1
_chemical_formula_structural   ZnH15C23NO5
_chemical_formula_sum   'Zn2 H30 C46 N2 O10'
_cell_volume   2386.15943188
_cell_formula_units_Z   2
loop_
 _symmetry_equiv_pos_site_id
 _symmetry_equiv_pos_as_xyz
  1  'x, y, z'
loop_
 _atom_site_type_symbol
 _atom_site_label
 _atom_site_symmetry_multiplicity
 _atom_site_fract_x
 _atom_site_fract_y
 _atom_site_fract_z
 _atom_site_occupancy
  Zn  Zn1  1  0.49345300  0.52180100  0.89539800  1
  Zn  Zn2  1  0.50651600  0.47789200  0.10509600  1
  H  H1  1  0.36252000  0.90527200  0.96883700  1
  H  H2  1  0.36707600  0.09554800  0.00954000  1
  H  H3  1  0.24177700  0.59955300  0.08335500  1
  H  H4  1  0.22182800  0.40560100  0.90980500  1
  H  H5  1  0.11132300  0.71287600  0.08490200  1
  H  H6  1  0.09129000  0.29129400  0.91171700  1
  H  H7  1  0.88879700  0.28690300  0.91574800  1
  H  H8  1  0.90877900  0.70829800  0.08879400  1
  H  H9  1  0.75821700  0.40001400  0.91714300  1
  H  H10  1  0.77813900  0.59420700  0.09080000  1
  H  H11  1  0.63310100  0.90429700  0.99088300  1
  H  H12  1  0.63769700  0.09431800  0.03188300  1
  H  H13  1  0.61708600  0.37264000  0.45551500  1
  H  H14  1  0.61736100  0.59961200  0.43023700  1
  H  H15  1  0.60685200  0.40063000  0.61218400  1
  H  H16  1  0.60875200  0.62805700  0.58716300  1
  H  H17  1  0.50945400  0.71117800  0.55983100  1
  H  H18  1  0.50622300  0.31865600  0.60157000  1
  H  H19  1  0.51745800  0.68099000  0.40299000  1
  H  H20  1  0.51710400  0.28860400  0.44525600  1
  H  H21  1  0.36933800  0.43359900  0.56494400  1
  H  H22  1  0.37114900  0.59834500  0.54543900  1
  H  H23  1  0.37952600  0.40057800  0.40883900  1
  H  H24  1  0.37944100  0.56523200  0.38899000  1
  H  H25  1  0.05194900  0.73000200  0.84566500  1
  H  H26  1  0.97396200  0.85291000  0.84446300  1
  H  H27  1  0.93902900  0.69449700  0.84097500  1
  H  H28  1  0.02623200  0.14676200  0.15612900  1
  H  H29  1  0.94828800  0.26971700  0.15498400  1
  H  H30  1  0.06121400  0.30515500  0.15960000  1
  C  C1  1  0.07788200  0.93728200  0.00365600  1
  C  C2  1  0.07626800  0.06344200  0.99043600  1
  C  C3  1  0.00031800  0.87359600  0.00126900  1
  C  C4  1  0.99984800  0.12609500  0.99933000  1
  C  C5  1  0.92389900  0.93624600  0.01015800  1
  C  C6  1  0.92228800  0.06241400  0.99693900  1
  C  C7  1  0.23149900  0.93707500  0.99992600  1
  C  C8  1  0.22975900  0.06426000  0.98452600  1
  C  C9  1  0.30578200  0.86769100  0.99486400  1
  C  C10  1  0.30493100  0.13359400  0.98636200  1
  C  C11  1  0.30803300  0.74526700  0.02104300  1
  C  C12  1  0.30174900  0.25712800  0.96320800  1
  C  C13  1  0.23882100  0.69350300  0.05737400  1
  C  C14  1  0.22459300  0.31022600  0.93248500  1
  C  C15  1  0.16338100  0.75754100  0.05425400  1
  C  C16  1  0.15004000  0.24549000  0.93792300  1
  C  C17  1  0.15667400  0.87610000  0.01642100  1
  C  C18  1  0.15164100  0.12545600  0.97344500  1
  C  C19  1  0.83674600  0.24216800  0.94635700  1
  C  C20  1  0.85005200  0.75418700  0.06262300  1
  C  C21  1  0.76124100  0.30608100  0.94315900  1
  C  C22  1  0.77544500  0.68957700  0.06810600  1
  C  C23  1  0.69204900  0.25421200  0.97947300  1
  C  C24  1  0.69832000  0.74279500  0.03739300  1
  C  C25  1  0.69439900  0.13188800  0.00576700  1
  C  C26  1  0.69522300  0.86624700  0.01415500  1
  C  C27  1  0.76869400  0.06260500  0.00067300  1
  C  C28  1  0.77042400  0.93546700  0.01604300  1
  C  C29  1  0.84349600  0.12360300  0.98417900  1
  C  C30  1  0.84851600  0.87423400  0.02712900  1
  C  C31  1  0.37819800  0.33494100  0.97594900  1
  C  C32  1  0.38291700  0.66819700  0.01267400  1
  C  C33  1  0.62179600  0.66519400  0.02465500  1
  C  C34  1  0.61708000  0.33105200  0.98780600  1
  C  C35  1  0.54170000  0.39678300  0.57343100  1
  C  C36  1  0.54330900  0.62317600  0.54921900  1
  C  C37  1  0.54908100  0.60314600  0.44384500  1
  C  C38  1  0.54861200  0.37684300  0.46826200  1
  C  C39  1  0.49475600  0.51682900  0.58799300  1
  C  C40  1  0.50519600  0.48286600  0.41249800  1
  C  C41  1  0.41172600  0.48869900  0.43081900  1
  C  C42  1  0.40544500  0.51042200  0.53590300  1
  C  C43  1  0.51051100  0.46553600  0.31039600  1
  C  C44  1  0.48944000  0.53415600  0.69009600  1
  C  C45  1  0.99019400  0.75843700  0.87064900  1
  C  C46  1  0.01001800  0.24124600  0.12995600  1
  N  N1  1  0.51306600  0.45713000  0.22898400  1
  N  N2  1  0.48688800  0.54256000  0.77150900  1
  O  O1  1  0.41101000  0.35915100  0.06332300  1
  O  O2  1  0.41430000  0.60782400  0.08890100  1
  O  O3  1  0.40374100  0.38958000  0.90087700  1
  O  O4  1  0.40752500  0.64933200  0.92766000  1
  O  O5  1  0.58887200  0.64121000  0.93728300  1
  O  O6  1  0.58567400  0.39135700  0.91157500  1
  O  O7  1  0.59615000  0.61075800  0.09974600  1
  O  O8  1  0.59243100  0.34982500  0.07280700  1
  O  O9  1  0.99669500  0.75340800  0.97025100  1
  O  O10  1  0.00346400  0.24628100  0.03035200  1
