# generated using pymatgen
data_CuH18C29NClO4
_symmetry_space_group_name_H-M   'P 1'
_cell_length_a   19.40184200
_cell_length_b   17.90070200
_cell_length_c   10.88334600
_cell_angle_alpha   90.00000000
_cell_angle_beta   90.01023700
_cell_angle_gamma   90.00000000
_symmetry_Int_Tables_number   1
_chemical_formula_structural   CuH18C29NClO4
_chemical_formula_sum   'Cu2 H36 C58 N2 Cl2 O8'
_cell_volume   3779.85774732
_cell_formula_units_Z   2
loop_
 _symmetry_equiv_pos_site_id
 _symmetry_equiv_pos_as_xyz
  1  'x, y, z'
loop_
 _atom_site_type_symbol
 _atom_site_label
 _atom_site_symmetry_multiplicity
 _atom_site_fract_x
 _atom_site_fract_y
 _atom_site_fract_z
 _atom_site_occupancy
  Cu  Cu1  1  0.49950000  0.57404800  0.49836800  1
  Cu  Cu2  1  0.49994500  0.42478800  0.49803000  1
  H  H1  1  0.49941400  0.37902300  0.11001300  1
  H  H2  1  0.50079400  0.37883800  0.88694700  1
  H  H3  1  0.54539900  0.66829200  0.88668200  1
  H  H4  1  0.44683900  0.66655600  0.10802900  1
  H  H5  1  0.44815100  0.66609600  0.88497300  1
  H  H6  1  0.54408700  0.66870400  0.10995400  1
  H  H7  1  0.85136800  0.39310400  0.46952400  1
  H  H8  1  0.15090700  0.39125800  0.54049100  1
  H  H9  1  0.83687100  0.62759000  0.52921300  1
  H  H10  1  0.16239300  0.62674900  0.47978100  1
  H  H11  1  0.71251500  0.61972100  0.52394300  1
  H  H12  1  0.28597100  0.61885700  0.47205900  1
  H  H13  1  0.93709400  0.60083800  0.37659300  1
  H  H14  1  0.06223900  0.59970000  0.37678800  1
  H  H15  1  0.05933500  0.42809300  0.65156800  1
  H  H16  1  0.93474800  0.42686500  0.64395600  1
  H  H17  1  0.42682200  0.69286300  0.35500500  1
  H  H18  1  0.57374300  0.69272300  0.63919600  1
  H  H19  1  0.42653500  0.82854400  0.35084700  1
  H  H20  1  0.57359600  0.82848100  0.64409200  1
  H  H21  1  0.60878000  0.93213000  0.52944900  1
  H  H22  1  0.39137800  0.93226200  0.46164600  1
  H  H23  1  0.60835800  0.06732600  0.53126800  1
  H  H24  1  0.39144000  0.06736900  0.46408400  1
  H  H25  1  0.43243900  0.17013800  0.34277900  1
  H  H26  1  0.56689000  0.16969000  0.65403600  1
  H  H27  1  0.43354400  0.30582500  0.34499000  1
  H  H28  1  0.56789400  0.30609500  0.64832700  1
  H  H29  1  0.70930700  0.18726800  0.54736000  1
  H  H30  1  0.66080100  0.16935800  0.34078800  1
  H  H31  1  0.65158100  0.27611000  0.19908900  1
  H  H32  1  0.69266000  0.39998500  0.26293900  1
  H  H33  1  0.29375100  0.18813500  0.45145000  1
  H  H34  1  0.34561100  0.16963900  0.65521000  1
  H  H35  1  0.35561300  0.27548400  0.79827400  1
  H  H36  1  0.31291400  0.39943100  0.73825300  1
  C  C1  1  0.36690200  0.49942100  0.50237200  1
  C  C2  1  0.63269300  0.49949000  0.49422200  1
  C  C3  1  0.49844700  0.49938700  0.26200900  1
  C  C4  1  0.50092900  0.49936500  0.73426800  1
  C  C5  1  0.49761700  0.56317900  0.05910500  1
  C  C6  1  0.49841600  0.56305300  0.93698700  1
  C  C7  1  0.49840300  0.49874800  0.12750900  1
  C  C8  1  0.50020100  0.49856300  0.86889800  1
  C  C9  1  0.49932700  0.43198300  0.06231400  1
  C  C10  1  0.50017300  0.43187100  0.93425300  1
  C  C11  1  0.49697000  0.64561100  0.92600200  1
  C  C12  1  0.49611300  0.64581900  0.06936800  1
  C  C13  1  0.74960100  0.43715400  0.47701600  1
  C  C14  1  0.25112200  0.43684600  0.52749400  1
  C  C15  1  0.82045800  0.44259400  0.48401200  1
  C  C16  1  0.18011000  0.44192900  0.52725700  1
  C  C17  1  0.85224900  0.51032500  0.50331700  1
  C  C18  1  0.14685600  0.50944200  0.51041300  1
  C  C19  1  0.81273100  0.57386300  0.51451100  1
  C  C20  1  0.18625300  0.57264200  0.49095200  1
  C  C21  1  0.74182400  0.56901300  0.51129700  1
  C  C22  1  0.25723700  0.56809500  0.48825300  1
  C  C23  1  0.70900400  0.50096200  0.49306200  1
  C  C24  1  0.29074600  0.50059300  0.50657000  1
  C  C25  1  0.96402000  0.56343900  0.43802000  1
  C  C26  1  0.03520200  0.56282600  0.43885600  1
  C  C27  1  0.07078100  0.51320400  0.51332100  1
  C  C28  1  0.92752200  0.51379000  0.50989400  1
  C  C29  1  0.03363300  0.46554200  0.58867000  1
  C  C30  1  0.96267300  0.46510700  0.58540800  1
  C  C31  1  0.45954800  0.72315000  0.41800100  1
  C  C32  1  0.54132800  0.72308300  0.57572200  1
  C  C33  1  0.45885400  0.80011500  0.41677800  1
  C  C34  1  0.54169000  0.80011900  0.57740500  1
  C  C35  1  0.50011900  0.83962900  0.49723100  1
  C  C36  1  0.56033000  0.96106400  0.51762200  1
  C  C37  1  0.43960600  0.96109300  0.47636200  1
  C  C38  1  0.56018500  0.03809000  0.51840000  1
  C  C39  1  0.43956300  0.03810800  0.47726000  1
  C  C40  1  0.49978800  0.07716500  0.49836200  1
  C  C41  1  0.49996300  0.92185200  0.49713500  1
  C  C42  1  0.46221700  0.19867400  0.41224300  1
  C  C43  1  0.53794000  0.19859700  0.58356700  1
  C  C44  1  0.46323400  0.27564500  0.41275600  1
  C  C45  1  0.53785800  0.27568600  0.58146300  1
  C  C46  1  0.49977000  0.15925900  0.49833600  1
  C  C47  1  0.72150600  0.36412000  0.44294800  1
  C  C48  1  0.72674200  0.30404800  0.52230900  1
  C  C49  1  0.70508100  0.23420000  0.48527200  1
  C  C50  1  0.67786400  0.22414900  0.36944900  1
  C  C51  1  0.67258400  0.28395600  0.29019700  1
  C  C52  1  0.69506700  0.35362200  0.32640000  1
  C  C53  1  0.28075800  0.36406600  0.55940400  1
  C  C54  1  0.27493700  0.30434700  0.47944900  1
  C  C55  1  0.29829700  0.23471000  0.51411300  1
  C  C56  1  0.32741500  0.22435000  0.62836800  1
  C  C57  1  0.33317000  0.28370000  0.70836500  1
  C  C58  1  0.30948000  0.35333900  0.67430600  1
  N  N1  1  0.49956300  0.68581500  0.49842500  1
  N  N2  1  0.50000600  0.31305000  0.49777000  1
  Cl  Cl1  1  0.75955400  0.31582400  0.67110900  1
  Cl  Cl2  1  0.23926600  0.31647500  0.33280800  1
  O  O1  1  0.39950400  0.56353000  0.50522400  1
  O  O2  1  0.59981800  0.56347800  0.49980600  1
  O  O3  1  0.39970500  0.43552800  0.49533500  1
  O  O4  1  0.60002600  0.43539400  0.49252400  1
  O  O5  1  0.49579900  0.56352100  0.31973100  1
  O  O6  1  0.49861600  0.56366700  0.67695000  1
  O  O7  1  0.50154700  0.43529100  0.31963700  1
  O  O8  1  0.50300300  0.43538700  0.67646500  1
