# generated using pymatgen
data_ZnH12C19N3O5
_symmetry_space_group_name_H-M   'P 1'
_cell_length_a   11.24668100
_cell_length_b   15.91967500
_cell_length_c   17.14628000
_cell_angle_alpha   89.11597900
_cell_angle_beta   90.74621200
_cell_angle_gamma   104.91305700
_symmetry_Int_Tables_number   1
_chemical_formula_structural   ZnH12C19N3O5
_chemical_formula_sum   'Zn2 H24 C38 N6 O10'
_cell_volume   2966.04374376
_cell_formula_units_Z   2
loop_
 _symmetry_equiv_pos_site_id
 _symmetry_equiv_pos_as_xyz
  1  'x, y, z'
loop_
 _atom_site_type_symbol
 _atom_site_label
 _atom_site_symmetry_multiplicity
 _atom_site_fract_x
 _atom_site_fract_y
 _atom_site_fract_z
 _atom_site_occupancy
  Zn  Zn1  1  0.49281400  0.40175400  0.49677300  1
  Zn  Zn2  1  0.51095300  0.59556700  0.50178100  1
  H  H1  1  0.12078200  0.57692700  0.50137500  1
  H  H2  1  0.88284600  0.42040400  0.49574200  1
  H  H3  1  0.07386000  0.37909200  0.49124100  1
  H  H4  1  0.92993800  0.61814300  0.50751800  1
  H  H5  1  0.58232500  0.41434100  0.10163500  1
  H  H6  1  0.41649000  0.57972500  0.89763100  1
  H  H7  1  0.59522300  0.37416400  0.88152300  1
  H  H8  1  0.40769100  0.62251600  0.11695700  1
  H  H9  1  0.58223300  0.38164500  0.74001900  1
  H  H10  1  0.42191500  0.61585800  0.25846700  1
  H  H11  1  0.61946600  0.28221700  0.57899000  1
  H  H12  1  0.38427300  0.71510500  0.41960300  1
  H  H13  1  0.61431100  0.12980300  0.57415100  1
  H  H14  1  0.38942200  0.86751600  0.42445700  1
  H  H15  1  0.67135600  0.90104100  0.60051000  1
  H  H16  1  0.33243300  0.09627300  0.39806200  1
  H  H17  1  0.66039000  0.74553800  0.59218400  1
  H  H18  1  0.34340500  0.25177800  0.40637200  1
  H  H19  1  0.75603600  0.48186800  0.32862700  1
  H  H20  1  0.84071100  0.34139700  0.34701300  1
  H  H21  1  0.70829700  0.22288400  0.25312100  1
  H  H22  1  0.44009900  0.71559800  0.82406400  1
  H  H23  1  0.28238700  0.77487100  0.73616600  1
  H  H24  1  0.18468000  0.65080800  0.63682700  1
  C  C1  1  0.49450800  0.49038000  0.65200500  1
  C  C2  1  0.50920100  0.50694900  0.34656600  1
  C  C3  1  0.74210300  0.53191900  0.50386200  1
  C  C4  1  0.26165700  0.46539500  0.49468300  1
  C  C5  1  0.87674100  0.55101000  0.50435800  1
  C  C6  1  0.12700900  0.44626600  0.49398300  1
  C  C7  1  0.93440600  0.48785600  0.49937600  1
  C  C8  1  0.06926800  0.50943700  0.49826500  1
  C  C9  1  0.49290400  0.48546100  0.73778800  1
  C  C10  1  0.51099600  0.51189700  0.26079700  1
  C  C11  1  0.44607000  0.54114000  0.78338800  1
  C  C12  1  0.55729500  0.45601500  0.21510200  1
  C  C13  1  0.45602300  0.53713700  0.86390600  1
  C  C14  1  0.54485800  0.45854100  0.13481500  1
  C  C15  1  0.51007400  0.47720200  0.89961400  1
  C  C16  1  0.49116600  0.51858000  0.09902200  1
  C  C17  1  0.55327400  0.42119100  0.85414900  1
  C  C18  1  0.44945100  0.57542100  0.14439200  1
  C  C19  1  0.54466500  0.42509700  0.77410300  1
  C  C20  1  0.45895300  0.57208500  0.22443400  1
  C  C21  1  0.44786300  0.75661800  0.45924800  1
  C  C22  1  0.55588800  0.24070300  0.53934000  1
  C  C23  1  0.45124300  0.84376100  0.46253300  1
  C  C24  1  0.55250600  0.15355800  0.53606400  1
  C  C25  1  0.53206500  0.89682800  0.51391100  1
  C  C26  1  0.47169900  0.10049000  0.48467900  1
  C  C27  1  0.60770900  0.86082900  0.56004300  1
  C  C28  1  0.39607000  0.13648800  0.43853400  1
  C  C29  1  0.60160400  0.77348500  0.55523600  1
  C  C30  1  0.40217700  0.22383300  0.44333100  1
  C  C31  1  0.62638400  0.39679100  0.24766700  1
  C  C32  1  0.72109900  0.41962100  0.30112000  1
  C  C33  1  0.76515400  0.34827000  0.31000200  1
  C  C34  1  0.69562300  0.28730000  0.26068800  1
  C  C35  1  0.37760600  0.60026600  0.74947200  1
  C  C36  1  0.38336000  0.68192500  0.77703000  1
  C  C37  1  0.30303800  0.71242000  0.73213400  1
  C  C38  1  0.25309400  0.64723200  0.68071800  1
  N  N1  1  0.52109700  0.47075600  0.98172800  1
  N  N2  1  0.47971100  0.52469500  0.01693800  1
  N  N3  1  0.52214700  0.72284000  0.50534400  1
  N  N4  1  0.48162600  0.27448100  0.49322600  1
  N  N5  1  0.53915900  0.98645000  0.52092700  1
  N  N6  1  0.46460700  0.01086800  0.47766700  1
  O  O1  1  0.49020600  0.41892300  0.61353600  1
  O  O2  1  0.51352700  0.57840900  0.38502000  1
  O  O3  1  0.50466700  0.56591400  0.61723600  1
  O  O4  1  0.49920400  0.43140500  0.38130800  1
  O  O5  1  0.67780900  0.45060100  0.50108700  1
  O  O6  1  0.32595100  0.54671700  0.49750600  1
  O  O7  1  0.69185100  0.59767000  0.50473300  1
  O  O8  1  0.31191900  0.39965100  0.49378500  1
  O  O9  1  0.61185200  0.31677200  0.22177000  1
  O  O10  1  0.29761500  0.57846400  0.69114500  1
