# generated using pymatgen
data_CuH12C21NO8
_symmetry_space_group_name_H-M   'P 1'
_cell_length_a   19.35197900
_cell_length_b   17.90773100
_cell_length_c   11.82465800
_cell_angle_alpha   90.00000000
_cell_angle_beta   90.00298800
_cell_angle_gamma   90.00000000
_symmetry_Int_Tables_number   1
_chemical_formula_structural   CuH12C21NO8
_chemical_formula_sum   'Cu2 H24 C42 N2 O16'
_cell_volume   4097.83562932
_cell_formula_units_Z   2
loop_
 _symmetry_equiv_pos_site_id
 _symmetry_equiv_pos_as_xyz
  1  'x, y, z'
loop_
 _atom_site_type_symbol
 _atom_site_label
 _atom_site_symmetry_multiplicity
 _atom_site_fract_x
 _atom_site_fract_y
 _atom_site_fract_z
 _atom_site_occupancy
  Cu  Cu1  1  0.50025400  0.57458200  0.49957100  1
  Cu  Cu2  1  0.49975900  0.42517600  0.50056900  1
  H  H1  1  0.84331700  0.41967800  0.36713900  1
  H  H2  1  0.15765300  0.57307000  0.35491900  1
  H  H3  1  0.15678600  0.42823200  0.64198400  1
  H  H4  1  0.84229100  0.57886700  0.63624400  1
  H  H5  1  0.42464400  0.69337200  0.37200900  1
  H  H6  1  0.57616400  0.30633400  0.62677000  1
  H  H7  1  0.57417400  0.69313600  0.63006100  1
  H  H8  1  0.42501200  0.30667600  0.37125100  1
  H  H9  1  0.42321900  0.82924000  0.37020800  1
  H  H10  1  0.57745200  0.17052100  0.62870400  1
  H  H11  1  0.57420000  0.82912900  0.63435800  1
  H  H12  1  0.42505900  0.17070100  0.36666400  1
  H  H13  1  0.60936400  0.93165200  0.52132600  1
  H  H14  1  0.39058400  0.06803700  0.47872900  1
  H  H15  1  0.38978000  0.93293200  0.48057200  1
  H  H16  1  0.61022400  0.06670900  0.51922000  1
  H  H17  1  0.71159400  0.35763800  0.38891400  1
  H  H18  1  0.28883900  0.63583900  0.37018700  1
  H  H19  1  0.28813600  0.36564700  0.62852400  1
  H  H20  1  0.71113400  0.64025900  0.61404400  1
  H  H21  1  0.93572800  0.65748300  0.56232500  1
  H  H22  1  0.07328200  0.35414900  0.41951900  1
  H  H23  1  0.06322900  0.65427900  0.41859300  1
  H  H24  1  0.92797200  0.35795100  0.59672300  1
  C  C1  1  0.36724500  0.50065200  0.50000600  1
  C  C2  1  0.63281200  0.49910800  0.50021200  1
  C  C3  1  0.50010100  0.49955200  0.28298000  1
  C  C4  1  0.49991600  0.50020800  0.71707100  1
  C  C5  1  0.50008000  0.49938300  0.16162700  1
  C  C6  1  0.49992900  0.50037300  0.83841900  1
  C  C7  1  0.50003700  0.49963900  0.05972500  1
  C  C8  1  0.49997400  0.50011200  0.94031900  1
  C  C9  1  0.74469500  0.45270100  0.42851500  1
  C  C10  1  0.25580500  0.54323500  0.42152600  1
  C  C11  1  0.25537700  0.45838800  0.57723800  1
  C  C12  1  0.74419600  0.54533000  0.57368800  1
  C  C13  1  0.81596000  0.45407500  0.42743800  1
  C  C14  1  0.18455500  0.54209600  0.41978700  1
  C  C15  1  0.18412300  0.45952400  0.57789800  1
  C  C16  1  0.81543200  0.54455100  0.57530400  1
  C  C17  1  0.85194200  0.49966300  0.50125900  1
  C  C18  1  0.14809700  0.50089900  0.49867900  1
  C  C19  1  0.70847400  0.49898000  0.50082500  1
  C  C20  1  0.29157100  0.50085400  0.49970000  1
  C  C21  1  0.96408200  0.56703000  0.49602700  1
  C  C22  1  0.03589700  0.43405400  0.50231100  1
  C  C23  1  0.03544600  0.56734000  0.49545900  1
  C  C24  1  0.96465300  0.43378800  0.50482000  1
  C  C25  1  0.07197700  0.50080100  0.49836700  1
  C  C26  1  0.92806300  0.50021200  0.50105600  1
  C  C27  1  0.45780500  0.72365000  0.42947400  1
  C  C28  1  0.54261300  0.27608000  0.56988700  1
  C  C29  1  0.54114800  0.72355900  0.57254800  1
  C  C30  1  0.45841000  0.27623000  0.42817800  1
  C  C31  1  0.45655100  0.80064300  0.42936300  1
  C  C32  1  0.54381400  0.19909100  0.57000100  1
  C  C33  1  0.54149500  0.80056500  0.57424200  1
  C  C34  1  0.45808900  0.19922000  0.42636000  1
  C  C35  1  0.49914200  0.84005000  0.50165900  1
  C  C36  1  0.50083200  0.15969200  0.49830400  1
  C  C37  1  0.56081500  0.96100300  0.51354400  1
  C  C38  1  0.43914800  0.03870200  0.48645800  1
  C  C39  1  0.43867500  0.96169500  0.48760000  1
  C  C40  1  0.56130100  0.03800200  0.51230200  1
  C  C41  1  0.50046600  0.07751700  0.49877100  1
  C  C42  1  0.49950600  0.92220400  0.50117300  1
  N  N1  1  0.50074800  0.68629700  0.49898800  1
  N  N2  1  0.49924400  0.31346000  0.50112800  1
  O  O1  1  0.39980500  0.56468800  0.49403000  1
  O  O2  1  0.60026300  0.43498400  0.50297600  1
  O  O3  1  0.60063500  0.56344200  0.49731000  1
  O  O4  1  0.39942500  0.43638900  0.50598100  1
  O  O5  1  0.49875700  0.56392600  0.33523800  1
  O  O6  1  0.50303000  0.43587700  0.66482600  1
  O  O7  1  0.49686900  0.56427800  0.66392400  1
  O  O8  1  0.50137600  0.43544100  0.33613900  1
  O  O9  1  0.71028900  0.40784000  0.35388700  1
  O  O10  1  0.29065500  0.58381100  0.34199500  1
  O  O11  1  0.28978700  0.41760300  0.65704300  1
  O  O12  1  0.70930500  0.58981800  0.64821100  1
  O  O13  1  0.92951600  0.63340100  0.48762200  1
  O  O14  1  0.07026600  0.36738100  0.50067200  1
  O  O15  1  0.06949800  0.63424600  0.49597800  1
  O  O16  1  0.93080700  0.36708500  0.51426800  1
