# generated using pymatgen
data_Fe2H19C40N3O16
_symmetry_space_group_name_H-M   'P 1'
_cell_length_a   13.54069800
_cell_length_b   14.29924800
_cell_length_c   11.48431300
_cell_angle_alpha   94.26745800
_cell_angle_beta   85.86059000
_cell_angle_gamma   108.24997800
_symmetry_Int_Tables_number   1
_chemical_formula_structural   Fe2H19C40N3O16
_chemical_formula_sum   'Fe2 H19 C40 N3 O16'
_cell_volume   2103.10240867
_cell_formula_units_Z   1
loop_
 _symmetry_equiv_pos_site_id
 _symmetry_equiv_pos_as_xyz
  1  'x, y, z'
loop_
 _atom_site_type_symbol
 _atom_site_label
 _atom_site_symmetry_multiplicity
 _atom_site_fract_x
 _atom_site_fract_y
 _atom_site_fract_z
 _atom_site_occupancy
  Fe  Fe1  1  0.49222400  0.97941000  0.24461300  1
  Fe  Fe2  1  0.47829700  0.98126000  0.74519800  1
  H  H1  1  0.17573000  0.99646000  0.25280500  1
  H  H2  1  0.01131200  0.00787300  0.20205800  1
  H  H3  1  0.09650100  0.96725200  0.83967300  1
  H  H4  1  0.99551000  0.05653400  0.81813300  1
  H  H5  1  0.85543600  0.94098400  0.14356200  1
  H  H6  1  0.47195300  0.61795600  0.26120200  1
  H  H7  1  0.48461300  0.67105100  0.68719700  1
  H  H8  1  0.48229300  0.50603000  0.70438700  1
  H  H9  1  0.48310700  0.34302600  0.72339200  1
  H  H10  1  0.48045200  0.27882600  0.29837800  1
  H  H11  1  0.30101000  0.39049600  0.25539100  1
  H  H12  1  0.44256400  0.39763200  0.91718800  1
  H  H13  1  0.63150000  0.48931600  0.20495900  1
  H  H14  1  0.80339100  0.90628300  0.65821100  1
  H  H15  1  0.93208400  0.99240200  0.63387800  1
  H  H16  1  0.82561500  0.99795600  0.55137700  1
  H  H17  1  0.91105400  0.19216900  0.78429100  1
  H  H18  1  0.81742600  0.18671400  0.67836500  1
  H  H19  1  0.93536700  0.15775700  0.63259500  1
  C  C1  1  0.15813400  0.98945900  0.16164100  1
  C  C2  1  0.06371900  0.99502000  0.13197500  1
  C  C3  1  0.03993600  0.98831800  0.01578600  1
  C  C4  1  0.11446700  0.97733100  0.93051700  1
  C  C5  1  0.21262200  0.97853100  0.95945500  1
  C  C6  1  0.23348400  0.98313400  0.07714400  1
  C  C7  1  0.92813700  0.02827000  0.87626000  1
  C  C8  1  0.83197000  0.02625500  0.84106000  1
  C  C9  1  0.74448700  0.99539600  0.91587600  1
  C  C10  1  0.75532800  0.97255800  0.02914200  1
  C  C11  1  0.85050000  0.96705900  0.05930000  1
  C  C12  1  0.93778300  0.99388200  0.98308500  1
  C  C13  1  0.67063100  0.96052300  0.12113800  1
  C  C14  1  0.47856800  0.79832300  0.32688700  1
  C  C15  1  0.33614400  0.99235800  0.11727800  1
  C  C16  1  0.47201400  0.12483600  0.40099900  1
  C  C17  1  0.49719800  0.83259000  0.58803000  1
  C  C18  1  0.64129400  0.97670300  0.86965700  1
  C  C19  1  0.47916400  0.15849500  0.66161700  1
  C  C20  1  0.29140900  0.97623400  0.86384500  1
  C  C21  1  0.47485700  0.62862000  0.35482700  1
  C  C22  1  0.47944000  0.72088200  0.40526900  1
  C  C23  1  0.48361500  0.73604600  0.52667300  1
  C  C24  1  0.48073900  0.65869600  0.59340100  1
  C  C25  1  0.47902400  0.56796200  0.54180700  1
  C  C26  1  0.47647600  0.55235800  0.42211600  1
  C  C27  1  0.48087300  0.49331700  0.61047600  1
  C  C28  1  0.48133400  0.40276300  0.55999100  1
  C  C29  1  0.48013700  0.38661300  0.44029400  1
  C  C30  1  0.47604000  0.46090300  0.37092700  1
  C  C31  1  0.48195800  0.32828300  0.62998800  1
  C  C32  1  0.47977900  0.23580700  0.58211700  1
  C  C33  1  0.48039900  0.22045500  0.46082600  1
  C  C34  1  0.48173300  0.29554000  0.39153000  1
  C  C35  1  0.37067100  0.40576600  0.19842600  1
  C  C36  1  0.44970800  0.40984700  0.01046900  1
  C  C37  1  0.55497900  0.46087800  0.17033600  1
  C  C38  1  0.46731200  0.44165900  0.24459500  1
  C  C39  1  0.84754200  0.98327300  0.63782600  1
  C  C40  1  0.87461800  0.15200100  0.70418800  1
  N  N1  1  0.36331000  0.39045100  0.08203300  1
  N  N2  1  0.54481500  0.44471800  0.05431300  1
  N  N3  1  0.82163900  0.05003400  0.72609100  1
  O  O1  1  0.59036300  0.99073800  0.10620700  1
  O  O2  1  0.47432400  0.77857700  0.21356400  1
  O  O3  1  0.68239700  0.93272600  0.22416700  1
  O  O4  1  0.48370100  0.88751400  0.36835900  1
  O  O5  1  0.34798400  0.92772000  0.18614900  1
  O  O6  1  0.41328500  0.07337100  0.09911900  1
  O  O7  1  0.54188100  0.11630000  0.31893400  1
  O  O8  1  0.38679700  0.05063600  0.41720700  1
  O  O9  1  0.43093900  0.84314600  0.67350000  1
  O  O10  1  0.58196700  0.90600400  0.56653100  1
  O  O11  1  0.62358600  0.03784800  0.80006400  1
  O  O12  1  0.56785200  0.89374200  0.89069700  1
  O  O13  1  0.27174100  0.98464500  0.75556300  1
  O  O14  1  0.48113800  0.07075000  0.62062500  1
  O  O15  1  0.38256600  0.96924100  0.88585300  1
  O  O16  1  0.47733600  0.17772100  0.77513500  1
