# generated using pymatgen
data_ZnH14C24NO4
_symmetry_space_group_name_H-M   'P 1'
_cell_length_a   9.13865200
_cell_length_b   13.64773400
_cell_length_c   13.79578500
_cell_angle_alpha   93.49454000
_cell_angle_beta   104.21237200
_cell_angle_gamma   75.63181100
_symmetry_Int_Tables_number   1
_chemical_formula_structural   ZnH14C24NO4
_chemical_formula_sum   'Zn2 H28 C48 N2 O8'
_cell_volume   1615.79943144
_cell_formula_units_Z   2
loop_
 _symmetry_equiv_pos_site_id
 _symmetry_equiv_pos_as_xyz
  1  'x, y, z'
loop_
 _atom_site_type_symbol
 _atom_site_label
 _atom_site_symmetry_multiplicity
 _atom_site_fract_x
 _atom_site_fract_y
 _atom_site_fract_z
 _atom_site_occupancy
  Zn  Zn1  1  0.66252000  0.49400500  0.49944300  1
  Zn  Zn2  1  0.32702400  0.49760100  0.48629500  1
  H  H1  1  0.14416300  0.58760800  0.18586700  1
  H  H2  1  0.13233000  0.63042600  0.85623000  1
  H  H3  1  0.07011800  0.62448700  0.00970600  1
  H  H4  1  0.61096800  0.46358100  0.17172900  1
  H  H5  1  0.84187800  0.40626400  0.79599900  1
  H  H6  1  0.75934400  0.41421600  0.07971600  1
  H  H7  1  0.92970600  0.37165800  0.97175300  1
  H  H8  1  0.30918900  0.59252200  0.75154700  1
  H  H9  1  0.27337800  0.79886300  0.63895400  1
  H  H10  1  0.33140000  0.12597400  0.67887900  1
  H  H11  1  0.26244200  0.97428600  0.68849600  1
  H  H12  1  0.53561300  0.82100000  0.43201300  1
  H  H13  1  0.72125700  0.19799200  0.35108200  1
  H  H14  1  0.64051100  0.91119500  0.37056700  1
  H  H15  1  0.75185300  0.02126900  0.30079200  1
  H  H16  1  0.43586800  0.23545700  0.60393900  1
  H  H17  1  0.07094300  0.84659900  0.21905600  1
  H  H18  1  0.29567100  0.75153100  0.33412400  1
  H  H19  1  0.11733000  0.77054300  0.47143500  1
  H  H20  1  0.79697100  0.68852100  0.32138300  1
  H  H21  1  0.81222600  0.82207600  0.21685500  1
  H  H22  1  0.92232600  0.50643400  0.31568000  1
  H  H23  1  0.06517500  0.48838400  0.67854600  1
  H  H24  1  0.18235100  0.31158400  0.68393300  1
  H  H25  1  0.15575300  0.18575500  0.79242300  1
  H  H26  1  0.89523800  0.16038700  0.78025300  1
  H  H27  1  0.68114600  0.25220300  0.65681700  1
  H  H28  1  0.87314300  0.22146400  0.52575200  1
  C  C1  1  0.56868400  0.29724700  0.47981700  1
  C  C2  1  0.56159200  0.48764000  0.68935100  1
  C  C3  1  0.42129400  0.69383500  0.50632200  1
  C  C4  1  0.42720500  0.50647200  0.29726900  1
  C  C5  1  0.18962100  0.58761900  0.04342100  1
  C  C6  1  0.38520700  0.52294900  0.18874600  1
  C  C7  1  0.75832700  0.42979100  0.84119400  1
  C  C8  1  0.80953700  0.40959700  0.94124900  1
  C  C9  1  0.70928100  0.43526700  0.00281400  1
  C  C10  1  0.55461900  0.48564600  0.96556800  1
  C  C11  1  0.50262200  0.50756900  0.86297900  1
  C  C12  1  0.45078300  0.51447500  0.02837100  1
  C  C13  1  0.29761400  0.56265500  0.98642300  1
  C  C14  1  0.25032800  0.58869600  0.88723200  1
  C  C15  1  0.35202300  0.56393600  0.82662100  1
  C  C16  1  0.49426600  0.49728900  0.13186300  1
  C  C17  1  0.23214200  0.56633900  0.14350500  1
  C  C18  1  0.60437500  0.47591000  0.79958700  1
  C  C19  1  0.32108900  0.94242900  0.63051500  1
  C  C20  1  0.40083500  0.80243900  0.52901100  1
  C  C21  1  0.67277800  0.14926300  0.38646100  1
  C  C22  1  0.68865700  0.05011900  0.35735300  1
  C  C23  1  0.62283300  0.98745500  0.39815800  1
  C  C24  1  0.53925800  0.02291300  0.47041700  1
  C  C25  1  0.52489200  0.12403000  0.50052100  1
  C  C26  1  0.46930300  0.96044600  0.51313500  1
  C  C27  1  0.39159800  0.00002800  0.58647500  1
  C  C28  1  0.38500800  0.09756900  0.61831500  1
  C  C29  1  0.44716800  0.15968400  0.57493500  1
  C  C30  1  0.47534200  0.85922600  0.48648500  1
  C  C31  1  0.32529400  0.84403900  0.60192400  1
  C  C32  1  0.59261700  0.18736300  0.45837800  1
  C  C33  1  0.18355600  0.75109500  0.34636600  1
  C  C34  1  0.16380300  0.70613300  0.42942400  1
  C  C35  1  0.03646300  0.66168900  0.40207100  1
  C  C36  1  0.90551200  0.71070300  0.33226000  1
  C  C37  1  0.91324400  0.78551800  0.27300300  1
  C  C38  1  0.05638400  0.80131500  0.27601900  1
  C  C39  1  0.95403200  0.50218800  0.39640800  1
  C  C40  1  0.96804700  0.41899500  0.54185000  1
  C  C41  1  0.03523500  0.49147700  0.59779000  1
  C  C42  1  0.02159400  0.57440300  0.45239700  1
  C  C43  1  0.07390400  0.28873000  0.66934700  1
  C  C44  1  0.06014100  0.21787600  0.73082500  1
  C  C45  1  0.91637400  0.20115200  0.72233500  1
  C  C46  1  0.79527500  0.24773600  0.64646900  1
  C  C47  1  0.82260300  0.28805800  0.56352900  1
  C  C48  1  0.94923900  0.33319900  0.59285000  1
  N  N1  1  0.92904100  0.42530700  0.44162300  1
  N  N2  1  0.06050900  0.56814600  0.55254700  1
  O  O1  1  0.68599800  0.34222700  0.49646800  1
  O  O2  1  0.42505400  0.34831700  0.47499600  1
  O  O3  1  0.67593400  0.48525700  0.64730900  1
  O  O4  1  0.41884600  0.49190900  0.63618600  1
  O  O5  1  0.56413500  0.64352000  0.50803400  1
  O  O6  1  0.30366600  0.64938500  0.49146100  1
  O  O7  1  0.57188400  0.49741700  0.34937900  1
  O  O8  1  0.31235700  0.50910200  0.33866600  1
