# generated using pymatgen
data_Zn2H23C31(NO2)5
_symmetry_space_group_name_H-M   'P 1'
_cell_length_a   8.52955600
_cell_length_b   10.69299500
_cell_length_c   14.24963200
_cell_angle_alpha   97.80540100
_cell_angle_beta   90.10277700
_cell_angle_gamma   90.00841000
_symmetry_Int_Tables_number   1
_chemical_formula_structural   Zn2H23C31(NO2)5
_chemical_formula_sum   'Zn2 H23 C31 N5 O10'
_cell_volume   1287.61559909
_cell_formula_units_Z   1
loop_
 _symmetry_equiv_pos_site_id
 _symmetry_equiv_pos_as_xyz
  1  'x, y, z'
loop_
 _atom_site_type_symbol
 _atom_site_label
 _atom_site_symmetry_multiplicity
 _atom_site_fract_x
 _atom_site_fract_y
 _atom_site_fract_z
 _atom_site_occupancy
  Zn  Zn1  1  0.48760600  0.49909500  0.10393300  1
  Zn  Zn2  1  0.48752000  0.51189100  0.89579400  1
  H  H1  1  0.59895600  0.90206700  0.01520100  1
  H  H2  1  0.98389300  0.59830700  0.05691400  1
  H  H3  1  0.98410100  0.41345700  0.94309500  1
  H  H4  1  0.24229100  0.90877300  0.99243000  1
  H  H5  1  0.24271100  0.10179100  0.00559300  1
  H  H6  1  0.63066500  0.67612800  0.57768700  1
  H  H7  1  0.55995700  0.69927600  0.42593200  1
  H  H8  1  0.66676400  0.35109100  0.40294400  1
  H  H9  1  0.73269900  0.45769800  0.58926900  1
  H  H10  1  0.59939700  0.32966300  0.55473900  1
  H  H11  1  0.24453100  0.45811500  0.40972400  1
  H  H12  1  0.24309100  0.52652600  0.56489300  1
  H  H13  1  0.35579700  0.66979600  0.44615900  1
  H  H14  1  0.42543600  0.70877400  0.60225500  1
  H  H15  1  0.30647600  0.37080400  0.58086500  1
  H  H16  1  0.38974300  0.23366900  0.46362400  1
  H  H17  1  0.34564500  0.05348800  0.36396200  1
  H  H18  1  0.36547600  0.06999900  0.24011000  1
  H  H19  1  0.17358900  0.07697100  0.29417700  1
  H  H20  1  0.87401200  0.48808800  0.46556200  1
  H  H21  1  0.98548800  0.38526700  0.33638400  1
  H  H22  1  0.04513500  0.52319100  0.28407500  1
  H  H23  1  0.90481600  0.41327200  0.22431900  1
  C  C1  1  0.98574900  0.69628100  0.04603400  1
  C  C2  1  0.12625000  0.75301000  0.03159200  1
  C  C3  1  0.12937200  0.87396700  0.00985600  1
  C  C4  1  0.84700400  0.75713900  0.03317600  1
  C  C5  1  0.84911600  0.88219200  0.01620600  1
  C  C6  1  0.99127800  0.94269000  0.00752400  1
  C  C7  1  0.99131300  0.06862700  0.99186200  1
  C  C8  1  0.12956700  0.13693900  0.98879700  1
  C  C9  1  0.12632600  0.25811700  0.96745700  1
  C  C10  1  0.71073200  0.94737200  0.00814300  1
  C  C11  1  0.84940000  0.13005200  0.98416300  1
  C  C12  1  0.84742600  0.25476400  0.96725500  1
  C  C13  1  0.98587100  0.31543000  0.95383000  1
  C  C14  1  0.26751000  0.67597500  0.02190200  1
  C  C15  1  0.26760900  0.33493500  0.97724600  1
  C  C16  1  0.70539900  0.33210600  0.97738000  1
  C  C17  1  0.70562200  0.67878100  0.02289100  1
  C  C18  1  0.47689500  0.63672100  0.45686000  1
  C  C19  1  0.64491100  0.44511200  0.44410800  1
  C  C20  1  0.62496700  0.42965300  0.54811100  1
  C  C21  1  0.49294300  0.50065100  0.41073600  1
  C  C22  1  0.50913300  0.64274100  0.56189000  1
  C  C23  1  0.49008900  0.51156200  0.58902400  1
  C  C24  1  0.33756300  0.45581200  0.54823000  1
  C  C25  1  0.35391600  0.42650600  0.44131700  1
  C  C26  1  0.48865200  0.51734600  0.69217700  1
  C  C27  1  0.49000800  0.49414800  0.30759500  1
  C  C28  1  0.31419100  0.24177900  0.32928500  1
  C  C29  1  0.29898000  0.10194400  0.30580900  1
  C  C30  1  0.81462000  0.53476400  0.34278500  1
  C  C31  1  0.94591300  0.45947800  0.29443800  1
  N  N1  1  0.71333700  0.06899000  0.99302300  1
  N  N2  1  0.48766000  0.52000900  0.77361400  1
  N  N3  1  0.48818600  0.49100600  0.22611800  1
  N  N4  1  0.37767000  0.29278200  0.41288700  1
  N  N5  1  0.77927500  0.52485500  0.43393600  1
  O  O1  1  0.31865500  0.63960300  0.93576800  1
  O  O2  1  0.32285600  0.63268400  0.09724300  1
  O  O3  1  0.31880100  0.37130500  0.06346300  1
  O  O4  1  0.32263600  0.37828600  0.90198200  1
  O  O5  1  0.65603100  0.37094400  0.06359600  1
  O  O6  1  0.65147900  0.37761400  0.90260400  1
  O  O7  1  0.65593100  0.64008800  0.93663500  1
  O  O8  1  0.65176100  0.63335900  0.09760300  1
  O  O9  1  0.27198100  0.30882500  0.27128600  1
  O  O10  1  0.75450400  0.61716800  0.30350300  1
