# generated using pymatgen
data_Zn3H41C36NO12
_symmetry_space_group_name_H-M   'P 1'
_cell_length_a   18.52274800
_cell_length_b   18.68391600
_cell_length_c   18.68562100
_cell_angle_alpha   109.64110600
_cell_angle_beta   109.29257900
_cell_angle_gamma   109.28807300
_symmetry_Int_Tables_number   1
_chemical_formula_structural   Zn3H41C36NO12
_chemical_formula_sum   'Zn6 H82 C72 N2 O24'
_cell_volume   4989.75483105
_cell_formula_units_Z   2
loop_
 _symmetry_equiv_pos_site_id
 _symmetry_equiv_pos_as_xyz
  1  'x, y, z'
loop_
 _atom_site_type_symbol
 _atom_site_label
 _atom_site_symmetry_multiplicity
 _atom_site_fract_x
 _atom_site_fract_y
 _atom_site_fract_z
 _atom_site_occupancy
  Zn  Zn1  1  0.50036900  0.57226500  0.57425400  1
  Zn  Zn2  1  0.50063600  0.43322500  0.43258000  1
  Zn  Zn3  1  0.07110000  0.00241200  0.57277600  1
  Zn  Zn4  1  0.92952300  0.00286700  0.43369800  1
  Zn  Zn5  1  0.07188700  0.57112400  0.00198800  1
  Zn  Zn6  1  0.92996400  0.43449900  0.00425800  1
  H  H1  1  0.13112600  0.39034600  0.83765200  1
  H  H2  1  0.86266300  0.61081500  0.14882100  1
  H  H3  1  0.12036500  0.29084900  0.71994000  1
  H  H4  1  0.86002500  0.72723000  0.23412000  1
  H  H5  1  0.02051700  0.28125200  0.64699600  1
  H  H6  1  0.91665000  0.71400700  0.32386000  1
  H  H7  1  0.27142000  0.39537100  0.57638200  1
  H  H8  1  0.72851700  0.60984300  0.42915800  1
  H  H9  1  0.36323800  0.39031000  0.64470700  1
  H  H10  1  0.63665000  0.61547500  0.36175000  1
  H  H11  1  0.27345900  0.27497300  0.64470400  1
  H  H12  1  0.72629800  0.73099000  0.36183100  1
  H  H13  1  0.18560300  0.29501000  0.59635800  1
  H  H14  1  0.81395600  0.71023300  0.40896300  1
  H  H15  1  0.20720700  0.31780500  0.41358700  1
  H  H16  1  0.79357500  0.68671500  0.59206700  1
  H  H17  1  0.10717400  0.23123500  0.43375600  1
  H  H18  1  0.89326500  0.77307300  0.57142700  1
  H  H19  1  0.35100100  0.21837800  0.45634300  1
  H  H20  1  0.65068300  0.78745200  0.55161600  1
  H  H21  1  0.39603700  0.27464000  0.57352100  1
  H  H22  1  0.60497600  0.73162800  0.43432600  1
  H  H23  1  0.28846300  0.15488300  0.55183600  1
  H  H24  1  0.71265300  0.85138400  0.45611500  1
  H  H25  1  0.23147900  0.11015400  0.43476000  1
  H  H26  1  0.77025500  0.89546600  0.57305900  1
  H  H27  1  0.22860400  0.23159100  0.36447300  1
  H  H28  1  0.77297900  0.77327500  0.64214500  1
  H  H29  1  0.11330000  0.14094500  0.36472100  1
  H  H30  1  0.88815900  0.86360700  0.64150000  1
  H  H31  1  0.73869600  0.63592900  0.78872700  1
  H  H32  1  0.26210500  0.36978900  0.21831300  1
  H  H33  1  0.80165100  0.62536500  0.73375900  1
  H  H34  1  0.19978300  0.38086500  0.27390100  1
  H  H35  1  0.89744000  0.63624400  0.85439000  1
  H  H36  1  0.10360900  0.37106800  0.15476800  1
  H  H37  1  0.82069100  0.61985900  0.89481700  1
  H  H38  1  0.17832500  0.38410800  0.11171200  1
  H  H39  1  0.63103000  0.49946200  0.77233000  1
  H  H40  1  0.37051900  0.50511500  0.23444000  1
  H  H41  1  0.71966900  0.47164300  0.86050800  1
  H  H42  1  0.28141900  0.53137900  0.14483600  1
  H  H43  1  0.68155100  0.38199900  0.60824300  1
  H  H44  1  0.32098600  0.62452600  0.39857200  1
  H  H45  1  0.75618700  0.47904200  0.61522600  1
  H  H46  1  0.24535400  0.52794600  0.39144200  1
  H  H47  1  0.87146300  0.50385500  0.73094800  1
  H  H48  1  0.13095800  0.50494800  0.27637400  1
  H  H49  1  0.80233900  0.39548000  0.70800400  1
  H  H50  1  0.20161300  0.61236200  0.29840300  1
  H  H51  1  0.59365800  0.39343000  0.68423700  1
  H  H52  1  0.40789000  0.61162500  0.32174100  1
  H  H53  1  0.69975600  0.37767500  0.76888300  1
  H  H54  1  0.30244500  0.62688600  0.23564800  1
  H  H55  1  0.85943200  0.22482300  0.75548800  1
  H  H56  1  0.14208600  0.78348900  0.26761300  1
  H  H57  1  0.86892900  0.11245600  0.66946300  1
  H  H58  1  0.14274200  0.87355400  0.38400400  1
  H  H59  1  0.87280200  0.16577200  0.60504400  1
  H  H60  1  0.08124200  0.78288100  0.39399300  1
  H  H61  1  0.89064700  0.28676800  0.70516400  1
  H  H62  1  0.10095500  0.69901000  0.29223200  1
  H  H63  1  0.04245500  0.39339800  0.76211700  1
  H  H64  1  0.94386600  0.61770300  0.24141200  1
  H  H65  1  0.11159500  0.21260000  0.80464000  1
  H  H66  1  0.94600900  0.85311900  0.21684000  1
  H  H67  1  0.00608800  0.12686400  0.77316300  1
  H  H68  1  0.06325200  0.89411000  0.26476200  1
  H  H69  1  0.10274400  0.30741400  0.90853500  1
  H  H70  1  0.90907100  0.72147100  0.11244700  1
  H  H71  1  0.91665100  0.16577300  0.83172600  1
  H  H72  1  0.90593300  0.17998800  0.96892700  1
  H  H73  1  0.96471500  0.15684800  0.09231200  1
  H  H74  1  0.10916400  0.16501600  0.14356000  1
  H  H75  1  0.19308000  0.19286900  0.06873500  1
  H  H76  1  0.13641700  0.21505600  0.94640400  1
  H  H77  1  0.09774400  0.81332600  0.16076000  1
  H  H78  1  0.14996500  0.93251400  0.14682500  1
  H  H79  1  0.12221500  0.02151200  0.08300500  1
  H  H80  1  0.97038500  0.97987500  0.98547200  1
  H  H81  1  0.84609700  0.84806200  0.95200800  1
  H  H82  1  0.87152000  0.75758300  0.01318400  1
  C  C1  1  0.62365500  0.50359000  0.62442000  1
  C  C2  1  0.37746500  0.50201000  0.38241700  1
  C  C3  1  0.37947300  0.38219300  0.50515900  1
  C  C4  1  0.62147800  0.62327500  0.50163600  1
  C  C5  1  0.06159200  0.35088300  0.78393000  1
  C  C6  1  0.92748500  0.65519600  0.20982900  1
  C  C7  1  0.90875900  0.24958400  0.73628000  1
  C  C8  1  0.08726800  0.74617000  0.27494100  1
  C  C9  1  0.00019700  0.19140500  0.69610800  1
  C  C10  1  0.00068700  0.81443900  0.31015700  1
  C  C11  1  0.05366300  0.27962200  0.70741300  1
  C  C12  1  0.92048300  0.72673900  0.27101300  1
  C  C13  1  0.29894400  0.35203700  0.58321000  1
  C  C14  1  0.70117400  0.65344600  0.42295000  1
  C  C15  1  0.23623000  0.27973300  0.58791700  1
  C  C16  1  0.76373900  0.72578300  0.41817400  1
  C  C17  1  0.22353700  0.26798000  0.42156900  1
  C  C18  1  0.77752400  0.73687400  0.58466100  1
  C  C19  1  0.33652600  0.24435900  0.50940700  1
  C  C20  1  0.66467700  0.76149600  0.49815500  1
  C  C21  1  0.31032700  0.31229000  0.50492200  1
  C  C22  1  0.69050800  0.69313500  0.50176700  1
  C  C23  1  0.19235100  0.19377000  0.50429400  1
  C  C24  1  0.80832000  0.81154300  0.50221300  1
  C  C25  1  0.15140500  0.20478300  0.42637100  1
  C  C26  1  0.84951000  0.79992600  0.57961500  1
  C  C27  1  0.26152800  0.16907100  0.49909100  1
  C  C28  1  0.73969000  0.83672400  0.50843300  1
  C  C29  1  0.76587600  0.59553700  0.76248900  1
  C  C30  1  0.23519700  0.41038200  0.24475200  1
  C  C31  1  0.82912500  0.59406400  0.83726400  1
  C  C32  1  0.17159700  0.41171600  0.17014200  1
  C  C33  1  0.65199100  0.45865700  0.73526500  1
  C  C34  1  0.34954400  0.54630000  0.27103000  1
  C  C35  1  0.73208500  0.45226900  0.65260000  1
  C  C36  1  0.26994300  0.55442900  0.35414700  1
  C  C37  1  0.69289000  0.50252100  0.69290100  1
  C  C38  1  0.30852700  0.50331400  0.31389500  1
  C  C39  1  0.80948100  0.50066200  0.81029600  1
  C  C40  1  0.19230700  0.50521500  0.19621800  1
  C  C41  1  0.71907800  0.44798900  0.79722300  1
  C  C42  1  0.28258500  0.55648900  0.20833900  1
  C  C43  1  0.80896400  0.46100400  0.72467800  1
  C  C44  1  0.19368300  0.54644300  0.28207700  1
  C  C45  1  0.00144100  0.30966500  0.81467300  1
  C  C46  1  0.99938800  0.69641200  0.19064900  1
  C  C47  1  0.00043200  0.12245200  0.62668500  1
  C  C48  1  0.00019800  0.88289800  0.37978100  1
  C  C49  1  0.12309500  0.12440900  0.50449800  1
  C  C50  1  0.87752800  0.88085500  0.50196100  1
  C  C51  1  0.99873200  0.62553500  0.12167400  1
  C  C52  1  0.00253600  0.38026100  0.88397900  1
  C  C53  1  0.87823100  0.49998900  0.87968900  1
  C  C54  1  0.12361800  0.50569100  0.12658700  1
  C  C55  1  0.90649600  0.17329900  0.67053600  1
  C  C56  1  0.08307600  0.80823800  0.34840900  1
  C  C57  1  0.04116000  0.19286600  0.78215100  1
  C  C58  1  0.99873200  0.83689900  0.23877500  1
  C  C59  1  0.03585400  0.25888400  0.85159900  1
  C  C60  1  0.98014700  0.75825800  0.16072600  1
  C  C61  1  0.01710700  0.20192000  0.95000400  1
  C  C62  1  0.96926800  0.18312300  0.99072000  1
  C  C63  1  0.00224900  0.17026400  0.06019100  1
  C  C64  1  0.08309700  0.17477000  0.08886300  1
  C  C65  1  0.13017500  0.19064000  0.04701600  1
  C  C66  1  0.09768400  0.20410900  0.97779600  1
  C  C67  1  0.01308200  0.83948100  0.08710200  1
  C  C68  1  0.08268400  0.91347500  0.10483900  1
  C  C69  1  0.06735900  0.96397400  0.06887300  1
  C  C70  1  0.98242400  0.94076700  0.01432700  1
  C  C71  1  0.91276800  0.86691100  0.99566300  1
  C  C72  1  0.92773100  0.81616300  0.03143000  1
  N  N1  1  0.97975500  0.21514500  0.87928700  1
  N  N2  1  0.03122400  0.78645600  0.12155700  1
  O  O1  1  0.59237100  0.55475100  0.65004600  1
  O  O2  1  0.40864000  0.45074000  0.35678700  1
  O  O3  1  0.59574100  0.45235700  0.54167200  1
  O  O4  1  0.40530400  0.55318200  0.46516100  1
  O  O5  1  0.40959300  0.46418400  0.56074400  1
  O  O6  1  0.59137800  0.54129300  0.44605100  1
  O  O7  1  0.40697100  0.35878400  0.44948400  1
  O  O8  1  0.59404200  0.64670900  0.55736500  1
  O  O9  1  0.05624700  0.09539800  0.65090100  1
  O  O10  1  0.94368800  0.90920300  0.35562200  1
  O  O11  1  0.94602700  0.09288600  0.54440700  1
  O  O12  1  0.05528200  0.91307900  0.46205900  1
  O  O13  1  0.14829500  0.09764500  0.55988200  1
  O  O14  1  0.85229000  0.90822600  0.44718300  1
  O  O15  1  0.03999000  0.09350700  0.44980300  1
  O  O16  1  0.96064000  0.91115000  0.55606100  1
  O  O17  1  0.05513400  0.64734200  0.09451500  1
  O  O18  1  0.94716100  0.35815600  0.91221400  1
  O  O19  1  0.94325000  0.54387300  0.09288800  1
  O  O20  1  0.05829000  0.46184000  0.91294700  1
  O  O21  1  0.96146700  0.55070200  0.90706500  1
  O  O22  1  0.04041100  0.45537700  0.09954700  1
  O  O23  1  0.85268700  0.44961500  0.91123800  1
  O  O24  1  0.14913100  0.55554600  0.09457500  1
