# generated using pymatgen
data_Cu3H15C34ClO12
_symmetry_space_group_name_H-M   'P 1'
_cell_length_a   28.66880800
_cell_length_b   18.41427700
_cell_length_c   18.36532600
_cell_angle_alpha   90.00000000
_cell_angle_beta   131.05764100
_cell_angle_gamma   90.00000000
_symmetry_Int_Tables_number   1
_chemical_formula_structural   Cu3H15C34ClO12
_chemical_formula_sum   'Cu12 H60 C136 Cl4 O48'
_cell_volume   7310.76165841
_cell_formula_units_Z   4
loop_
 _symmetry_equiv_pos_site_id
 _symmetry_equiv_pos_as_xyz
  1  'x, y, z'
loop_
 _atom_site_type_symbol
 _atom_site_label
 _atom_site_symmetry_multiplicity
 _atom_site_fract_x
 _atom_site_fract_y
 _atom_site_fract_z
 _atom_site_occupancy
  Cu  Cu1  1  0.50000000  0.92581300  0.50000000  1
  Cu  Cu2  1  0.00000000  0.42581300  0.50000000  1
  Cu  Cu3  1  0.50000000  0.06804200  0.50000000  1
  Cu  Cu4  1  0.00000000  0.56804200  0.50000000  1
  Cu  Cu5  1  0.00345200  0.00162300  0.07597100  1
  Cu  Cu6  1  0.99654800  0.00162300  0.92402900  1
  Cu  Cu7  1  0.50345200  0.50162300  0.07597100  1
  Cu  Cu8  1  0.49654800  0.50162300  0.92402900  1
  Cu  Cu9  1  0.56164800  0.00137600  0.06220400  1
  Cu  Cu10  1  0.43835200  0.00137600  0.93779600  1
  Cu  Cu11  1  0.06164800  0.50137600  0.06220400  1
  Cu  Cu12  1  0.93835200  0.50137600  0.93779600  1
  H  H1  1  0.60395900  0.76218500  0.82611200  1
  H  H2  1  0.39604100  0.76218500  0.17388800  1
  H  H3  1  0.10395900  0.26218500  0.82611200  1
  H  H4  1  0.89604100  0.26218500  0.17388800  1
  H  H5  1  0.64952200  0.72095100  0.75729300  1
  H  H6  1  0.35047800  0.72095100  0.24270700  1
  H  H7  1  0.14952200  0.22095100  0.75729300  1
  H  H8  1  0.85047800  0.22095100  0.24270700  1
  H  H9  1  0.70230700  0.80807400  0.73136300  1
  H  H10  1  0.29769200  0.80807400  0.26863600  1
  H  H11  1  0.20230700  0.30807400  0.73136300  1
  H  H12  1  0.79769200  0.30807400  0.26863600  1
  H  H13  1  0.66315000  0.97817200  0.84177000  1
  H  H14  1  0.33685000  0.97817200  0.15822900  1
  H  H15  1  0.16315000  0.47817200  0.84177000  1
  H  H16  1  0.83685000  0.47817200  0.15822900  1
  H  H17  1  0.61083300  0.89077800  0.86833300  1
  H  H18  1  0.38916700  0.89077800  0.13166700  1
  H  H19  1  0.11083300  0.39077800  0.86833300  1
  H  H20  1  0.88916700  0.39077800  0.13166700  1
  H  H21  1  0.68789000  0.08205900  0.61837800  1
  H  H22  1  0.31211000  0.08205900  0.38162200  1
  H  H23  1  0.18789000  0.58205900  0.61837800  1
  H  H24  1  0.81211000  0.58205900  0.38162200  1
  H  H25  1  0.76852100  0.04739400  0.58642100  1
  H  H26  1  0.23147900  0.04739400  0.41357900  1
  H  H27  1  0.26852100  0.54739400  0.58642100  1
  H  H28  1  0.73147900  0.54739400  0.41357900  1
  H  H29  1  0.81004100  0.13797200  0.54395200  1
  H  H30  1  0.18995900  0.13797200  0.45604800  1
  H  H31  1  0.31004100  0.63797200  0.54395200  1
  H  H32  1  0.68995900  0.63797200  0.45604800  1
  H  H33  1  0.86950500  0.24202400  0.65125300  1
  H  H34  1  0.13049500  0.24202400  0.34874600  1
  H  H35  1  0.36950500  0.74202400  0.65125300  1
  H  H36  1  0.63049500  0.74202400  0.34874600  1
  H  H37  1  0.88708000  0.25546500  0.80063400  1
  H  H38  1  0.11292000  0.25546500  0.19936600  1
  H  H39  1  0.38708000  0.75546500  0.80063400  1
  H  H40  1  0.61292000  0.75546500  0.19936600  1
  H  H41  1  0.84717600  0.16388500  0.84509100  1
  H  H42  1  0.15282400  0.16388500  0.15490900  1
  H  H43  1  0.34717600  0.66388500  0.84509100  1
  H  H44  1  0.65282400  0.66388500  0.15490900  1
  H  H45  1  0.87046100  0.88158400  0.14311300  1
  H  H46  1  0.90483400  0.76520300  0.12670300  1
  H  H47  1  0.88364200  0.73667200  0.97661200  1
  H  H48  1  0.82826800  0.82448400  0.84296000  1
  H  H49  1  0.12953900  0.88158400  0.85688700  1
  H  H50  1  0.09516600  0.76520300  0.87329600  1
  H  H51  1  0.11635700  0.73667200  0.02338800  1
  H  H52  1  0.17173200  0.82448400  0.15703900  1
  H  H53  1  0.37046100  0.38158400  0.14311300  1
  H  H54  1  0.40483400  0.26520300  0.12670300  1
  H  H55  1  0.38364200  0.23667200  0.97661200  1
  H  H56  1  0.32826800  0.32448400  0.84296000  1
  H  H57  1  0.62953900  0.38158400  0.85688700  1
  H  H58  1  0.59516600  0.26520300  0.87329600  1
  H  H59  1  0.61635700  0.23667200  0.02338800  1
  H  H60  1  0.67173200  0.32448400  0.15703900  1
  C  C1  1  0.50303200  0.99710100  0.36503600  1
  C  C2  1  0.49696800  0.99710100  0.63496400  1
  C  C3  1  0.00303200  0.49710100  0.36503600  1
  C  C4  1  0.99696800  0.49710100  0.63496400  1
  C  C5  1  0.61722600  0.99666200  0.62472300  1
  C  C6  1  0.38277400  0.99666100  0.37527700  1
  C  C7  1  0.11722600  0.49666200  0.62472300  1
  C  C8  1  0.88277400  0.49666100  0.37527700  1
  C  C9  1  0.65273000  0.77742700  0.77617800  1
  C  C10  1  0.34727000  0.77742700  0.22382100  1
  C  C11  1  0.15273000  0.27742700  0.77617800  1
  C  C12  1  0.84727000  0.27742700  0.22382100  1
  C  C13  1  0.68244700  0.82630800  0.76181800  1
  C  C14  1  0.31755300  0.82630800  0.23818200  1
  C  C15  1  0.18244700  0.32630800  0.76181800  1
  C  C16  1  0.81755300  0.32630800  0.23818200  1
  C  C17  1  0.68670600  0.89847500  0.78600200  1
  C  C18  1  0.31329400  0.89847500  0.21399800  1
  C  C19  1  0.18670600  0.39847500  0.78600200  1
  C  C20  1  0.81329400  0.39847500  0.21399800  1
  C  C21  1  0.66042400  0.92163200  0.82350700  1
  C  C22  1  0.33957600  0.92163200  0.17649300  1
  C  C23  1  0.16042400  0.42163200  0.82350700  1
  C  C24  1  0.83957600  0.42163200  0.17649300  1
  C  C25  1  0.63102200  0.87262500  0.83836400  1
  C  C26  1  0.36897800  0.87262500  0.16163600  1
  C  C27  1  0.13102200  0.37262500  0.83836400  1
  C  C28  1  0.86897800  0.37262500  0.16163600  1
  C  C29  1  0.62716300  0.80053700  0.81470000  1
  C  C30  1  0.37283700  0.80053700  0.18530000  1
  C  C31  1  0.12716300  0.30053700  0.81470000  1
  C  C32  1  0.87283700  0.30053700  0.18530000  1
  C  C33  1  0.78269000  0.95318300  0.83617300  1
  C  C34  1  0.21731000  0.95318300  0.16382700  1
  C  C35  1  0.28269000  0.45318300  0.83617300  1
  C  C36  1  0.71731000  0.45318300  0.16382700  1
  C  C37  1  0.81309900  0.00120000  0.82088400  1
  C  C38  1  0.18690100  0.00120000  0.17911600  1
  C  C39  1  0.31309900  0.50120000  0.82088400  1
  C  C40  1  0.68690100  0.50120000  0.17911600  1
  C  C41  1  0.77829700  0.04695600  0.74101000  1
  C  C42  1  0.22170300  0.04695600  0.25899000  1
  C  C43  1  0.27829700  0.54695600  0.74101000  1
  C  C44  1  0.72170300  0.54695600  0.25899000  1
  C  C45  1  0.71470100  0.04564800  0.67957500  1
  C  C46  1  0.28529900  0.04564800  0.32042400  1
  C  C47  1  0.21470100  0.54564800  0.67957500  1
  C  C48  1  0.78529900  0.54564800  0.32042400  1
  C  C49  1  0.68475100  0.99764600  0.69392600  1
  C  C50  1  0.31524900  0.99764600  0.30607400  1
  C  C51  1  0.18475100  0.49764600  0.69392600  1
  C  C52  1  0.81524900  0.49764600  0.30607400  1
  C  C53  1  0.71856900  0.95033400  0.77125700  1
  C  C54  1  0.28143100  0.95033400  0.22874300  1
  C  C55  1  0.21856900  0.45033400  0.77125700  1
  C  C56  1  0.78143100  0.45033400  0.22874300  1
  C  C57  1  0.79538900  0.09249000  0.63446500  1
  C  C58  1  0.20461100  0.09249000  0.36553500  1
  C  C59  1  0.29538900  0.59249000  0.63446500  1
  C  C60  1  0.70461100  0.59249000  0.36553500  1
  C  C61  1  0.81856800  0.14337500  0.61043700  1
  C  C62  1  0.18143200  0.14337500  0.38956300  1
  C  C63  1  0.31856800  0.64337500  0.61043700  1
  C  C64  1  0.68143200  0.64337500  0.38956300  1
  C  C65  1  0.85189000  0.20165100  0.67054900  1
  C  C66  1  0.14811000  0.20165100  0.32945100  1
  C  C67  1  0.35189000  0.70165100  0.67054900  1
  C  C68  1  0.64811000  0.70165100  0.32945100  1
  C  C69  1  0.86207300  0.20891900  0.75470300  1
  C  C70  1  0.13792700  0.20891900  0.24529700  1
  C  C71  1  0.36207300  0.70891900  0.75470300  1
  C  C72  1  0.63792700  0.70891900  0.24529700  1
  C  C73  1  0.83979200  0.15739900  0.77966800  1
  C  C74  1  0.16020800  0.15739900  0.22033200  1
  C  C75  1  0.33979200  0.65739900  0.77966800  1
  C  C76  1  0.66020800  0.65739900  0.22033200  1
  C  C77  1  0.80662900  0.09879100  0.71973000  1
  C  C78  1  0.19337100  0.09879100  0.28027000  1
  C  C79  1  0.30662900  0.59879100  0.71973000  1
  C  C80  1  0.69337100  0.59879100  0.28027000  1
  C  C81  1  0.50323700  0.99806700  0.28698600  1
  C  C82  1  0.49676300  0.99806700  0.71301400  1
  C  C83  1  0.00323700  0.49806700  0.28698600  1
  C  C84  1  0.99676300  0.49806700  0.71301400  1
  C  C85  1  0.50293100  0.99923500  0.22099000  1
  C  C86  1  0.49706900  0.99923500  0.77901000  1
  C  C87  1  0.00293100  0.49923500  0.22099000  1
  C  C88  1  0.99706900  0.49923500  0.77901000  1
  C  C89  1  0.00000000  0.14095800  0.00000000  1
  C  C90  1  0.50000000  0.64095800  0.00000000  1
  C  C91  1  0.88113700  0.00188300  0.88641900  1
  C  C92  1  0.11886300  0.00188300  0.11358100  1
  C  C93  1  0.38113700  0.50188300  0.88641900  1
  C  C94  1  0.61886300  0.50188300  0.11358100  1
  C  C95  1  0.00000000  0.86222500  0.00000000  1
  C  C96  1  0.50000000  0.36222500  0.00000000  1
  C  C97  1  0.50000000  0.14077500  0.00000000  1
  C  C98  1  0.00000000  0.64077500  0.00000000  1
  C  C99  1  0.50211400  0.00025500  0.14189600  1
  C  C100  1  0.49788600  0.00025500  0.85810400  1
  C  C101  1  0.00211400  0.50025500  0.14189600  1
  C  C102  1  0.99788600  0.50025500  0.85810400  1
  C  C103  1  0.50000000  0.86205000  0.00000000  1
  C  C104  1  0.00000000  0.36205000  0.00000000  1
  C  C105  1  0.00000000  0.21880500  0.00000000  1
  C  C106  1  0.50000000  0.71880500  0.00000000  1
  C  C107  1  0.50000000  0.78420700  0.00000000  1
  C  C108  1  0.00000000  0.28420700  0.00000000  1
  C  C109  1  0.00000000  0.78423900  0.00000000  1
  C  C110  1  0.50000000  0.28423900  0.00000000  1
  C  C111  1  0.50000000  0.21876100  0.00000000  1
  C  C112  1  0.00000000  0.71876100  0.00000000  1
  C  C113  1  0.81738700  0.90211300  0.91729600  1
  C  C114  1  0.82934800  0.91806500  0.00179500  1
  C  C115  1  0.86091300  0.86894900  0.07695400  1
  C  C116  1  0.88029600  0.80376200  0.06785000  1
  C  C117  1  0.86853700  0.78784400  0.98379000  1
  C  C118  1  0.83750400  0.83713100  0.90886600  1
  C  C119  1  0.18261300  0.90211300  0.08270400  1
  C  C120  1  0.17065100  0.91806500  0.99820500  1
  C  C121  1  0.13908700  0.86894900  0.92304500  1
  C  C122  1  0.11970300  0.80376200  0.93214900  1
  C  C123  1  0.13146300  0.78784400  0.01621000  1
  C  C124  1  0.16249600  0.83713100  0.09113400  1
  C  C125  1  0.31738700  0.40211300  0.91729600  1
  C  C126  1  0.32934800  0.41806500  0.00179500  1
  C  C127  1  0.36091300  0.36894900  0.07695400  1
  C  C128  1  0.38029600  0.30376200  0.06785000  1
  C  C129  1  0.36853700  0.28784400  0.98379000  1
  C  C130  1  0.33750400  0.33713100  0.90886600  1
  C  C131  1  0.68261300  0.40211300  0.08270400  1
  C  C132  1  0.67065100  0.41806500  0.99820500  1
  C  C133  1  0.63908700  0.36894900  0.92304500  1
  C  C134  1  0.61970300  0.30376200  0.93214900  1
  C  C135  1  0.63146300  0.28784400  0.01621000  1
  C  C136  1  0.66249600  0.33713100  0.09113400  1
  Cl  Cl1  1  0.80617200  0.00133800  0.01529000  1
  Cl  Cl2  1  0.19382800  0.00133800  0.98470900  1
  Cl  Cl3  1  0.30617200  0.50133800  0.01529000  1
  Cl  Cl4  1  0.69382800  0.50133800  0.98470900  1
  O  O1  1  0.48613700  0.93680900  0.38122900  1
  O  O2  1  0.51386300  0.93680900  0.61877000  1
  O  O3  1  0.98613700  0.43680900  0.38122900  1
  O  O4  1  0.01386300  0.43680900  0.61877000  1
  O  O5  1  0.51873700  0.05712400  0.41573200  1
  O  O6  1  0.48126300  0.05712400  0.58426800  1
  O  O7  1  0.01873700  0.55712400  0.41573200  1
  O  O8  1  0.98126300  0.55712400  0.58426800  1
  O  O9  1  0.58880300  0.93671800  0.57480900  1
  O  O10  1  0.41119700  0.93671800  0.42519000  1
  O  O11  1  0.08880300  0.43671800  0.57480900  1
  O  O12  1  0.91119700  0.43671800  0.42519000  1
  O  O13  1  0.58790800  0.05709400  0.61216600  1
  O  O14  1  0.41209200  0.05709400  0.38783400  1
  O  O15  1  0.08790800  0.55709400  0.61216600  1
  O  O16  1  0.91209200  0.55709400  0.38783400  1
  O  O17  1  0.00041400  0.10717400  0.06318700  1
  O  O18  1  0.99958600  0.10717400  0.93681300  1
  O  O19  1  0.50041400  0.60717400  0.06318700  1
  O  O20  1  0.49958600  0.60717400  0.93681300  1
  O  O21  1  0.91319700  0.99891100  0.97991100  1
  O  O22  1  0.08680300  0.99891100  0.02008900  1
  O  O23  1  0.41319700  0.49891100  0.97991100  1
  O  O24  1  0.58680300  0.49891100  0.02008900  1
  O  O25  1  0.90722700  0.99888900  0.84867300  1
  O  O26  1  0.09277300  0.99888900  0.15132700  1
  O  O27  1  0.40722700  0.49888900  0.84867300  1
  O  O28  1  0.59277300  0.49888900  0.15132700  1
  O  O29  1  0.00046400  0.89603600  0.06338600  1
  O  O30  1  0.99953600  0.89603600  0.93661400  1
  O  O31  1  0.50046400  0.39603600  0.06338600  1
  O  O32  1  0.49953600  0.39603600  0.93661400  1
  O  O33  1  0.55341500  0.10696200  0.05681300  1
  O  O34  1  0.44658500  0.10696200  0.94318700  1
  O  O35  1  0.05341500  0.60696200  0.05681300  1
  O  O36  1  0.94658500  0.60696200  0.94318700  1
  O  O37  1  0.55502500  0.00412400  0.16144300  1
  O  O38  1  0.44497500  0.00412400  0.83855700  1
  O  O39  1  0.05502500  0.50412400  0.16144300  1
  O  O40  1  0.94497500  0.50412400  0.83855700  1
  O  O41  1  0.44841600  0.00390500  0.05378400  1
  O  O42  1  0.55158400  0.00390500  0.94621600  1
  O  O43  1  0.94841600  0.50390500  0.05378400  1
  O  O44  1  0.05158400  0.50390500  0.94621600  1
  O  O45  1  0.55331900  0.89582400  0.05689900  1
  O  O46  1  0.44668100  0.89582400  0.94310000  1
  O  O47  1  0.05331900  0.39582400  0.05689900  1
  O  O48  1  0.94668100  0.39582400  0.94310000  1
