# generated using pymatgen
data_Cu2H16C29O8
_symmetry_space_group_name_H-M   'P 1'
_cell_length_a   11.87117900
_cell_length_b   11.87085900
_cell_length_c   23.51670700
_cell_angle_alpha   88.30944100
_cell_angle_beta   91.77301100
_cell_angle_gamma   89.98819400
_symmetry_Int_Tables_number   1
_chemical_formula_structural   Cu2H16C29O8
_chemical_formula_sum   'Cu4 H32 C58 O16'
_cell_volume   3310.96958547
_cell_formula_units_Z   2
loop_
 _symmetry_equiv_pos_site_id
 _symmetry_equiv_pos_as_xyz
  1  'x, y, z'
loop_
 _atom_site_type_symbol
 _atom_site_label
 _atom_site_symmetry_multiplicity
 _atom_site_fract_x
 _atom_site_fract_y
 _atom_site_fract_z
 _atom_site_occupancy
  Cu  Cu1  1  0.48511500  0.09539700  0.24648100  1
  Cu  Cu2  1  0.48563800  0.87405800  0.25350300  1
  Cu  Cu3  1  0.87471600  0.48511400  0.74628700  1
  Cu  Cu4  1  0.09604300  0.48434400  0.75369700  1
  H  H1  1  0.81757000  0.10604100  0.54326100  1
  H  H2  1  0.81452100  0.24697600  0.61397600  1
  H  H3  1  0.81459000  0.75250300  0.62164600  1
  H  H4  1  0.81786600  0.89888500  0.54935100  1
  H  H5  1  0.75003200  0.17307300  0.36929700  1
  H  H6  1  0.89696800  0.17747200  0.44190400  1
  H  H7  1  0.89784700  0.81622500  0.45151700  1
  H  H8  1  0.75133200  0.81321400  0.37919900  1
  H  H9  1  0.17428800  0.24666000  0.62445300  1
  H  H10  1  0.17879500  0.10545400  0.55336700  1
  H  H11  1  0.17915400  0.89326400  0.55712200  1
  H  H12  1  0.17449200  0.74652900  0.62969400  1
  H  H13  1  0.24601000  0.81352800  0.38483500  1
  H  H14  1  0.10517600  0.81653000  0.45554700  1
  H  H15  1  0.10897500  0.17780100  0.44796400  1
  H  H16  1  0.24997500  0.17335100  0.37690600  1
  H  H17  1  0.07288800  0.15323200  0.04847500  1
  H  H18  1  0.21940600  0.15624400  0.12079200  1
  H  H19  1  0.72472300  0.15593400  0.11513900  1
  H  H20  1  0.86555900  0.15293100  0.04442800  1
  H  H21  1  0.15616000  0.21697200  0.87834500  1
  H  H22  1  0.15288700  0.07059300  0.95064100  1
  H  H23  1  0.79159900  0.07617700  0.94285500  1
  H  H24  1  0.79625800  0.22290900  0.87028100  1
  H  H25  1  0.22073800  0.79638300  0.13067800  1
  H  H26  1  0.07380100  0.79198400  0.05807100  1
  H  H27  1  0.86179100  0.79166000  0.05202800  1
  H  H28  1  0.72078800  0.79611100  0.12308400  1
  H  H29  1  0.79646400  0.72278700  0.87553700  1
  H  H30  1  0.79195500  0.86398900  0.94662500  1
  H  H31  1  0.15318200  0.86343800  0.95671400  1
  H  H32  1  0.15623200  0.72250700  0.88599700  1
  C  C1  1  0.99414900  0.25917700  0.62355000  1
  C  C2  1  0.99880500  0.10080900  0.53796200  1
  C  C3  1  0.89736300  0.13944300  0.55817300  1
  C  C4  1  0.89517300  0.21909600  0.59957500  1
  C  C5  1  0.89521700  0.78073600  0.60661600  1
  C  C6  1  0.89748700  0.86353700  0.56443900  1
  C  C7  1  0.73739800  0.99291100  0.37021900  1
  C  C8  1  0.78002700  0.09425900  0.38832000  1
  C  C9  1  0.86295200  0.09648900  0.43062200  1
  C  C10  1  0.90181800  0.99745200  0.45748200  1
  C  C11  1  0.86350000  0.89599500  0.43604900  1
  C  C12  1  0.78065600  0.89383400  0.39381900  1
  C  C13  1  0.09550900  0.21882600  0.60539500  1
  C  C14  1  0.09781300  0.13916500  0.56388900  1
  C  C15  1  0.99422700  0.73625100  0.62970100  1
  C  C16  1  0.99886300  0.90049200  0.54247100  1
  C  C17  1  0.09800700  0.86031300  0.56876600  1
  C  C18  1  0.09566800  0.77753400  0.61108600  1
  C  C19  1  0.26033700  0.99314900  0.37653300  1
  C  C20  1  0.21913000  0.89410900  0.39980300  1
  C  C21  1  0.13951600  0.89622500  0.44116700  1
  C  C22  1  0.10214000  0.99753700  0.46210400  1
  C  C23  1  0.14169500  0.09670400  0.43692400  1
  C  C24  1  0.22122100  0.09447800  0.39539900  1
  C  C25  1  0.00074500  0.99939500  0.50000500  1
  C  C26  1  0.62938400  0.97907300  0.16919500  1
  C  C27  1  0.64804800  0.99018100  0.32599800  1
  C  C28  1  0.34136300  0.99038900  0.33078700  1
  C  C29  1  0.32270600  0.97927700  0.17398400  1
  C  C30  1  0.97950800  0.62910900  0.83070600  1
  C  C31  1  0.97944800  0.32239600  0.82605000  1
  C  C32  1  0.99124500  0.34035700  0.66927500  1
  C  C33  1  0.99130000  0.64705800  0.67393200  1
  C  C34  1  0.23335600  0.97654700  0.12976400  1
  C  C35  1  0.06893300  0.97200600  0.04250200  1
  C  C36  1  0.10724300  0.07346300  0.06393900  1
  C  C37  1  0.19008800  0.07562400  0.10616900  1
  C  C38  1  0.75161000  0.07535200  0.10017500  1
  C  C39  1  0.83122600  0.07323600  0.05881200  1
  C  C40  1  0.97652200  0.23320500  0.87028100  1
  C  C41  1  0.07553300  0.18873100  0.89337100  1
  C  C42  1  0.07326500  0.10593200  0.93555000  1
  C  C43  1  0.97188800  0.06896800  0.95751300  1
  C  C44  1  0.87274500  0.10913500  0.93121400  1
  C  C45  1  0.87508200  0.19191300  0.88889200  1
  C  C46  1  0.19073500  0.87519800  0.11165900  1
  C  C47  1  0.10780900  0.87296800  0.06935600  1
  C  C48  1  0.71041100  0.97631300  0.12344900  1
  C  C49  1  0.86861100  0.97192200  0.03787900  1
  C  C50  1  0.82906400  0.87275600  0.06306400  1
  C  C51  1  0.74953600  0.87498300  0.10458800  1
  C  C52  1  0.97660400  0.71028900  0.87643100  1
  C  C53  1  0.87524300  0.75062800  0.89459200  1
  C  C54  1  0.87293900  0.83028700  0.93609800  1
  C  C55  1  0.97194800  0.86865100  0.96202100  1
  C  C56  1  0.07338900  0.83002900  0.94180500  1
  C  C57  1  0.07558000  0.75037900  0.90040200  1
  C  C58  1  0.97000700  0.97006500  0.99997800  1
  O  O1  1  0.59349800  0.07643200  0.18666200  1
  O  O2  1  0.59378100  0.88438100  0.19262000  1
  O  O3  1  0.60725000  0.08494400  0.30379500  1
  O  O4  1  0.60774700  0.89286800  0.30981500  1
  O  O5  1  0.37697000  0.08508200  0.30736400  1
  O  O6  1  0.37724900  0.89303300  0.31331800  1
  O  O7  1  0.36300500  0.07659000  0.19016900  1
  O  O8  1  0.36350600  0.88451500  0.19618800  1
  O  O9  1  0.88487600  0.59357000  0.80710000  1
  O  O10  1  0.07691000  0.59297300  0.81345900  1
  O  O11  1  0.88479800  0.36327300  0.80370800  1
  O  O12  1  0.07686900  0.36244300  0.80997400  1
  O  O13  1  0.89384200  0.37649700  0.68652000  1
  O  O14  1  0.08587700  0.37589000  0.69288300  1
  O  O15  1  0.89387700  0.60701300  0.69000700  1
  O  O16  1  0.08595000  0.60618300  0.69627500  1
