# generated using pymatgen
data_CuH6C14I3N3O4
_symmetry_space_group_name_H-M   'P 1'
_cell_length_a   8.83881300
_cell_length_b   15.55728500
_cell_length_c   16.99470300
_cell_angle_alpha   96.36508300
_cell_angle_beta   90.48914000
_cell_angle_gamma   85.03557100
_symmetry_Int_Tables_number   1
_chemical_formula_structural   CuH6C14I3N3O4
_chemical_formula_sum   'Cu2 H12 C28 I6 N6 O8'
_cell_volume   2313.78709369
_cell_formula_units_Z   2
loop_
 _symmetry_equiv_pos_site_id
 _symmetry_equiv_pos_as_xyz
  1  'x, y, z'
loop_
 _atom_site_type_symbol
 _atom_site_label
 _atom_site_symmetry_multiplicity
 _atom_site_fract_x
 _atom_site_fract_y
 _atom_site_fract_z
 _atom_site_occupancy
  Cu  Cu1  1  0.49168300  0.41430200  0.49727700  1
  Cu  Cu2  1  0.50368300  0.58625100  0.50440300  1
  H  H1  1  0.98697400  0.59968900  0.50583200  1
  H  H2  1  0.00841200  0.40106000  0.49766500  1
  H  H3  1  0.48324700  0.38066600  0.74320500  1
  H  H4  1  0.51371900  0.61970900  0.25844400  1
  H  H5  1  0.48528100  0.38821400  0.88491600  1
  H  H6  1  0.51343100  0.61194000  0.11667900  1
  H  H7  1  0.47995800  0.34591900  0.24535600  1
  H  H8  1  0.51649000  0.65453700  0.75640900  1
  H  H9  1  0.64469300  0.11443800  0.57158600  1
  H  H10  1  0.36131600  0.88427800  0.42363500  1
  H  H11  1  0.68442400  0.71496400  0.59615000  1
  H  H12  1  0.32105600  0.28501700  0.40039900  1
  C  C1  1  0.49706700  0.48932500  0.34880700  1
  C  C2  1  0.49842200  0.51122000  0.65286100  1
  C  C3  1  0.20620400  0.52098000  0.50215700  1
  C  C4  1  0.78914600  0.47968000  0.50051700  1
  C  C5  1  0.04001900  0.53397800  0.50320500  1
  C  C6  1  0.95533400  0.46676600  0.50045900  1
  C  C7  1  0.49684300  0.48348000  0.26214200  1
  C  C8  1  0.49954600  0.51697000  0.73953200  1
  C  C9  1  0.50620700  0.55721100  0.22457900  1
  C  C10  1  0.49094400  0.44315100  0.77707100  1
  C  C11  1  0.50593100  0.55234300  0.14305300  1
  C  C12  1  0.49223000  0.44788800  0.85858900  1
  C  C13  1  0.49619500  0.47293300  0.09813000  1
  C  C14  1  0.50217700  0.52726100  0.90354600  1
  C  C15  1  0.48701400  0.39946900  0.13583800  1
  C  C16  1  0.51083400  0.60079000  0.86587700  1
  C  C17  1  0.48727500  0.40447600  0.21733800  1
  C  C18  1  0.50958000  0.59591600  0.78438200  1
  C  C19  1  0.42548100  0.76135100  0.46124800  1
  C  C20  1  0.57446900  0.23826400  0.53780800  1
  C  C21  1  0.43455900  0.84963100  0.46296400  1
  C  C22  1  0.57075600  0.14936900  0.53276400  1
  C  C23  1  0.53516600  0.89044900  0.51433600  1
  C  C24  1  0.47365200  0.10845300  0.47942100  1
  C  C25  1  0.62497100  0.84125000  0.56207400  1
  C  C26  1  0.38465600  0.15793400  0.43157800  1
  C  C27  1  0.61306200  0.75317900  0.55871400  1
  C  C28  1  0.39146600  0.24663600  0.43810800  1
  I  I1  1  0.47234200  0.27864500  0.06835000  1
  I  I2  1  0.52607100  0.72151500  0.93343800  1
  I  I3  1  0.72207100  0.29825900  0.62045200  1
  I  I4  1  0.27074200  0.70093000  0.38310700  1
  I  I5  1  0.78051100  0.90059200  0.64031900  1
  I  I6  1  0.23711700  0.09819100  0.34891400  1
  N  N1  1  0.49510700  0.46482700  0.01438700  1
  N  N2  1  0.50356600  0.53532000  0.98728900  1
  N  N3  1  0.51228300  0.71477800  0.50974200  1
  N  N4  1  0.48272900  0.28580300  0.49213100  1
  N  N5  1  0.54794200  0.98090900  0.51969600  1
  N  N6  1  0.46219600  0.01781000  0.47306700  1
  O  O1  1  0.48655400  0.41855000  0.38284300  1
  O  O2  1  0.50854700  0.58215600  0.61886300  1
  O  O3  1  0.50778500  0.56533000  0.38898200  1
  O  O4  1  0.48774400  0.43509200  0.61271100  1
  O  O5  1  0.27194500  0.44213200  0.50096500  1
  O  O6  1  0.72345600  0.55885300  0.50593600  1
  O  O7  1  0.28237200  0.58984000  0.50702400  1
  O  O8  1  0.71302000  0.41107000  0.49959400  1
