# generated using pymatgen
data_Zn3H10C30(IO6)2
_symmetry_space_group_name_H-M   'P 1'
_cell_length_a   23.78249700
_cell_length_b   31.23509400
_cell_length_c   19.40461900
_cell_angle_alpha   90.00000000
_cell_angle_beta   127.78192500
_cell_angle_gamma   90.00000000
_symmetry_Int_Tables_number   1
_chemical_formula_structural   Zn3H10C30(IO6)2
_chemical_formula_sum   'Zn12 H40 C120 I8 O48'
_cell_volume   11392.62823156
_cell_formula_units_Z   4
loop_
 _symmetry_equiv_pos_site_id
 _symmetry_equiv_pos_as_xyz
  1  'x, y, z'
loop_
 _atom_site_type_symbol
 _atom_site_label
 _atom_site_symmetry_multiplicity
 _atom_site_fract_x
 _atom_site_fract_y
 _atom_site_fract_z
 _atom_site_occupancy
  Zn  Zn1  1  0.71189200  0.71554800  0.93064100  1
  Zn  Zn2  1  0.28810800  0.28445200  0.06936000  1
  Zn  Zn3  1  0.28810900  0.71554800  0.06936000  1
  Zn  Zn4  1  0.71189100  0.28445200  0.93064100  1
  Zn  Zn5  1  0.21189100  0.21554800  0.93064100  1
  Zn  Zn6  1  0.78810900  0.78445200  0.06936000  1
  Zn  Zn7  1  0.78810800  0.21554800  0.06936000  1
  Zn  Zn8  1  0.21189200  0.78445200  0.93064100  1
  Zn  Zn9  1  0.94478100  0.50000000  0.51477200  1
  Zn  Zn10  1  0.05521900  0.50000000  0.48522900  1
  Zn  Zn11  1  0.44478100  0.00000000  0.51477200  1
  Zn  Zn12  1  0.55521900  0.00000000  0.48522900  1
  H  H1  1  0.56591400  0.81356500  0.73606100  1
  H  H2  1  0.43408600  0.18643500  0.26394100  1
  H  H3  1  0.43408600  0.81356500  0.26394100  1
  H  H4  1  0.56591400  0.18643500  0.73606000  1
  H  H5  1  0.06591400  0.31356500  0.73606100  1
  H  H6  1  0.93408700  0.68643500  0.26394100  1
  H  H7  1  0.93408600  0.31356500  0.26394100  1
  H  H8  1  0.06591400  0.68643500  0.73606000  1
  H  H9  1  0.81299800  0.84449600  0.91860800  1
  H  H10  1  0.18700200  0.15550400  0.08139300  1
  H  H11  1  0.18700200  0.84449700  0.08139300  1
  H  H12  1  0.81299800  0.15550300  0.91860900  1
  H  H13  1  0.31299800  0.34449600  0.91860800  1
  H  H14  1  0.68700200  0.65550400  0.08139300  1
  H  H15  1  0.68700200  0.34449600  0.08139300  1
  H  H16  1  0.31299800  0.65550400  0.91860800  1
  H  H17  1  0.88478400  0.90127100  0.92638700  1
  H  H18  1  0.11521600  0.09872900  0.07361500  1
  H  H19  1  0.11521600  0.90127200  0.07361300  1
  H  H20  1  0.88478400  0.09872800  0.92638800  1
  H  H21  1  0.38478400  0.40127100  0.92638700  1
  H  H22  1  0.61521600  0.59872900  0.07361400  1
  H  H23  1  0.61521600  0.40127100  0.07361300  1
  H  H24  1  0.38478400  0.59872900  0.92638800  1
  H  H25  1  0.82952500  0.96137900  0.82427900  1
  H  H26  1  0.17047500  0.03862100  0.17572200  1
  H  H27  1  0.17047600  0.96138100  0.17572000  1
  H  H28  1  0.82952400  0.03861900  0.82428100  1
  H  H29  1  0.32952500  0.46137900  0.82427900  1
  H  H30  1  0.67047500  0.53862100  0.17572200  1
  H  H31  1  0.67047500  0.46138000  0.17572100  1
  H  H32  1  0.32952500  0.53862000  0.82428000  1
  H  H33  1  0.70319500  0.96445500  0.71448600  1
  H  H34  1  0.29680600  0.03554500  0.28551500  1
  H  H35  1  0.29680700  0.96445600  0.28551400  1
  H  H36  1  0.70319300  0.03554400  0.71448800  1
  H  H37  1  0.20319400  0.46445500  0.71448600  1
  H  H38  1  0.79680600  0.53554500  0.28551500  1
  H  H39  1  0.79680600  0.46445600  0.28551400  1
  H  H40  1  0.20319400  0.53554400  0.71448700  1
  C  C1  1  0.69842500  0.80745500  0.87666900  1
  C  C2  1  0.30157500  0.19254500  0.12333200  1
  C  C3  1  0.30157500  0.80745500  0.12333200  1
  C  C4  1  0.69842500  0.19254500  0.87666900  1
  C  C5  1  0.19842500  0.30745500  0.87666900  1
  C  C6  1  0.80157500  0.69254500  0.12333200  1
  C  C7  1  0.80157500  0.30745500  0.12333200  1
  C  C8  1  0.19842500  0.69254500  0.87666900  1
  C  C9  1  0.63826900  0.75734400  0.99550300  1
  C  C10  1  0.36173100  0.24265600  0.00449800  1
  C  C11  1  0.36173100  0.75734400  0.00449800  1
  C  C12  1  0.63826900  0.24265600  0.99550400  1
  C  C13  1  0.13826900  0.25734400  0.99550400  1
  C  C14  1  0.86173100  0.74265600  0.00449800  1
  C  C15  1  0.86173100  0.25734400  0.00449800  1
  C  C16  1  0.13826900  0.74265600  0.99550400  1
  C  C17  1  0.57878800  0.76005200  0.99696900  1
  C  C18  1  0.42121200  0.23994800  0.00303300  1
  C  C19  1  0.42121300  0.76005200  0.00303200  1
  C  C20  1  0.57878700  0.23994800  0.99696900  1
  C  C21  1  0.07878700  0.26005200  0.99696900  1
  C  C22  1  0.92121300  0.73994800  0.00303200  1
  C  C23  1  0.92121200  0.26005200  0.00303300  1
  C  C24  1  0.07878800  0.73994800  0.99696900  1
  C  C25  1  0.52907400  0.76117100  0.99880100  1
  C  C26  1  0.47092600  0.23882900  0.00120000  1
  C  C27  1  0.47092600  0.76117100  0.00120000  1
  C  C28  1  0.52907400  0.23882900  0.99880100  1
  C  C29  1  0.02907400  0.26117100  0.99880100  1
  C  C30  1  0.97092600  0.73882900  0.00120000  1
  C  C31  1  0.97092600  0.26117100  0.00120000  1
  C  C32  1  0.02907400  0.73882900  0.99880100  1
  C  C33  1  0.78585800  0.87080000  0.87370900  1
  C  C34  1  0.21414200  0.12920000  0.12629300  1
  C  C35  1  0.21414300  0.87080100  0.12629200  1
  C  C36  1  0.78585700  0.12919900  0.87371000  1
  C  C37  1  0.28585700  0.37080000  0.87370900  1
  C  C38  1  0.71414300  0.62920000  0.12629200  1
  C  C39  1  0.71414300  0.37080100  0.12629200  1
  C  C40  1  0.28585800  0.62919900  0.87370900  1
  C  C41  1  0.82760300  0.90269200  0.87799400  1
  C  C42  1  0.17239700  0.09730800  0.12200800  1
  C  C43  1  0.17239800  0.90269300  0.12200600  1
  C  C44  1  0.82760200  0.09730700  0.87799500  1
  C  C45  1  0.32760200  0.40269200  0.87799400  1
  C  C46  1  0.67239800  0.59730800  0.12200700  1
  C  C47  1  0.67239800  0.40269300  0.12200600  1
  C  C48  1  0.32760200  0.59730700  0.87799500  1
  C  C49  1  0.79664600  0.93626700  0.82073400  1
  C  C50  1  0.20335400  0.06373300  0.17926700  1
  C  C51  1  0.20335500  0.93626800  0.17926500  1
  C  C52  1  0.79664500  0.06373200  0.82073600  1
  C  C53  1  0.29664600  0.43626700  0.82073500  1
  C  C54  1  0.70335400  0.56373300  0.17926600  1
  C  C55  1  0.70335400  0.43626800  0.17926500  1
  C  C56  1  0.29664600  0.56373200  0.82073600  1
  C  C57  1  0.72407000  0.93754400  0.75761800  1
  C  C58  1  0.27593000  0.06245600  0.24238300  1
  C  C59  1  0.27593100  0.93754500  0.24238100  1
  C  C60  1  0.72406900  0.06245500  0.75762000  1
  C  C61  1  0.22407000  0.43754400  0.75761900  1
  C  C62  1  0.77593000  0.56245600  0.24238200  1
  C  C63  1  0.77593000  0.43754400  0.24238200  1
  C  C64  1  0.22407000  0.56245600  0.75761900  1
  C  C65  1  0.68083500  0.90502200  0.75029900  1
  C  C66  1  0.31916500  0.09497800  0.24970200  1
  C  C67  1  0.31916500  0.90502200  0.24970100  1
  C  C68  1  0.68083500  0.09497800  0.75030000  1
  C  C69  1  0.18083500  0.40502200  0.75029900  1
  C  C70  1  0.81916500  0.59497800  0.24970200  1
  C  C71  1  0.81916500  0.40502200  0.24970100  1
  C  C72  1  0.18083500  0.59497800  0.75030000  1
  C  C73  1  0.71222400  0.87212200  0.81166100  1
  C  C74  1  0.28777600  0.12787700  0.18834000  1
  C  C75  1  0.28777600  0.87212300  0.18833900  1
  C  C76  1  0.71222400  0.12787700  0.81166200  1
  C  C77  1  0.21222400  0.37212300  0.81166200  1
  C  C78  1  0.78777600  0.62787700  0.18834000  1
  C  C79  1  0.78777600  0.37212300  0.18833900  1
  C  C80  1  0.21222400  0.62787700  0.81166200  1
  C  C81  1  0.66998800  0.84023700  0.80871700  1
  C  C82  1  0.33001200  0.15976300  0.19128400  1
  C  C83  1  0.33001200  0.84023700  0.19128300  1
  C  C84  1  0.66998800  0.15976300  0.80871800  1
  C  C85  1  0.16998800  0.34023700  0.80871700  1
  C  C86  1  0.83001200  0.65976300  0.19128400  1
  C  C87  1  0.83001200  0.34023700  0.19128400  1
  C  C88  1  0.16998800  0.65976300  0.80871800  1
  C  C89  1  0.59856200  0.83913000  0.74035700  1
  C  C90  1  0.40143800  0.16087000  0.25964400  1
  C  C91  1  0.40143800  0.83913000  0.25964400  1
  C  C92  1  0.59856200  0.16087000  0.74035700  1
  C  C93  1  0.09856200  0.33913000  0.74035700  1
  C  C94  1  0.90143800  0.66087000  0.25964400  1
  C  C95  1  0.90143800  0.33913000  0.25964400  1
  C  C96  1  0.09856200  0.66087000  0.74035700  1
  C  C97  1  0.56713300  0.87083000  0.67830100  1
  C  C98  1  0.43286700  0.12917000  0.32170000  1
  C  C99  1  0.43286700  0.87083000  0.32170000  1
  C  C100  1  0.56713300  0.12917000  0.67830100  1
  C  C101  1  0.06713300  0.37083000  0.67830100  1
  C  C102  1  0.93286700  0.62917000  0.32170000  1
  C  C103  1  0.93286700  0.37083000  0.32170000  1
  C  C104  1  0.06713300  0.62917000  0.67830100  1
  C  C105  1  0.60711100  0.90504200  0.68380800  1
  C  C106  1  0.39289000  0.09495800  0.31619300  1
  C  C107  1  0.39289000  0.90504200  0.31619200  1
  C  C108  1  0.60711000  0.09495800  0.68380900  1
  C  C109  1  0.10711000  0.40504200  0.68380800  1
  C  C110  1  0.89289000  0.59495800  0.31619300  1
  C  C111  1  0.89289000  0.40504200  0.31619200  1
  C  C112  1  0.10711000  0.59495800  0.68380900  1
  C  C113  1  0.06975600  0.55975700  0.61972000  1
  C  C114  1  0.93024400  0.44024300  0.38028100  1
  C  C115  1  0.93024400  0.55975700  0.38028200  1
  C  C116  1  0.06975600  0.44024300  0.61972000  1
  C  C117  1  0.56975600  0.05975700  0.61972000  1
  C  C118  1  0.43024400  0.94024300  0.38028100  1
  C  C119  1  0.43024400  0.05975700  0.38028200  1
  C  C120  1  0.56975600  0.94024300  0.61971900  1
  I  I1  1  0.45789200  0.86245500  0.57390200  1
  I  I2  1  0.54210800  0.13754500  0.42609900  1
  I  I3  1  0.54210800  0.86245500  0.42609900  1
  I  I4  1  0.45789200  0.13754500  0.57390200  1
  I  I5  1  0.95789200  0.36245500  0.57390200  1
  I  I6  1  0.04210800  0.63754500  0.42609900  1
  I  I7  1  0.04210800  0.36245500  0.42609900  1
  I  I8  1  0.95789200  0.63754500  0.57390200  1
  O  O1  1  0.67918700  0.76755600  0.85235200  1
  O  O2  1  0.32081300  0.23244400  0.14765000  1
  O  O3  1  0.32081300  0.76755600  0.14764900  1
  O  O4  1  0.67918700  0.23244400  0.85235200  1
  O  O5  1  0.17918700  0.26755600  0.85235200  1
  O  O6  1  0.82081300  0.73244400  0.14764900  1
  O  O7  1  0.82081300  0.26755600  0.14765000  1
  O  O8  1  0.17918700  0.73244400  0.85235200  1
  O  O9  1  0.74011000  0.81948200  0.95874800  1
  O  O10  1  0.25989000  0.18051800  0.04125300  1
  O  O11  1  0.25989000  0.81948200  0.04125300  1
  O  O12  1  0.74011000  0.18051800  0.95874800  1
  O  O13  1  0.24011000  0.31948200  0.95874800  1
  O  O14  1  0.75989000  0.68051800  0.04125300  1
  O  O15  1  0.75989000  0.31948200  0.04125300  1
  O  O16  1  0.24011000  0.68051800  0.95874800  1
  O  O17  1  0.63462600  0.73004600  0.94154300  1
  O  O18  1  0.36537500  0.26995300  0.05845900  1
  O  O19  1  0.36537500  0.73004700  0.05845800  1
  O  O20  1  0.63462500  0.26995300  0.94154300  1
  O  O21  1  0.13462500  0.23004700  0.94154300  1
  O  O22  1  0.86537500  0.76995300  0.05845800  1
  O  O23  1  0.86537500  0.23004700  0.05845900  1
  O  O24  1  0.13462600  0.76995300  0.94154300  1
  O  O25  1  0.69448100  0.78093000  0.05061700  1
  O  O26  1  0.30551900  0.21907000  0.94938400  1
  O  O27  1  0.30551900  0.78093000  0.94938400  1
  O  O28  1  0.69448100  0.21907000  0.05061700  1
  O  O29  1  0.19448100  0.28093000  0.05061700  1
  O  O30  1  0.80551900  0.71907000  0.94938400  1
  O  O31  1  0.80551900  0.28092900  0.94938400  1
  O  O32  1  0.19448100  0.71907000  0.05061700  1
  O  O33  1  0.01202000  0.54427300  0.60491000  1
  O  O34  1  0.98798000  0.45572700  0.39509100  1
  O  O35  1  0.98798000  0.54427300  0.39509100  1
  O  O36  1  0.01202000  0.45572700  0.60491000  1
  O  O37  1  0.51202000  0.04427200  0.60491000  1
  O  O38  1  0.48798100  0.95572800  0.39509100  1
  O  O39  1  0.48798000  0.04427300  0.39509100  1
  O  O40  1  0.51202000  0.95572700  0.60491000  1
  O  O41  1  0.09335800  0.54608600  0.57754200  1
  O  O42  1  0.90664200  0.45391400  0.42245900  1
  O  O43  1  0.90664200  0.54608600  0.42245900  1
  O  O44  1  0.09335800  0.45391400  0.57754200  1
  O  O45  1  0.59335800  0.04608600  0.57754200  1
  O  O46  1  0.40664200  0.95391400  0.42245900  1
  O  O47  1  0.40664100  0.04608600  0.42246000  1
  O  O48  1  0.59335900  0.95391400  0.57754200  1
