# generated using pymatgen
data_Zn3H18C30(NO7)2
_symmetry_space_group_name_H-M   'P 1'
_cell_length_a   33.41186500
_cell_length_b   29.06682700
_cell_length_c   21.23402700
_cell_angle_alpha   90.00000000
_cell_angle_beta   119.95967600
_cell_angle_gamma   90.00000000
_symmetry_Int_Tables_number   1
_chemical_formula_structural   Zn3H18C30(NO7)2
_chemical_formula_sum   'Zn12 H72 C120 N8 O56'
_cell_volume   17866.42517297
_cell_formula_units_Z   4
loop_
 _symmetry_equiv_pos_site_id
 _symmetry_equiv_pos_as_xyz
  1  'x, y, z'
loop_
 _atom_site_type_symbol
 _atom_site_label
 _atom_site_symmetry_multiplicity
 _atom_site_fract_x
 _atom_site_fract_y
 _atom_site_fract_z
 _atom_site_occupancy
  Zn  Zn1  1  0.99942300  0.94536900  0.99647800  1
  Zn  Zn2  1  0.99952400  0.04954000  0.99995300  1
  Zn  Zn3  1  0.50082700  0.44682900  0.99844000  1
  Zn  Zn4  1  0.50034000  0.55107500  0.99885500  1
  Zn  Zn5  1  0.94941800  0.99899800  0.46486200  1
  Zn  Zn6  1  0.05382200  0.00011700  0.53518600  1
  Zn  Zn7  1  0.44819900  0.49883700  0.46262600  1
  Zn  Zn8  1  0.55272400  0.49861400  0.53448300  1
  Zn  Zn9  1  0.50762000  0.99902300  0.43365000  1
  Zn  Zn10  1  0.49145300  0.99837100  0.56180200  1
  Zn  Zn11  1  0.00944300  0.50019500  0.43541300  1
  Zn  Zn12  1  0.99175200  0.49888100  0.56200900  1
  H  H1  1  0.02486400  0.92445900  0.81851900  1
  H  H2  1  0.97772000  0.06993000  0.18470400  1
  H  H3  1  0.00808600  0.92351500  0.19936000  1
  H  H4  1  0.98417800  0.06882400  0.79181200  1
  H  H5  1  0.52232900  0.42473000  0.81791200  1
  H  H6  1  0.51377900  0.56854800  0.20485600  1
  H  H7  1  0.48384600  0.42151800  0.18407200  1
  H  H8  1  0.48277400  0.56948900  0.78803400  1
  H  H9  1  0.96625100  0.94423500  0.77252400  1
  H  H10  1  0.03570600  0.04914600  0.21749100  1
  H  H11  1  0.05237200  0.96673100  0.23794400  1
  H  H12  1  0.94482100  0.02194400  0.76013900  1
  H  H13  1  0.46386800  0.44493400  0.77183300  1
  H  H14  1  0.55643400  0.52461800  0.23823100  1
  H  H15  1  0.54079600  0.44557900  0.22895500  1
  H  H16  1  0.44302800  0.52291200  0.75762100  1
  H  H17  1  0.96741900  0.94277300  0.66919200  1
  H  H18  1  0.04796200  0.04033600  0.32921900  1
  H  H19  1  0.05165000  0.95558800  0.34130900  1
  H  H20  1  0.94242400  0.02358500  0.65554100  1
  H  H21  1  0.46468600  0.44198500  0.66812200  1
  H  H22  1  0.55881800  0.52553800  0.34289100  1
  H  H23  1  0.53990700  0.44311600  0.33264700  1
  H  H24  1  0.44046200  0.52291000  0.65283000  1
  H  H25  1  0.02808200  0.92850400  0.71645500  1
  H  H26  1  0.99407700  0.07032600  0.30016200  1
  H  H27  1  0.99859500  0.92314000  0.29722800  1
  H  H28  1  0.98390800  0.06946100  0.68448200  1
  H  H29  1  0.52521700  0.42708700  0.71544600  1
  H  H30  1  0.51405000  0.56823100  0.31209000  1
  H  H31  1  0.48045400  0.42440400  0.28614700  1
  H  H32  1  0.48227700  0.56842500  0.68057000  1
  H  H33  1  0.08545800  0.98682600  0.76086300  1
  H  H34  1  0.92176500  0.02672300  0.23921000  1
  H  H35  1  0.92089200  0.96527200  0.25018600  1
  H  H36  1  0.07405800  0.04638600  0.74856300  1
  H  H37  1  0.58319000  0.48485800  0.75884900  1
  H  H38  1  0.42590500  0.53868700  0.24903200  1
  H  H39  1  0.41887300  0.47843700  0.23941800  1
  H  H40  1  0.57236400  0.54448800  0.74519900  1
  H  H41  1  0.08892400  0.95631700  0.90954900  1
  H  H42  1  0.16032400  0.92880200  0.98137200  1
  H  H43  1  0.19844900  0.97798700  0.01363700  1
  H  H44  1  0.20004500  0.93901700  0.94858100  1
  H  H45  1  0.91017000  0.04264400  0.08677600  1
  H  H46  1  0.83259000  0.08497000  0.05940300  1
  H  H47  1  0.78780100  0.04199600  0.03338400  1
  H  H48  1  0.82197100  0.04362800  0.98884800  1
  H  H49  1  0.93114200  0.91384600  0.18092900  1
  H  H50  1  0.90611000  0.85442000  0.10311600  1
  H  H51  1  0.91626900  0.86578600  0.02860900  1
  H  H52  1  0.85840400  0.86929400  0.01477300  1
  H  H53  1  0.09537800  0.05112300  0.93282300  1
  H  H54  1  0.10305800  0.12507200  0.96300400  1
  H  H55  1  0.05267200  0.15637700  0.89742600  1
  H  H56  1  0.10656000  0.16186500  0.89747000  1
  H  H57  1  0.58672100  0.45660800  0.90804200  1
  H  H58  1  0.65795200  0.42904300  0.98064800  1
  H  H59  1  0.69637000  0.47802200  0.01167800  1
  H  H60  1  0.69771700  0.43800900  0.94759000  1
  H  H61  1  0.40371800  0.54300000  0.06461300  1
  H  H62  1  0.39074900  0.61632400  0.03108200  1
  H  H63  1  0.43877800  0.65104800  0.09494600  1
  H  H64  1  0.38475900  0.65233900  0.09511800  1
  H  H65  1  0.41746700  0.44875000  0.09219500  1
  H  H66  1  0.34831700  0.41609400  0.02203000  1
  H  H67  1  0.30663700  0.46235000  0.98756800  1
  H  H68  1  0.30802900  0.42298900  0.05454500  1
  H  H69  1  0.59412000  0.55183300  0.92919000  1
  H  H70  1  0.60272700  0.62610700  0.95751800  1
  H  H71  1  0.55261100  0.65756100  0.89153000  1
  H  H72  1  0.60634600  0.66157900  0.89078900  1
  C  C1  1  0.90983800  0.99880700  0.90860200  1
  C  C2  1  0.08915200  0.99613200  0.08746800  1
  C  C3  1  0.41052300  0.49944300  0.91281400  1
  C  C4  1  0.59065800  0.49846600  0.08448800  1
  C  C5  1  0.01343300  0.99876900  0.88792900  1
  C  C6  1  0.98532400  0.99608100  0.10848500  1
  C  C7  1  0.51184400  0.50047300  0.88581200  1
  C  C8  1  0.48929600  0.49741300  0.11144500  1
  C  C9  1  0.00177400  0.95251200  0.78443000  1
  C  C10  1  0.00214700  0.04155100  0.21414900  1
  C  C11  1  0.01683800  0.95789700  0.22537700  1
  C  C12  1  0.97895500  0.03363600  0.76947000  1
  C  C13  1  0.49939000  0.45269100  0.78325500  1
  C  C14  1  0.52156100  0.53365700  0.22855700  1
  C  C15  1  0.50479800  0.45104600  0.21695500  1
  C  C16  1  0.47721300  0.53406100  0.76651700  1
  C  C17  1  0.00197000  0.95318500  0.71378400  1
  C  C18  1  0.01026800  0.03993800  0.29029800  1
  C  C19  1  0.01565400  0.95537000  0.29523100  1
  C  C20  1  0.97757100  0.03435600  0.69771800  1
  C  C21  1  0.49938600  0.45227200  0.71242400  1
  C  C22  1  0.52297500  0.53385500  0.30030200  1
  C  C23  1  0.50465600  0.45107600  0.28768600  1
  C  C24  1  0.47570000  0.53367100  0.69468700  1
  C  C25  1  0.06454800  0.01289500  0.83474200  1
  C  C26  1  0.93480000  0.98656700  0.16550000  1
  C  C27  1  0.56265500  0.51261200  0.83204400  1
  C  C28  1  0.43767500  0.50664100  0.16437500  1
  C  C29  1  0.01575500  0.99988000  0.82029000  1
  C  C30  1  0.98367900  0.99519700  0.17691300  1
  C  C31  1  0.51379900  0.50035300  0.81795400  1
  C  C32  1  0.48728000  0.49750100  0.17925300  1
  C  C33  1  0.01344500  0.00123400  0.70062100  1
  C  C34  1  0.98911000  0.99638300  0.29900400  1
  C  C35  1  0.51128700  0.49988100  0.69833300  1
  C  C36  1  0.48965800  0.49798100  0.29877500  1
  C  C37  1  0.06207800  0.01395400  0.76061200  1
  C  C38  1  0.93867800  0.99382800  0.23944100  1
  C  C39  1  0.56007300  0.51251000  0.75794000  1
  C  C40  1  0.44019100  0.50732800  0.23842600  1
  C  C41  1  0.86032100  0.99886300  0.85918500  1
  C  C42  1  0.13870000  0.99618600  0.13661900  1
  C  C43  1  0.36089200  0.49907700  0.86429500  1
  C  C44  1  0.64029400  0.49884600  0.13300400  1
  C  C45  1  0.81886800  0.99892400  0.81783100  1
  C  C46  1  0.18017400  0.99637900  0.17782600  1
  C  C47  1  0.31940400  0.49887600  0.82315700  1
  C  C48  1  0.68178500  0.49913200  0.17414200  1
  C  C49  1  0.77015500  0.99899900  0.76917300  1
  C  C50  1  0.22890300  0.99672900  0.22636500  1
  C  C51  1  0.27070000  0.49874600  0.77433100  1
  C  C52  1  0.73048900  0.49944300  0.22298400  1
  C  C53  1  0.72870600  0.99905100  0.72773900  1
  C  C54  1  0.27035900  0.99708800  0.26773800  1
  C  C55  1  0.22929200  0.49871200  0.73252400  1
  C  C56  1  0.77189600  0.49967900  0.26481800  1
  C  C57  1  0.67999300  0.99908900  0.67905900  1
  C  C58  1  0.31907600  0.99754600  0.31638800  1
  C  C59  1  0.18065100  0.49874900  0.68320500  1
  C  C60  1  0.82053600  0.49990400  0.31417200  1
  C  C61  1  0.63853600  0.99908700  0.63769600  1
  C  C62  1  0.36053400  0.99792600  0.35774600  1
  C  C63  1  0.13927200  0.49883400  0.64118800  1
  C  C64  1  0.86191500  0.50002400  0.35621300  1
  C  C65  1  0.00175400  0.90966900  0.50286100  1
  C  C66  1  0.00147600  0.08945000  0.49715900  1
  C  C67  1  0.49942300  0.40883600  0.49885700  1
  C  C68  1  0.50149000  0.58862300  0.49824700  1
  C  C69  1  0.01053900  0.00155100  0.62907500  1
  C  C70  1  0.99264500  0.99741100  0.37095300  1
  C  C71  1  0.50864000  0.49947900  0.62707000  1
  C  C72  1  0.49227100  0.49821900  0.37001500  1
  C  C73  1  0.49934100  0.08864400  0.49709300  1
  C  C74  1  0.49975400  0.90875800  0.49838300  1
  C  C75  1  0.00072000  0.58946400  0.50168200  1
  C  C76  1  0.00050400  0.40961600  0.49577300  1
  C  C77  1  0.58899600  0.99902200  0.58841000  1
  C  C78  1  0.41007400  0.99832800  0.40704300  1
  C  C79  1  0.08983500  0.49900800  0.59101200  1
  C  C80  1  0.91135600  0.50003900  0.40640200  1
  C  C81  1  0.00242400  0.86032200  0.50419100  1
  C  C82  1  0.00074300  0.13878700  0.49565900  1
  C  C83  1  0.49950800  0.35948700  0.49916400  1
  C  C84  1  0.50134900  0.63796400  0.49787700  1
  C  C85  1  0.00260000  0.81887000  0.50469500  1
  C  C86  1  0.00037000  0.18023300  0.49485700  1
  C  C87  1  0.49950700  0.31803600  0.49919600  1
  C  C88  1  0.50116500  0.67940900  0.49767600  1
  C  C89  1  0.00246000  0.77029400  0.50469300  1
  C  C90  1  0.00016000  0.22880100  0.49439000  1
  C  C91  1  0.49945300  0.26946600  0.49901300  1
  C  C92  1  0.50089200  0.72797000  0.49757100  1
  C  C93  1  0.49939200  0.22801500  0.49870900  1
  C  C94  1  0.50063000  0.76941600  0.49759300  1
  C  C95  1  0.00214200  0.72884000  0.50430700  1
  C  C96  1  0.00012400  0.27025200  0.49433200  1
  C  C97  1  0.49932600  0.17944500  0.49821700  1
  C  C98  1  0.50030800  0.81797500  0.49774700  1
  C  C99  1  0.00163400  0.68026800  0.50352500  1
  C  C100  1  0.00020300  0.31882000  0.49459900  1
  C  C101  1  0.49930200  0.13799500  0.49772300  1
  C  C102  1  0.50004200  0.85941800  0.49798300  1
  C  C103  1  0.00118100  0.63881700  0.50270500  1
  C  C104  1  0.00033000  0.36026800  0.49504600  1
  C  C105  1  0.14241200  0.98467000  0.90506200  1
  C  C106  1  0.17727300  0.95575900  0.96587800  1
  C  C107  1  0.85667400  0.01696500  0.09681300  1
  C  C108  1  0.82259900  0.04894500  0.04106500  1
  C  C109  1  0.90234500  0.92566600  0.07236300  1
  C  C110  1  0.89544100  0.87569300  0.05392800  1
  C  C111  1  0.07013300  0.09917900  0.85300500  1
  C  C112  1  0.08404900  0.13779600  0.90623900  1
  C  C113  1  0.64036000  0.48402800  0.90295500  1
  C  C114  1  0.67505400  0.45543700  0.96447400  1
  C  C115  1  0.42573700  0.59237700  0.14223700  1
  C  C116  1  0.40889600  0.63013700  0.08723500  1
  C  C117  1  0.36210600  0.47277400  0.09567100  1
  C  C118  1  0.32944700  0.44156400  0.03633100  1
  C  C119  1  0.56904800  0.59908900  0.84815600  1
  C  C120  1  0.58366700  0.63829600  0.90045800  1
  N  N1  1  0.09663000  0.97667600  0.87749900  1
  N  N2  1  0.90159800  0.01932300  0.11450500  1
  N  N3  1  0.91974900  0.93941300  0.14234700  1
  N  N4  1  0.08109900  0.05517500  0.87756700  1
  N  N5  1  0.59453100  0.47646200  0.87562400  1
  N  N6  1  0.41791600  0.54779700  0.11971500  1
  N  N7  1  0.40834700  0.46826800  0.12337000  1
  N  N8  1  0.57954000  0.55526000  0.87378100  1
  O  O1  1  0.93161500  0.95911000  0.92788200  1
  O  O2  1  0.06731300  0.03578700  0.06863200  1
  O  O3  1  0.06794400  0.95650200  0.06340700  1
  O  O4  1  0.93105600  0.03842000  0.93261300  1
  O  O5  1  0.43231800  0.45989600  0.93503400  1
  O  O6  1  0.56880800  0.53801400  0.06275900  1
  O  O7  1  0.56926700  0.45860800  0.06501100  1
  O  O8  1  0.43195800  0.53929500  0.93178100  1
  O  O9  1  0.01092000  0.95852200  0.91330000  1
  O  O10  1  0.98782200  0.03629500  0.08292000  1
  O  O11  1  0.99019900  0.95703600  0.08234600  1
  O  O12  1  0.00905700  0.03790800  0.91439600  1
  O  O13  1  0.50995900  0.46073000  0.91310500  1
  O  O14  1  0.49075000  0.53715800  0.08374500  1
  O  O15  1  0.49365200  0.45778800  0.08634500  1
  O  O16  1  0.50795800  0.54013100  0.91135600  1
  O  O17  1  0.96150800  0.93037000  0.47309600  1
  O  O18  1  0.04170900  0.06874600  0.52660800  1
  O  O19  1  0.04133000  0.93163200  0.53079200  1
  O  O20  1  0.96192900  0.06748800  0.46956800  1
  O  O21  1  0.45944300  0.43007900  0.46893400  1
  O  O22  1  0.54146400  0.56738300  0.52752700  1
  O  O23  1  0.53932300  0.43026100  0.52815300  1
  O  O24  1  0.46160800  0.56720400  0.46957800  1
  O  O25  1  0.96924600  0.99930100  0.57177800  1
  O  O26  1  0.03403900  0.99954700  0.42822500  1
  O  O27  1  0.46747500  0.49797200  0.56933800  1
  O  O28  1  0.53345200  0.49893600  0.42777000  1
  O  O29  1  0.04876500  0.00280900  0.62625000  1
  O  O30  1  0.95447400  0.99656100  0.37384600  1
  O  O31  1  0.54710200  0.50046900  0.62503900  1
  O  O32  1  0.45379700  0.49746900  0.37203200  1
  O  O33  1  0.50434200  0.06768200  0.44678500  1
  O  O34  1  0.49474100  0.92971300  0.54868600  1
  O  O35  1  0.49445800  0.06687000  0.54694800  1
  O  O36  1  0.50462500  0.93052500  0.44851100  1
  O  O37  1  0.00617400  0.56843200  0.45182400  1
  O  O38  1  0.99503500  0.43064400  0.54561900  1
  O  O39  1  0.99511900  0.56775500  0.55085500  1
  O  O40  1  0.00608700  0.43132000  0.44657800  1
  O  O41  1  0.57346600  0.00025600  0.51801600  1
  O  O42  1  0.42560600  0.99711600  0.47743700  1
  O  O43  1  0.07493000  0.49855200  0.52078300  1
  O  O44  1  0.92626400  0.50050900  0.47663300  1
  O  O45  1  0.56145900  0.99758700  0.61595400  1
  O  O46  1  0.43761300  0.99978800  0.37950400  1
  O  O47  1  0.06176100  0.49974500  0.61760100  1
  O  O48  1  0.93943400  0.49932100  0.37982200  1
  O  O49  1  0.15585000  0.01504100  0.88043400  1
  O  O50  1  0.84354000  0.98874600  0.12505200  1
  O  O51  1  0.89133600  0.95339000  0.02341500  1
  O  O52  1  0.04965700  0.10847700  0.78853600  1
  O  O53  1  0.65397500  0.51375700  0.87757600  1
  O  O54  1  0.44563900  0.60283500  0.20625900  1
  O  O55  1  0.34648700  0.50183700  0.11898400  1
  O  O56  1  0.54840100  0.60774600  0.78346400  1
