# generated using pymatgen
data_CuH20C25(NO2)3
_symmetry_space_group_name_H-M   'P 1'
_cell_length_a   17.73557000
_cell_length_b   16.21959100
_cell_length_c   15.86675500
_cell_angle_alpha   90.00000000
_cell_angle_beta   89.99978500
_cell_angle_gamma   90.00000000
_symmetry_Int_Tables_number   1
_chemical_formula_structural   CuH20C25(NO2)3
_chemical_formula_sum   'Cu2 H40 C50 N6 O12'
_cell_volume   4564.28931622
_cell_formula_units_Z   2
loop_
 _symmetry_equiv_pos_site_id
 _symmetry_equiv_pos_as_xyz
  1  'x, y, z'
loop_
 _atom_site_type_symbol
 _atom_site_label
 _atom_site_symmetry_multiplicity
 _atom_site_fract_x
 _atom_site_fract_y
 _atom_site_fract_z
 _atom_site_occupancy
  Cu  Cu1  1  0.50193300  0.58109900  0.49833300  1
  Cu  Cu2  1  0.50148300  0.41635400  0.50057800  1
  H  H1  1  0.43422000  0.60895600  0.08296200  1
  H  H2  1  0.38452300  0.46555700  0.06494100  1
  H  H3  1  0.44639000  0.37862300  0.07853900  1
  H  H4  1  0.53270100  0.62438100  0.06411200  1
  H  H5  1  0.48027800  0.37041900  0.94372300  1
  H  H6  1  0.50923300  0.63212400  0.92816700  1
  H  H7  1  0.62247700  0.50791600  0.07436700  1
  H  H8  1  0.58640800  0.40490100  0.05874000  1
  H  H9  1  0.61377300  0.53885000  0.93500000  1
  H  H10  1  0.60192300  0.42962400  0.91856100  1
  H  H11  1  0.87636900  0.63019200  0.49831500  1
  H  H12  1  0.87767800  0.36813100  0.51166300  1
  H  H13  1  0.73897600  0.63024800  0.49686400  1
  H  H14  1  0.74002700  0.36638400  0.51030100  1
  H  H15  1  0.12381000  0.62995900  0.52264100  1
  H  H16  1  0.12238400  0.37169400  0.48260400  1
  H  H17  1  0.58367300  0.86308000  0.59561700  1
  H  H18  1  0.57382500  0.13344100  0.60723100  1
  H  H19  1  0.58411100  0.71170500  0.59281500  1
  H  H20  1  0.57370900  0.28481400  0.60662000  1
  H  H21  1  0.41732400  0.71187900  0.40422200  1
  H  H22  1  0.43257400  0.28633800  0.39371600  1
  H  H23  1  0.41489000  0.86325900  0.40492300  1
  H  H24  1  0.43101000  0.13502900  0.39166600  1
  H  H25  1  0.35452400  0.59129800  0.98020900  1
  H  H26  1  0.26554400  0.67200300  0.92376500  1
  H  H27  1  0.27637900  0.68482800  0.81163000  1
  H  H28  1  0.30809100  0.76479000  0.88251900  1
  H  H29  1  0.32979700  0.44261100  0.94475600  1
  H  H30  1  0.24505300  0.38138700  0.86015700  1
  H  H31  1  0.27695100  0.27692700  0.84269600  1
  H  H32  1  0.28181500  0.35181200  0.75851000  1
  H  H33  1  0.24524800  0.69976300  0.49339700  1
  H  H34  1  0.31005500  0.79315600  0.57481100  1
  H  H35  1  0.37028700  0.74998300  0.65510300  1
  H  H36  1  0.27266000  0.77273900  0.67879300  1
  H  H37  1  0.24947000  0.30292200  0.50627400  1
  H  H38  1  0.27880900  0.20414900  0.41034100  1
  H  H39  1  0.31951700  0.23998700  0.31270400  1
  H  H40  1  0.21843600  0.23161200  0.32284500  1
  C  C1  1  0.35612200  0.49953800  0.49737800  1
  C  C2  1  0.50381200  0.49700000  0.33769800  1
  C  C3  1  0.64669000  0.49799800  0.50194900  1
  C  C4  1  0.49953200  0.50049300  0.66120900  1
  C  C5  1  0.48395300  0.58415000  0.04915300  1
  C  C6  1  0.44016800  0.43957000  0.04766800  1
  C  C7  1  0.44938400  0.42904800  0.95295000  1
  C  C8  1  0.47237700  0.58326200  0.95415500  1
  C  C9  1  0.49857000  0.50135800  0.75163600  1
  C  C10  1  0.50100500  0.49751400  0.07920300  1
  C  C11  1  0.49808200  0.49977100  0.91985100  1
  C  C12  1  0.57803900  0.48474000  0.95014200  1
  C  C13  1  0.57698500  0.47108800  0.04467900  1
  C  C14  1  0.49799500  0.50102700  0.82759600  1
  C  C15  1  0.50269700  0.49626400  0.17134500  1
  C  C16  1  0.50355700  0.49607400  0.24727700  1
  C  C17  1  0.84616100  0.57238400  0.50106300  1
  C  C18  1  0.84687600  0.42555600  0.50853900  1
  C  C19  1  0.76844300  0.57204300  0.50020100  1
  C  C20  1  0.76909700  0.42488100  0.50769400  1
  C  C21  1  0.72940300  0.49821100  0.50336600  1
  C  C22  1  0.88540600  0.49925100  0.50514500  1
  C  C23  1  0.96633200  0.49996400  0.50516800  1
  C  C24  1  0.03428300  0.50055800  0.50473600  1
  C  C25  1  0.15439600  0.57305500  0.51320700  1
  C  C26  1  0.15360400  0.42828200  0.49140600  1
  C  C27  1  0.23223700  0.57353100  0.51256000  1
  C  C28  1  0.23127600  0.42744100  0.48747700  1
  C  C29  1  0.27229800  0.50022400  0.49899900  1
  C  C30  1  0.11520200  0.50067500  0.50360800  1
  C  C31  1  0.54689300  0.83029500  0.55286200  1
  C  C32  1  0.54199700  0.16660900  0.56006400  1
  C  C33  1  0.54713600  0.74536300  0.55102400  1
  C  C34  1  0.54166200  0.25162600  0.55968400  1
  C  C35  1  0.45439300  0.74542000  0.44601300  1
  C  C36  1  0.46319000  0.25238500  0.44113500  1
  C  C37  1  0.45275200  0.83041300  0.44642500  1
  C  C38  1  0.46234200  0.16745300  0.43979200  1
  C  C39  1  0.49972900  0.87316500  0.49983800  1
  C  C40  1  0.50147200  0.12421200  0.50015600  1
  C  C41  1  0.49991900  0.96156600  0.50005300  1
  C  C42  1  0.50055500  0.03581500  0.50012700  1
  C  C43  1  0.37895000  0.65871400  0.87653100  1
  C  C44  1  0.30254400  0.69724400  0.87371900  1
  C  C45  1  0.36560300  0.36513700  0.85386000  1
  C  C46  1  0.28746700  0.34266000  0.82749300  1
  C  C47  1  0.29069800  0.66539300  0.60353000  1
  C  C48  1  0.31209200  0.75065300  0.62949300  1
  C  C49  1  0.26755500  0.33426300  0.38642200  1
  C  C50  1  0.27131900  0.24706500  0.35659200  1
  N  N1  1  0.50233800  0.70434100  0.49677400  1
  N  N2  1  0.50080100  0.29310200  0.50198200  1
  N  N3  1  0.39409300  0.59875800  0.93348900  1
  N  N4  1  0.37684100  0.42612700  0.91090900  1
  N  N5  1  0.26907700  0.64996700  0.52347700  1
  N  N6  1  0.26680700  0.35166400  0.46959900  1
  O  O1  1  0.39242600  0.56980700  0.49330800  1
  O  O2  1  0.39194900  0.42890100  0.50203100  1
  O  O3  1  0.50118900  0.56833800  0.37596300  1
  O  O4  1  0.50550400  0.42665300  0.37800700  1
  O  O5  1  0.61146300  0.56886000  0.49769600  1
  O  O6  1  0.61110100  0.42722600  0.50490000  1
  O  O7  1  0.49731000  0.57084500  0.62088000  1
  O  O8  1  0.50284900  0.42915800  0.62294000  1
  O  O9  1  0.42605200  0.67973000  0.82479900  1
  O  O10  1  0.41874800  0.33032200  0.82046300  1
  O  O11  1  0.29411100  0.60939300  0.65464400  1
  O  O12  1  0.26376900  0.38996400  0.33498700  1
