# generated using pymatgen
data_CuH5C13INO4
_symmetry_space_group_name_H-M   'P 1'
_cell_length_a   16.04088100
_cell_length_b   14.61841000
_cell_length_c   11.04654900
_cell_angle_alpha   90.00000000
_cell_angle_beta   89.99092300
_cell_angle_gamma   90.00000000
_symmetry_Int_Tables_number   1
_chemical_formula_structural   CuH5C13INO4
_chemical_formula_sum   'Cu2 H10 C26 I2 N2 O8'
_cell_volume   2590.32927117
_cell_formula_units_Z   2
loop_
 _symmetry_equiv_pos_site_id
 _symmetry_equiv_pos_as_xyz
  1  'x, y, z'
loop_
 _atom_site_type_symbol
 _atom_site_label
 _atom_site_symmetry_multiplicity
 _atom_site_fract_x
 _atom_site_fract_y
 _atom_site_fract_z
 _atom_site_occupancy
  Cu  Cu1  1  0.49987600  0.59171500  0.50009400  1
  Cu  Cu2  1  0.49998700  0.40866800  0.49991000  1
  H  H1  1  0.50511200  0.36133600  0.88829100  1
  H  H2  1  0.50526000  0.36117500  0.11133800  1
  H  H3  1  0.49745700  0.57068200  0.90486400  1
  H  H4  1  0.49709200  0.57052500  0.09533100  1
  H  H5  1  0.07654900  0.64595200  0.49999100  1
  H  H6  1  0.92320400  0.64588200  0.50001500  1
  H  H7  1  0.92331600  0.35439900  0.50001200  1
  H  H8  1  0.07666100  0.35446800  0.49998800  1
  H  H9  1  0.59266400  0.08435500  0.63802700  1
  H  H10  1  0.40716100  0.08433900  0.36201000  1
  C  C1  1  0.33994400  0.50039500  0.49997700  1
  C  C2  1  0.65992000  0.49994700  0.50002400  1
  C  C3  1  0.49986600  0.50014400  0.26742800  1
  C  C4  1  0.49996500  0.50056000  0.73257500  1
  C  C5  1  0.50268800  0.42733500  0.93277900  1
  C  C6  1  0.50270000  0.42723500  0.06702700  1
  C  C7  1  0.49990100  0.50334600  0.86515700  1
  C  C8  1  0.49973700  0.50313700  0.13485400  1
  C  C9  1  0.95691700  0.58185100  0.50001000  1
  C  C10  1  0.04288500  0.58189000  0.49999600  1
  C  C11  1  0.91396200  0.50013600  0.50001600  1
  C  C12  1  0.08590300  0.50021400  0.49998800  1
  C  C13  1  0.95698000  0.41846100  0.50000800  1
  C  C14  1  0.04294800  0.41849900  0.49999400  1
  C  C15  1  0.82450100  0.50009100  0.50002500  1
  C  C16  1  0.17536400  0.50025800  0.49997800  1
  C  C17  1  0.25048600  0.50030800  0.49997400  1
  C  C18  1  0.74937900  0.50003700  0.50002800  1
  C  C19  1  0.55193600  0.95304500  0.57736800  1
  C  C20  1  0.44793900  0.95303600  0.42262700  1
  C  C21  1  0.49994900  0.90585600  0.49998700  1
  C  C22  1  0.44792600  0.04736900  0.42265400  1
  C  C23  1  0.55191000  0.04737800  0.57737700  1
  C  C24  1  0.49990700  0.09454100  0.50002500  1
  C  C25  1  0.49995500  0.80768000  0.49998700  1
  C  C26  1  0.49990400  0.19270700  0.50002000  1
  I  I1  1  0.63133000  0.88120200  0.69547000  1
  I  I2  1  0.36857200  0.88117800  0.30450200  1
  N  N1  1  0.49991200  0.27185400  0.50000400  1
  N  N2  1  0.49995000  0.72852800  0.49999900  1
  O  O1  1  0.37871100  0.57910900  0.50437900  1
  O  O2  1  0.62100400  0.57859300  0.50431500  1
  O  O3  1  0.37885600  0.42174800  0.49565100  1
  O  O4  1  0.62115500  0.42123100  0.49565400  1
  O  O5  1  0.49694000  0.57856200  0.32430100  1
  O  O6  1  0.49696500  0.57905800  0.67594000  1
  O  O7  1  0.50289200  0.42127000  0.32377400  1
  O  O8  1  0.50293400  0.42176400  0.67599200  1
