# generated using pymatgen
data_ZnH5C13N3O4
_symmetry_space_group_name_H-M   'P 1'
_cell_length_a   8.54125100
_cell_length_b   11.37579000
_cell_length_c   12.80793600
_cell_angle_alpha   96.94548200
_cell_angle_beta   93.58859400
_cell_angle_gamma   90.15921500
_symmetry_Int_Tables_number   1
_chemical_formula_structural   ZnH5C13N3O4
_chemical_formula_sum   'Zn2 H10 C26 N6 O8'
_cell_volume   1232.84183191
_cell_formula_units_Z   2
loop_
 _symmetry_equiv_pos_site_id
 _symmetry_equiv_pos_as_xyz
  1  'x, y, z'
loop_
 _atom_site_type_symbol
 _atom_site_label
 _atom_site_symmetry_multiplicity
 _atom_site_fract_x
 _atom_site_fract_y
 _atom_site_fract_z
 _atom_site_occupancy
  Zn  Zn1  1  0.49927800  0.86794400  0.49084200  1
  Zn  Zn2  1  0.50072200  0.13205600  0.50915700  1
  H  H1  1  0.71378900  0.01474900  0.15201700  1
  H  H2  1  0.28621100  0.98525100  0.84798300  1
  H  H3  1  0.21561700  0.01008800  0.14326300  1
  H  H4  1  0.78438300  0.98991200  0.85673700  1
  H  H5  1  0.00090700  0.95695400  0.42232000  1
  H  H6  1  0.99909300  0.04304600  0.57768000  1
  H  H7  1  0.49119100  0.29683300  0.35960800  1
  H  H8  1  0.50880900  0.70316700  0.64039200  1
  H  H9  1  0.51212700  0.29673800  0.68739800  1
  H  H10  1  0.48787300  0.70326200  0.31260200  1
  C  C1  1  0.84405000  0.99044400  0.29506600  1
  C  C2  1  0.15595000  0.00955500  0.70493400  1
  C  C3  1  0.82892000  0.00600000  0.19022500  1
  C  C4  1  0.17108100  0.99399900  0.80977500  1
  C  C5  1  0.96051500  0.00572300  0.13276800  1
  C  C6  1  0.03948500  0.99427700  0.86723200  1
  C  C7  1  0.10950600  0.00215800  0.18378200  1
  C  C8  1  0.89049400  0.99784100  0.81621800  1
  C  C9  1  0.12279900  0.98811300  0.28976400  1
  C  C10  1  0.87720100  0.01188600  0.71023500  1
  C  C11  1  0.98985200  0.97468400  0.34193600  1
  C  C12  1  0.01014900  0.02531600  0.65806400  1
  C  C13  1  0.70959200  0.99436500  0.35990700  1
  C  C14  1  0.29040800  0.00563500  0.64009300  1
  C  C15  1  0.72735100  0.00720700  0.64746900  1
  C  C16  1  0.27265000  0.99279300  0.35253100  1
  C  C17  1  0.49128100  0.53246100  0.36418300  1
  C  C18  1  0.50871900  0.46753900  0.63581700  1
  C  C19  1  0.49216900  0.65437700  0.37998700  1
  C  C20  1  0.50783100  0.34562300  0.62001300  1
  C  C21  1  0.50386600  0.65335900  0.56289500  1
  C  C22  1  0.49613500  0.34664100  0.43710400  1
  C  C23  1  0.50316800  0.53056400  0.55002300  1
  C  C24  1  0.49683200  0.46943600  0.44997700  1
  C  C25  1  0.48460700  0.47338300  0.25833500  1
  C  C26  1  0.51539400  0.52661700  0.74166500  1
  N  N1  1  0.93869100  0.01004700  0.02303000  1
  N  N2  1  0.06130900  0.98995300  0.97697000  1
  N  N3  1  0.50164100  0.28719600  0.52190100  1
  N  N4  1  0.49835900  0.71280400  0.47809900  1
  N  N5  1  0.47922900  0.42579000  0.17306100  1
  N  N6  1  0.52077100  0.57420900  0.82693900  1
  O  O1  1  0.66308100  0.09830700  0.40218400  1
  O  O2  1  0.33691900  0.90169200  0.59781500  1
  O  O3  1  0.65649200  0.89396700  0.38482100  1
  O  O4  1  0.34350900  0.10603300  0.61517900  1
  O  O5  1  0.67511900  0.90300500  0.60299500  1
  O  O6  1  0.32488100  0.09699400  0.39700500  1
  O  O7  1  0.67118200  0.10713900  0.62020100  1
  O  O8  1  0.32881800  0.89286100  0.37979900  1
