# generated using pymatgen
data_ZnH11C23NO7
_symmetry_space_group_name_H-M   'P 1'
_cell_length_a   17.53982600
_cell_length_b   8.54724800
_cell_length_c   15.09142900
_cell_angle_alpha   90.00000000
_cell_angle_beta   90.99100200
_cell_angle_gamma   90.00000000
_symmetry_Int_Tables_number   1
_chemical_formula_structural   ZnH11C23NO7
_chemical_formula_sum   'Zn2 H22 C46 N2 O14'
_cell_volume   2262.12701271
_cell_formula_units_Z   2
loop_
 _symmetry_equiv_pos_site_id
 _symmetry_equiv_pos_as_xyz
  1  'x, y, z'
loop_
 _atom_site_type_symbol
 _atom_site_label
 _atom_site_symmetry_multiplicity
 _atom_site_fract_x
 _atom_site_fract_y
 _atom_site_fract_z
 _atom_site_occupancy
  Zn  Zn1  1  0.91522500  0.50125600  0.50565200  1
  Zn  Zn2  1  0.08470900  0.50233400  0.49426000  1
  H  H1  1  0.03003900  0.00151800  0.56169400  1
  H  H2  1  0.96933200  0.00208900  0.43807000  1
  H  H3  1  0.90910800  0.83283900  0.91900800  1
  H  H4  1  0.09122500  0.17014100  0.08055600  1
  H  H5  1  0.91202500  0.83196200  0.08031500  1
  H  H6  1  0.08758700  0.17252900  0.91929500  1
  H  H7  1  0.30683900  0.47863700  0.71195500  1
  H  H8  1  0.69304800  0.47636000  0.28798600  1
  H  H9  1  0.44141600  0.47531800  0.72055500  1
  H  H10  1  0.55846600  0.47408100  0.27941500  1
  H  H11  1  0.55419600  0.52892900  0.72439300  1
  H  H12  1  0.44582600  0.52893400  0.27553200  1
  H  H13  1  0.80880200  0.48882200  0.37090200  1
  H  H14  1  0.19112000  0.49126800  0.62901100  1
  H  H15  1  0.80883400  0.51317500  0.64819000  1
  H  H16  1  0.19114700  0.51465200  0.35169300  1
  H  H17  1  0.93772700  0.30173300  0.80786600  1
  H  H18  1  0.95859300  0.66673700  0.20017000  1
  H  H19  1  0.05462200  0.32625400  0.20928200  1
  H  H20  1  0.04961600  0.69593700  0.82321700  1
  H  H21  1  0.70283700  0.41810000  0.76209000  1
  H  H22  1  0.29744800  0.41877400  0.23771300  1
  C  C1  1  0.01039600  0.14140100  0.67466900  1
  C  C2  1  0.98955400  0.86222200  0.32523200  1
  C  C3  1  0.99060300  0.14131300  0.32524000  1
  C  C4  1  0.00927600  0.86225500  0.67465400  1
  C  C5  1  0.00095200  0.14237100  0.76515400  1
  C  C6  1  0.99917900  0.86119400  0.23476800  1
  C  C7  1  0.00087700  0.14222600  0.23484900  1
  C  C8  1  0.99925400  0.86139800  0.76508900  1
  C  C9  1  0.99871500  0.00198900  0.81113900  1
  C  C10  1  0.00136700  0.00161000  0.18870000  1
  C  C11  1  0.01929000  0.00169000  0.63145800  1
  C  C12  1  0.98037300  0.00190600  0.36837300  1
  C  C13  1  0.95017600  0.90526900  0.95396300  1
  C  C14  1  0.04992600  0.09817600  0.04574200  1
  C  C15  1  0.95199200  0.90445300  0.04535500  1
  C  C16  1  0.04788100  0.09948800  0.95436100  1
  C  C17  1  0.00190100  0.00061700  0.09165900  1
  C  C18  1  0.99814200  0.00298900  0.90810500  1
  C  C19  1  0.00610200  0.72005500  0.62106300  1
  C  C20  1  0.99382700  0.28348400  0.37887600  1
  C  C21  1  0.99320600  0.72017200  0.37894700  1
  C  C22  1  0.00672800  0.28346100  0.62098600  1
  C  C23  1  0.77710600  0.50749800  0.58627000  1
  C  C24  1  0.22285400  0.50929600  0.41363700  1
  C  C25  1  0.77738200  0.49373700  0.43180000  1
  C  C26  1  0.22254900  0.49608100  0.56811800  1
  C  C27  1  0.65832800  0.50091800  0.50559500  1
  C  C28  1  0.34162400  0.50235600  0.49433500  1
  C  C29  1  0.69806200  0.50782700  0.58504000  1
  C  C30  1  0.30190400  0.50926200  0.41487800  1
  C  C31  1  0.65862100  0.51692800  0.66267300  1
  C  C32  1  0.34136900  0.51778900  0.33723700  1
  C  C33  1  0.69890300  0.49369100  0.42874000  1
  C  C34  1  0.30103000  0.49565200  0.57119100  1
  C  C35  1  0.45936500  0.49878800  0.57851100  1
  C  C36  1  0.54058300  0.49818900  0.42143200  1
  C  C37  1  0.46086900  0.50521500  0.41861600  1
  C  C38  1  0.53909400  0.50506000  0.58132100  1
  C  C39  1  0.42089300  0.50213800  0.49715100  1
  C  C40  1  0.57906200  0.50139200  0.50278700  1
  C  C41  1  0.41677700  0.48776000  0.65538200  1
  C  C42  1  0.58314000  0.48652400  0.34457000  1
  C  C43  1  0.33856600  0.48693600  0.65136000  1
  C  C44  1  0.66134600  0.48504100  0.34858200  1
  C  C45  1  0.58024000  0.51622300  0.66100400  1
  C  C46  1  0.41975000  0.51653800  0.33892200  1
  N  N1  1  0.81533300  0.50070600  0.50986100  1
  N  N2  1  0.18460300  0.50291500  0.49004800  1
  O  O1  1  0.06947400  0.67135300  0.58535400  1
  O  O2  1  0.93048100  0.33208900  0.41465200  1
  O  O3  1  0.92999200  0.67053900  0.41460400  1
  O  O4  1  0.06992000  0.33292000  0.58522700  1
  O  O5  1  0.93863700  0.66477800  0.59852700  1
  O  O6  1  0.06129300  0.33892000  0.40131900  1
  O  O7  1  0.06084300  0.66571000  0.40144700  1
  O  O8  1  0.93908700  0.33800500  0.59853900  1
  O  O9  1  0.99329000  0.28126200  0.80890700  1
  O  O10  1  0.00742900  0.72218300  0.19126900  1
  O  O11  1  0.00469200  0.28167500  0.19093500  1
  O  O12  1  0.99576000  0.72214200  0.80922900  1
  O  O13  1  0.69673000  0.52781800  0.74217400  1
  O  O14  1  0.30329200  0.52850700  0.25770800  1
