# generated using pymatgen
data_Cu2H21C36Br(NO4)2
_symmetry_space_group_name_H-M   'P 1'
_cell_length_a   9.43040300
_cell_length_b   10.84208500
_cell_length_c   17.32575800
_cell_angle_alpha   90.00678200
_cell_angle_beta   86.21259000
_cell_angle_gamma   89.98672800
_symmetry_Int_Tables_number   1
_chemical_formula_structural   Cu2H21C36Br(NO4)2
_chemical_formula_sum   'Cu2 H21 C36 Br1 N2 O8'
_cell_volume   1767.60717271
_cell_formula_units_Z   1
loop_
 _symmetry_equiv_pos_site_id
 _symmetry_equiv_pos_as_xyz
  1  'x, y, z'
loop_
 _atom_site_type_symbol
 _atom_site_label
 _atom_site_symmetry_multiplicity
 _atom_site_fract_x
 _atom_site_fract_y
 _atom_site_fract_z
 _atom_site_occupancy
  Cu  Cu1  1  0.36330700  0.50037600  0.49694100  1
  Cu  Cu2  1  0.64273600  0.49910700  0.49808600  1
  H  H1  1  0.68562200  0.56807000  0.73845600  1
  H  H2  1  0.32063300  0.57270300  0.25653800  1
  H  H3  1  0.74618200  0.43491800  0.25325300  1
  H  H4  1  0.66479700  0.48987100  0.99225000  1
  H  H5  1  0.24702000  0.43273400  0.88232800  1
  H  H6  1  0.33303000  0.57388800  0.11777900  1
  H  H7  1  0.25877100  0.43321600  0.74166100  1
  H  H8  1  0.33964600  0.49149000  0.00270800  1
  H  H9  1  0.67248200  0.57103100  0.87701700  1
  H  H10  1  0.75732800  0.43274800  0.11261500  1
  H  H11  1  0.72197800  0.88959400  0.47810200  1
  H  H12  1  0.22201100  0.79768700  0.46092000  1
  H  H13  1  0.00916800  0.90115100  0.50844500  1
  H  H14  1  0.24592700  0.21083100  0.57096300  1
  H  H15  1  0.72117300  0.11218600  0.48154800  1
  H  H16  1  0.86405700  0.63426100  0.58126300  1
  H  H17  1  0.76310700  0.30420200  0.41017900  1
  H  H18  1  0.89688000  0.18715500  0.31912200  1
  H  H19  1  0.15332900  0.21903300  0.29888100  1
  H  H20  1  0.26812000  0.36204800  0.37351500  1
  H  H21  1  0.12285800  0.63061600  0.58280400  1
  C  C1  1  0.50104100  0.73506800  0.49328000  1
  C  C2  1  0.48304300  0.49947400  0.64474400  1
  C  C3  1  0.49886700  0.26460600  0.50230900  1
  C  C4  1  0.52286900  0.50276800  0.35007500  1
  C  C5  1  0.47363100  0.49927500  0.72962800  1
  C  C6  1  0.58879900  0.53677300  0.76911700  1
  C  C7  1  0.58178200  0.53686200  0.84880400  1
  C  C8  1  0.45963800  0.49766600  0.89040200  1
  C  C9  1  0.34390500  0.46207200  0.85080200  1
  C  C10  1  0.35063600  0.46249500  0.77098400  1
  C  C11  1  0.42361000  0.53961800  0.14606900  1
  C  C12  1  0.41701600  0.54058300  0.22577200  1
  C  C13  1  0.65450500  0.46459200  0.22389700  1
  C  C14  1  0.66086200  0.46319000  0.14411200  1
  C  C15  1  0.54521500  0.49900100  0.10451500  1
  C  C16  1  0.44607000  0.49761500  0.97570100  1
  C  C17  1  0.55848600  0.49747900  0.01923000  1
  C  C18  1  0.53203000  0.50265000  0.26522500  1
  C  C19  1  0.23417400  0.88486200  0.48944500  1
  C  C20  1  0.11082800  0.94551300  0.51328900  1
  C  C21  1  0.11748100  0.06048100  0.54557600  1
  C  C22  1  0.24552900  0.12054400  0.54488500  1
  C  C23  1  0.36958500  0.06334400  0.51558500  1
  C  C24  1  0.36660600  0.93826100  0.49852400  1
  C  C25  1  0.49506700  0.87191100  0.48987000  1
  C  C26  1  0.62130100  0.93704200  0.48581400  1
  C  C27  1  0.62135000  0.06401700  0.48989800  1
  C  C28  1  0.49632500  0.12852300  0.50495200  1
  C  C29  1  0.87253000  0.32625100  0.40564700  1
  C  C30  1  0.94948900  0.25510800  0.35283900  1
  C  C31  1  0.09182500  0.27218600  0.34197600  1
  C  C32  1  0.15743500  0.35512800  0.38721000  1
  C  C33  1  0.08284200  0.42463000  0.44447600  1
  C  C34  1  0.93512800  0.41665200  0.44980000  1
  C  C35  1  0.92425100  0.57210400  0.54291600  1
  C  C36  1  0.07151300  0.57071200  0.54333700  1
  Br  Br1  1  0.94953700  0.14003100  0.58756900  1
  N  N1  1  0.85570000  0.49409100  0.49751400  1
  N  N2  1  0.15097800  0.49923400  0.49351700  1
  O  O1  1  0.38293900  0.67679300  0.51516400  1
  O  O2  1  0.62498000  0.67678200  0.48095200  1
  O  O3  1  0.36838000  0.47187200  0.60809600  1
  O  O4  1  0.60712600  0.52676200  0.60903300  1
  O  O5  1  0.38740700  0.32341900  0.47951300  1
  O  O6  1  0.61671300  0.32236800  0.51627900  1
  O  O7  1  0.40093200  0.53033000  0.38633900  1
  O  O8  1  0.63491300  0.47278200  0.38684900  1
