# generated using pymatgen
data_V2H6C17O10
_symmetry_space_group_name_H-M   'P 1'
_cell_length_a   6.32431300
_cell_length_b   14.54098300
_cell_length_c   19.58556000
_cell_angle_alpha   108.38827400
_cell_angle_beta   89.23130100
_cell_angle_gamma   91.04823400
_symmetry_Int_Tables_number   1
_chemical_formula_structural   V2H6C17O10
_chemical_formula_sum   'V4 H12 C34 O20'
_cell_volume   1708.81621175
_cell_formula_units_Z   2
loop_
 _symmetry_equiv_pos_site_id
 _symmetry_equiv_pos_as_xyz
  1  'x, y, z'
loop_
 _atom_site_type_symbol
 _atom_site_label
 _atom_site_symmetry_multiplicity
 _atom_site_fract_x
 _atom_site_fract_y
 _atom_site_fract_z
 _atom_site_occupancy
  V  V1  1  0.92496200  0.48613700  0.49756600  1
  V  V2  1  0.42583300  0.50950100  0.50171900  1
  V  V3  1  0.32729800  0.00844100  0.00160300  1
  V  V4  1  0.82640700  0.98498900  0.99742200  1
  H  H1  1  0.41150400  0.62805400  0.72481700  1
  H  H2  1  0.38555600  0.75170500  0.84389400  1
  H  H3  1  0.84116300  0.86534700  0.77504200  1
  H  H4  1  0.88655700  0.23738900  0.33921600  1
  H  H5  1  0.87459700  0.11308300  0.22011000  1
  H  H6  1  0.36661600  0.25874100  0.15945100  1
  H  H7  1  0.37857400  0.38309400  0.27858700  1
  H  H8  1  0.58049200  0.80979400  0.71562800  1
  H  H9  1  0.74652400  0.89126700  0.68400200  1
  H  H10  1  0.54815700  0.81620100  0.62561900  1
  H  H11  1  0.90822500  0.75023300  0.59275500  1
  H  H12  1  0.74160000  0.66875400  0.62381700  1
  C  C1  1  0.65544100  0.41340700  0.58115800  1
  C  C2  1  0.63207100  0.39091200  0.38546200  1
  C  C3  1  0.14137300  0.58126200  0.41797200  1
  C  C4  1  0.16290700  0.60508300  0.61393000  1
  C  C5  1  0.28590200  0.68030500  0.73612300  1
  C  C6  1  0.27211000  0.74949800  0.80259900  1
  C  C7  1  0.11221500  0.81568600  0.81594800  1
  C  C8  1  0.96643800  0.81297400  0.76355100  1
  C  C9  1  0.98026200  0.74376200  0.69706400  1
  C  C10  1  0.14030500  0.67768200  0.68368800  1
  C  C11  1  0.09908500  0.85719700  0.13014700  1
  C  C12  1  0.10358500  0.81429100  0.17388700  1
  C  C13  1  0.11886100  0.76744000  0.22713000  1
  C  C14  1  0.13434700  0.72838500  0.27293900  1
  C  C15  1  0.14954600  0.68146600  0.32613600  1
  C  C16  1  0.15383700  0.63841300  0.36978200  1
  C  C17  1  0.62681700  0.35657700  0.62917300  1
  C  C18  1  0.61967400  0.31340500  0.67281900  1
  C  C19  1  0.62302300  0.26617500  0.72613100  1
  C  C20  1  0.62882600  0.22687500  0.77207800  1
  C  C21  1  0.63224300  0.17980100  0.82548500  1
  C  C22  1  0.62521700  0.13687400  0.86928900  1
  C  C23  1  0.77300400  0.24214300  0.29974600  1
  C  C24  1  0.76547200  0.17262200  0.23326900  1
  C  C25  1  0.61927400  0.17861800  0.18320800  1
  C  C26  1  0.48024500  0.25404600  0.19891500  1
  C  C27  1  0.48778100  0.32358900  0.26540700  1
  C  C28  1  0.63375000  0.31748000  0.31551600  1
  C  C29  1  0.62042500  0.10470400  0.11348900  1
  C  C30  1  0.59679000  0.08040900  0.91756700  1
  C  C31  1  0.08960800  0.88864900  0.88554000  1
  C  C32  1  0.11110800  0.91406200  0.08174400  1
  C  C33  1  0.82444900  0.74016300  0.64005900  1
  C  C34  1  0.66437700  0.81971000  0.66829600  1
  O  O1  1  0.46594000  0.44681900  0.39779700  1
  O  O2  1  0.83340500  0.46101300  0.58684500  1
  O  O3  1  0.04966000  0.60896600  0.55955900  1
  O  O4  1  0.74489600  0.37820900  0.43859200  1
  O  O5  1  0.96848600  0.52719900  0.41180600  1
  O  O6  1  0.54191600  0.39629400  0.52271800  1
  O  O7  1  0.65377100  0.57223900  0.51152700  1
  O  O8  1  0.25330300  0.60788600  0.47855300  1
  O  O9  1  0.33625900  0.55663800  0.60355000  1
  O  O10  1  0.14840400  0.42313500  0.48522700  1
  O  O11  1  0.71033500  0.09792800  0.97604300  1
  O  O12  1  0.50721600  0.11673300  0.06019500  1
  O  O13  1  0.28374600  0.96824400  0.08774500  1
  O  O14  1  0.41892400  0.03273900  0.91203300  1
  O  O15  1  0.20271300  0.88528500  0.94008000  1
  O  O16  1  0.78613500  0.04858300  0.10145200  1
  O  O17  1  0.59851800  0.92242000  0.98805600  1
  O  O18  1  0.91621700  0.93703900  0.89564300  1
  O  O19  1  0.99888700  0.88707400  0.02121500  1
  O  O20  1  0.10379700  0.07136600  0.01360600  1
