# generated using pymatgen
data_ZnH12C18NO4
_symmetry_space_group_name_H-M   'P 1'
_cell_length_a   6.54946100
_cell_length_b   13.33420700
_cell_length_c   13.68412100
_cell_angle_alpha   100.36573900
_cell_angle_beta   100.23449200
_cell_angle_gamma   89.92699700
_symmetry_Int_Tables_number   1
_chemical_formula_structural   ZnH12C18NO4
_chemical_formula_sum   'Zn2 H24 C36 N2 O8'
_cell_volume   1156.26936060
_cell_formula_units_Z   2
loop_
 _symmetry_equiv_pos_site_id
 _symmetry_equiv_pos_as_xyz
  1  'x, y, z'
loop_
 _atom_site_type_symbol
 _atom_site_label
 _atom_site_symmetry_multiplicity
 _atom_site_fract_x
 _atom_site_fract_y
 _atom_site_fract_z
 _atom_site_occupancy
  Zn  Zn1  1  0.99240900  0.11142400  0.50059200  1
  Zn  Zn2  1  0.02145800  0.88808700  0.50013700  1
  H  H1  1  0.26693500  0.08179100  0.83345600  1
  H  H2  1  0.74685600  0.91769600  0.16716200  1
  H  H3  1  0.51622700  0.07088200  0.98765600  1
  H  H4  1  0.49741000  0.92859400  0.01301500  1
  H  H5  1  0.99151200  0.00453200  0.81159500  1
  H  H6  1  0.02236100  0.99500700  0.18920400  1
  H  H7  1  0.85939900  0.03838700  0.07322700  1
  H  H8  1  0.15430900  0.96107800  0.92753800  1
  H  H9  1  0.98754000  0.72006300  0.34436400  1
  H  H10  1  0.03911700  0.27919800  0.65645600  1
  H  H11  1  0.09891400  0.63511900  0.75208400  1
  H  H12  1  0.91718500  0.36433400  0.24863400  1
  H  H13  1  0.07966600  0.45074700  0.74980900  1
  H  H14  1  0.94291800  0.54850600  0.25100400  1
  H  H15  1  0.74022300  0.81404200  0.67832800  1
  H  H16  1  0.83596100  0.70734700  0.73590000  1
  H  H17  1  0.88655600  0.83629600  0.80590400  1
  H  H18  1  0.20189300  0.77287100  0.74381400  1
  H  H19  1  0.09449600  0.87286400  0.68030700  1
  H  H20  1  0.57312500  0.19349100  0.30742000  1
  H  H21  1  0.65160100  0.29854800  0.25408200  1
  H  H22  1  0.64858900  0.16927000  0.18457800  1
  H  H23  1  0.00895200  0.22438600  0.26115100  1
  H  H24  1  0.92227500  0.12666700  0.32048800  1
  C  C1  1  0.42813300  0.06819800  0.82918100  1
  C  C2  1  0.58567600  0.93129200  0.17147900  1
  C  C3  1  0.56784600  0.06049900  0.91583500  1
  C  C4  1  0.44587900  0.93898500  0.08485700  1
  C  C5  1  0.76996000  0.03419500  0.91029700  1
  C  C6  1  0.24379400  0.96529600  0.09045000  1
  C  C7  1  0.83315600  0.02175400  0.81817300  1
  C  C8  1  0.18070100  0.97776700  0.18260000  1
  C  C9  1  0.69506000  0.03168600  0.73209600  1
  C  C10  1  0.31889100  0.96784200  0.26865500  1
  C  C11  1  0.49029200  0.05231500  0.73643500  1
  C  C12  1  0.52362400  0.94716800  0.26424700  1
  C  C13  1  0.91263700  0.01883600  0.00204400  1
  C  C14  1  0.10106900  0.98064100  0.99871700  1
  C  C15  1  0.77470100  0.01935600  0.63839300  1
  C  C16  1  0.23934800  0.98012300  0.36239200  1
  C  C17  1  0.33171500  0.03547000  0.64466900  1
  C  C18  1  0.68230300  0.96404000  0.35596300  1
  C  C19  1  0.00673900  0.69131200  0.41432700  1
  C  C20  1  0.01398900  0.30805900  0.58648000  1
  C  C21  1  0.05273900  0.72217100  0.59113500  1
  C  C22  1  0.94811400  0.27754400  0.40938800  1
  C  C23  1  0.04594000  0.61875600  0.59099700  1
  C  C24  1  0.96179500  0.38084600  0.40961200  1
  C  C25  1  0.01346800  0.55132200  0.50090100  1
  C  C26  1  0.99917000  0.44817500  0.49977300  1
  C  C27  1  0.99329800  0.58763200  0.41198800  1
  C  C28  1  0.02300300  0.41180600  0.58875400  1
  C  C29  1  0.06960500  0.58267600  0.68073500  1
  C  C30  1  0.94221400  0.41685600  0.31993800  1
  C  C31  1  0.05950900  0.47907700  0.67960000  1
  C  C32  1  0.95817900  0.52031100  0.32115600  1
  C  C33  1  0.06927700  0.79370300  0.68942600  1
  C  C34  1  0.87005700  0.78725700  0.73016600  1
  C  C35  1  0.90201200  0.20639600  0.31044100  1
  C  C36  1  0.67933200  0.21785200  0.26076900  1
  N  N1  1  0.03672600  0.75706900  0.50315800  1
  N  N2  1  0.97694700  0.24244400  0.49759200  1
  O  O1  1  0.84626700  0.93006800  0.60665800  1
  O  O2  1  0.16834800  0.06950000  0.39436400  1
  O  O3  1  0.81264100  0.10184700  0.60395600  1
  O  O4  1  0.20083400  0.89755800  0.39658900  1
  O  O5  1  0.23913900  0.11414100  0.61276700  1
  O  O6  1  0.77445800  0.88539200  0.38810300  1
  O  O7  1  0.26974200  0.94067800  0.60687000  1
  O  O8  1  0.74469100  0.05879900  0.39354200  1
