# generated using pymatgen
data_Fe2H17C42N4ClO16
_symmetry_space_group_name_H-M   'P 1'
_cell_length_a   15.39068900
_cell_length_b   16.82590100
_cell_length_c   11.94367900
_cell_angle_alpha   72.12822000
_cell_angle_beta   101.06693500
_cell_angle_gamma   109.52385700
_symmetry_Int_Tables_number   1
_chemical_formula_structural   Fe2H17C42N4ClO16
_chemical_formula_sum   'Fe2 H17 C42 N4 Cl1 O16'
_cell_volume   2760.64490620
_cell_formula_units_Z   1
loop_
 _symmetry_equiv_pos_site_id
 _symmetry_equiv_pos_as_xyz
  1  'x, y, z'
loop_
 _atom_site_type_symbol
 _atom_site_label
 _atom_site_symmetry_multiplicity
 _atom_site_fract_x
 _atom_site_fract_y
 _atom_site_fract_z
 _atom_site_occupancy
  Fe  Fe1  1  0.49882700  0.00202200  0.75229100  1
  Fe  Fe2  1  0.49924900  0.99561800  0.25723700  1
  H  H1  1  0.77969500  0.99293200  0.28556700  1
  H  H2  1  0.83721300  0.00763100  0.88877800  1
  H  H3  1  0.04631800  0.04769800  0.09237000  1
  H  H4  1  0.94594600  0.93447900  0.92197700  1
  H  H5  1  0.05282800  0.95556500  0.78020100  1
  H  H6  1  0.20709300  0.96967200  0.73908600  1
  H  H7  1  0.16187100  0.99114900  0.12266400  1
  H  H8  1  0.50266700  0.72900400  0.41771600  1
  H  H9  1  0.49216400  0.56356700  0.77022700  1
  H  H10  1  0.49476000  0.68302900  0.84209200  1
  H  H11  1  0.51011900  0.43600200  0.23999800  1
  H  H12  1  0.50757500  0.31682400  0.16769000  1
  H  H13  1  0.49629200  0.26936200  0.59166300  1
  H  H14  1  0.96024700  0.87012500  0.25913700  1
  H  H15  1  0.12532400  0.95671200  0.55192200  1
  H  H16  1  0.06061800  0.08013400  0.50164600  1
  H  H17  1  0.94681900  0.09979600  0.32866100  1
  C  C1  1  0.79274400  0.99779800  0.19757200  1
  C  C2  1  0.87824200  0.99783200  0.17895100  1
  C  C3  1  0.89435100  0.00066500  0.06752400  1
  C  C4  1  0.82328200  0.00164200  0.97664300  1
  C  C5  1  0.73570000  0.99788600  0.99601500  1
  C  C6  1  0.72090200  0.99587200  0.10862700  1
  C  C7  1  0.98850500  0.00949700  0.04516600  1
  C  C8  1  0.00389600  0.97114800  0.97103800  1
  C  C9  1  0.11073000  0.96707900  0.84662200  1
  C  C10  1  0.19769600  0.97437200  0.82383300  1
  C  C11  1  0.27343500  0.99174000  0.90527600  1
  C  C12  1  0.26075100  0.99657000  0.01535400  1
  C  C13  1  0.17272500  0.98994900  0.03675300  1
  C  C14  1  0.09802500  0.97765400  0.95146600  1
  C  C15  1  0.48397300  0.12592100  0.54491700  1
  C  C16  1  0.36444000  0.00761800  0.86811800  1
  C  C17  1  0.66320300  0.99937700  0.89485500  1
  C  C18  1  0.50141400  0.84665900  0.72207200  1
  C  C19  1  0.49919800  0.15275800  0.28661700  1
  C  C20  1  0.33555200  0.00231200  0.11349900  1
  C  C21  1  0.63035100  0.98549000  0.14181400  1
  C  C22  1  0.51480300  0.87243400  0.46419500  1
  C  C23  1  0.50397800  0.78796000  0.55170500  1
  C  C24  1  0.49986300  0.71811500  0.51109600  1
  C  C25  1  0.49675600  0.63724000  0.58830500  1
  C  C26  1  0.49494300  0.62598100  0.70732100  1
  C  C27  1  0.49689100  0.69473600  0.74838700  1
  C  C28  1  0.50192800  0.77661600  0.67202500  1
  C  C29  1  0.50274600  0.43394200  0.46534900  1
  C  C30  1  0.49792600  0.56492600  0.54462000  1
  C  C31  1  0.50657400  0.37334100  0.30262900  1
  C  C32  1  0.50464800  0.30473500  0.26129400  1
  C  C33  1  0.49872600  0.22255900  0.33721600  1
  C  C34  1  0.49562200  0.21068700  0.45755500  1
  C  C35  1  0.49983900  0.28048300  0.49840900  1
  C  C36  1  0.50387600  0.36166500  0.42154000  1
  C  C37  1  0.94792000  0.98766700  0.28057000  1
  C  C38  1  0.98319300  0.91744200  0.31078300  1
  C  C39  1  0.04694300  0.90655400  0.40800700  1
  C  C40  1  0.07518000  0.96530700  0.47600400  1
  C  C41  1  0.03889500  0.03445500  0.44763800  1
  C  C42  1  0.97485900  0.04533200  0.35052500  1
  N  N1  1  0.49681700  0.48672700  0.62038700  1
  N  N2  1  0.49906800  0.42204200  0.58122800  1
  N  N3  1  0.50387200  0.51214500  0.38959800  1
  N  N4  1  0.50160700  0.57682000  0.42875100  1
  Cl  Cl1  1  0.09154500  0.81766300  0.44558500  1
  O  O1  1  0.54100000  0.11904500  0.64210600  1
  O  O2  1  0.43090100  0.07947800  0.87605000  1
  O  O3  1  0.40911900  0.06087900  0.53497400  1
  O  O4  1  0.37490200  0.95674500  0.81065100  1
  O  O5  1  0.58144100  0.00398500  0.90403400  1
  O  O6  1  0.68102200  0.99747200  0.79275700  1
  O  O7  1  0.50156400  0.92483400  0.65495700  1
  O  O8  1  0.49822200  0.82997800  0.83622700  1
  O  O9  1  0.49900700  0.07456900  0.35354200  1
  O  O10  1  0.50187100  0.16951800  0.17233500  1
  O  O11  1  0.41567500  0.99342800  0.10614600  1
  O  O12  1  0.31945900  0.00920600  0.21357300  1
  O  O13  1  0.59060000  0.93707500  0.47170800  1
  O  O14  1  0.62265800  0.03844400  0.19795400  1
  O  O15  1  0.45589700  0.87940100  0.36889800  1
  O  O16  1  0.56177700  0.91474900  0.13513200  1
