# generated using pymatgen
data_Zn3H20(C17O12)2
_symmetry_space_group_name_H-M   'P 1'
_cell_length_a   37.47512400
_cell_length_b   30.38579100
_cell_length_c   22.16249900
_cell_angle_alpha   90.00000000
_cell_angle_beta   125.53495600
_cell_angle_gamma   90.00000000
_symmetry_Int_Tables_number   1
_chemical_formula_structural   Zn3H20(C17O12)2
_chemical_formula_sum   'Zn12 H80 C136 O96'
_cell_volume   20536.63430025
_cell_formula_units_Z   4
loop_
 _symmetry_equiv_pos_site_id
 _symmetry_equiv_pos_as_xyz
  1  'x, y, z'
loop_
 _atom_site_type_symbol
 _atom_site_label
 _atom_site_symmetry_multiplicity
 _atom_site_fract_x
 _atom_site_fract_y
 _atom_site_fract_z
 _atom_site_occupancy
  Zn  Zn1  1  0.49987400  0.54032000  0.00029700  1
  Zn  Zn2  1  0.00040500  0.50089100  0.56820600  1
  Zn  Zn3  1  0.49919200  0.00092700  0.43076600  1
  Zn  Zn4  1  0.50040500  0.00089100  0.56820600  1
  Zn  Zn5  1  0.99987400  0.04032000  0.00029700  1
  Zn  Zn6  1  0.49993700  0.44087500  0.00008200  1
  Zn  Zn7  1  0.99993700  0.94087500  0.00008200  1
  Zn  Zn8  1  0.54980800  0.50123000  0.55272400  1
  Zn  Zn9  1  0.45067700  0.50132700  0.44826400  1
  Zn  Zn10  1  0.04980800  0.00123000  0.55272400  1
  Zn  Zn11  1  0.95067700  0.00132700  0.44826400  1
  Zn  Zn12  1  0.99919200  0.50092700  0.43076600  1
  H  H1  1  0.49998100  0.45833700  0.79370100  1
  H  H2  1  0.72076800  0.42735300  0.25871200  1
  H  H3  1  0.77852300  0.92605300  0.74169900  1
  H  H4  1  0.22076800  0.92735300  0.25871200  1
  H  H5  1  0.22110900  0.52255700  0.80256600  1
  H  H6  1  0.77857300  0.52187600  0.19608600  1
  H  H7  1  0.72110900  0.02255700  0.80256600  1
  H  H8  1  0.27857300  0.02187600  0.19608600  1
  H  H9  1  0.56954200  0.28097400  0.57182500  1
  H  H10  1  0.42984900  0.28060300  0.42786800  1
  H  H11  1  0.06954200  0.78097400  0.57182500  1
  H  H12  1  0.49949900  0.45893600  0.20590200  1
  H  H13  1  0.92984900  0.78060300  0.42786800  1
  H  H14  1  0.56964800  0.36100100  0.57229500  1
  H  H15  1  0.42932100  0.36061800  0.42677300  1
  H  H16  1  0.06964800  0.86100100  0.57229500  1
  H  H17  1  0.92932100  0.86061800  0.42677300  1
  H  H18  1  0.57044900  0.72185800  0.57127200  1
  H  H19  1  0.43070600  0.72122000  0.42963200  1
  H  H20  1  0.07044900  0.22185800  0.57127200  1
  H  H21  1  0.93070600  0.22122000  0.42963200  1
  H  H22  1  0.57115600  0.64184300  0.57196000  1
  H  H23  1  0.99998100  0.95833700  0.79370100  1
  H  H24  1  0.43070400  0.64123000  0.43051500  1
  H  H25  1  0.07115600  0.14184300  0.57196000  1
  H  H26  1  0.93070400  0.14123000  0.43051500  1
  H  H27  1  0.55009000  0.57145000  0.73389600  1
  H  H28  1  0.45009100  0.57140600  0.26795100  1
  H  H29  1  0.05009000  0.07145000  0.73389600  1
  H  H30  1  0.95009100  0.07140600  0.26795100  1
  H  H31  1  0.13615300  0.49170100  0.50210900  1
  H  H32  1  0.86361400  0.49380600  0.49729600  1
  H  H33  1  0.63615300  0.99170100  0.50210900  1
  H  H34  1  0.99949900  0.95893600  0.20590200  1
  H  H35  1  0.36361400  0.99380600  0.49729600  1
  H  H36  1  0.13829800  0.50767800  0.76175200  1
  H  H37  1  0.86133200  0.50583200  0.23710000  1
  H  H38  1  0.63829800  0.00767800  0.76175200  1
  H  H39  1  0.36133200  0.00583200  0.23710000  1
  H  H40  1  0.07105200  0.27657000  0.48477800  1
  H  H41  1  0.92954500  0.27657800  0.51475100  1
  H  H42  1  0.57105200  0.77657000  0.48477800  1
  H  H43  1  0.42954500  0.77657800  0.51475100  1
  H  H44  1  0.06730800  0.72573500  0.65587300  1
  H  H45  1  0.28040200  0.55871500  0.80593900  1
  H  H46  1  0.93233800  0.72520500  0.34435000  1
  H  H47  1  0.56730800  0.22573500  0.65587300  1
  H  H48  1  0.43233800  0.22520500  0.34435000  1
  H  H49  1  0.06800500  0.63415100  0.65078800  1
  H  H50  1  0.93179800  0.63371500  0.35031400  1
  H  H51  1  0.56800500  0.13415100  0.65078800  1
  H  H52  1  0.43179800  0.13371500  0.35031400  1
  H  H53  1  0.07098200  0.36826200  0.49028800  1
  H  H54  1  0.92872200  0.36825500  0.50691200  1
  H  H55  1  0.57098200  0.86826200  0.49028800  1
  H  H56  1  0.71965700  0.55946500  0.19294800  1
  H  H57  1  0.42872200  0.86825500  0.50691200  1
  H  H58  1  0.43521000  0.51901200  0.64736900  1
  H  H59  1  0.56495400  0.51974800  0.35321100  1
  H  H60  1  0.93521000  0.01901200  0.64736900  1
  H  H61  1  0.06495400  0.01974800  0.35321100  1
  H  H62  1  0.56746100  0.55499000  0.88422000  1
  H  H63  1  0.43298400  0.55626300  0.11747500  1
  H  H64  1  0.06746100  0.05499000  0.88422000  1
  H  H65  1  0.93298400  0.05626300  0.11747500  1
  H  H66  1  0.36328800  0.58532300  0.86215700  1
  H  H67  1  0.78040200  0.05871500  0.80593900  1
  H  H68  1  0.63698200  0.58690300  0.13670800  1
  H  H69  1  0.86328800  0.08532300  0.86215700  1
  H  H70  1  0.13698200  0.08690300  0.13670800  1
  H  H71  1  0.35994800  0.39628700  0.85446300  1
  H  H72  1  0.63903400  0.39782000  0.14647800  1
  H  H73  1  0.85994800  0.89628700  0.85446300  1
  H  H74  1  0.13903400  0.89782000  0.14647800  1
  H  H75  1  0.22864900  0.49199900  0.59735400  1
  H  H76  1  0.77110900  0.49445100  0.40220500  1
  H  H77  1  0.72864900  0.99199900  0.59735400  1
  H  H78  1  0.21965700  0.05946500  0.19294800  1
  H  H79  1  0.27110900  0.99445100  0.40220500  1
  H  H80  1  0.27852300  0.42605300  0.74169900  1
  C  C1  1  0.41380000  0.48973400  0.91036700  1
  C  C2  1  0.50032100  0.77490300  0.49980400  1
  C  C3  1  0.49987800  0.08728100  0.50076600  1
  C  C4  1  0.53869500  0.29846300  0.54041000  1
  C  C5  1  0.46060500  0.29825400  0.45911900  1
  C  C6  1  0.03869500  0.79846300  0.54041000  1
  C  C7  1  0.96060500  0.79825400  0.45911900  1
  C  C8  1  0.53864100  0.34384500  0.54022800  1
  C  C9  1  0.46042100  0.34363300  0.45895000  1
  C  C10  1  0.03864100  0.84384500  0.54022800  1
  C  C11  1  0.96042100  0.84363300  0.45895000  1
  C  C12  1  0.49946900  0.36673500  0.49951100  1
  C  C13  1  0.02013500  0.29764500  0.47278100  1
  C  C14  1  0.99946900  0.86673500  0.49951100  1
  C  C15  1  0.49970900  0.27547000  0.49986100  1
  C  C16  1  0.99970900  0.77547000  0.49986100  1
  C  C17  1  0.01802600  0.70445700  0.56571900  1
  C  C18  1  0.98167500  0.70422600  0.43472400  1
  C  C19  1  0.51802600  0.20445700  0.56571900  1
  C  C20  1  0.48167500  0.20422600  0.43472400  1
  C  C21  1  0.01788100  0.65905700  0.56604300  1
  C  C22  1  0.98189700  0.65882500  0.43483300  1
  C  C23  1  0.51788100  0.15905700  0.56604300  1
  C  C24  1  0.98024900  0.29783200  0.52618900  1
  C  C25  1  0.48189700  0.15882500  0.43483300  1
  C  C26  1  0.99989700  0.63577000  0.50054600  1
  C  C27  1  0.49989700  0.13577000  0.50054600  1
  C  C28  1  0.99982200  0.72724000  0.50010900  1
  C  C29  1  0.49982200  0.22724000  0.50010900  1
  C  C30  1  0.53974500  0.70412000  0.53986200  1
  C  C31  1  0.46156600  0.70376800  0.46143300  1
  C  C32  1  0.03974500  0.20412000  0.53986200  1
  C  C33  1  0.96156600  0.20376800  0.46143300  1
  C  C34  1  0.54001300  0.65877600  0.54043700  1
  C  C35  1  0.52013500  0.79764500  0.47278100  1
  C  C36  1  0.46170300  0.65843000  0.46175800  1
  C  C37  1  0.04001300  0.15877600  0.54043700  1
  C  C38  1  0.96170300  0.15843000  0.46175800  1
  C  C39  1  0.50095800  0.63566400  0.50130100  1
  C  C40  1  0.00095800  0.13566400  0.50130100  1
  C  C41  1  0.50055200  0.72676600  0.50039900  1
  C  C42  1  0.00055200  0.22676600  0.50039900  1
  C  C43  1  0.48024900  0.79783200  0.52618900  1
  C  C44  1  0.99985100  0.36619600  0.49861100  1
  C  C45  1  0.49985100  0.86619600  0.49861100  1
  C  C46  1  0.01973400  0.34300300  0.47172900  1
  C  C47  1  0.98018900  0.34319400  0.52606400  1
  C  C48  1  0.51973400  0.84300300  0.47172900  1
  C  C49  1  0.58596300  0.49166200  0.08995000  1
  C  C50  1  0.48018900  0.84319400  0.52606400  1
  C  C51  1  0.52401100  0.52079700  0.74140000  1
  C  C52  1  0.47620500  0.52104800  0.25970000  1
  C  C53  1  0.02401100  0.02079700  0.74140000  1
  C  C54  1  0.97620500  0.02104800  0.25970000  1
  C  C55  1  0.49168900  0.50362600  0.67597500  1
  C  C56  1  0.50865000  0.50382600  0.32490700  1
  C  C57  1  0.99168900  0.00362600  0.67597500  1
  C  C58  1  0.00865000  0.00382600  0.32490700  1
  C  C59  1  0.52023500  0.52384800  0.80370500  1
  C  C60  1  0.91380000  0.98973400  0.91036700  1
  C  C61  1  0.47996200  0.52457600  0.19744200  1
  C  C62  1  0.02023500  0.02384800  0.80370500  1
  C  C63  1  0.97996200  0.02457600  0.19744200  1
  C  C64  1  0.50700300  0.48918100  0.82315500  1
  C  C65  1  0.49286900  0.49002800  0.17724400  1
  C  C66  1  0.00700300  0.98918100  0.82315500  1
  C  C67  1  0.99286900  0.99002800  0.17724400  1
  C  C68  1  0.29728000  0.52892900  0.80945500  1
  C  C69  1  0.70259000  0.52993100  0.18984900  1
  C  C70  1  0.79728000  0.02892900  0.80945500  1
  C  C71  1  0.08596300  0.99166200  0.08995000  1
  C  C72  1  0.20259000  0.02993100  0.18984900  1
  C  C73  1  0.34242400  0.52809400  0.85570100  1
  C  C74  1  0.65743400  0.52938500  0.14385700  1
  C  C75  1  0.84242400  0.02809400  0.85570100  1
  C  C76  1  0.15743400  0.02938500  0.14385700  1
  C  C77  1  0.36528900  0.49048600  0.86096400  1
  C  C78  1  0.63441800  0.49207600  0.13907400  1
  C  C79  1  0.86528900  0.99048600  0.86096400  1
  C  C80  1  0.13441800  0.99207600  0.13907400  1
  C  C81  1  0.34151800  0.45386400  0.81900200  1
  C  C82  1  0.50433400  0.48985200  0.88657700  1
  C  C83  1  0.65792000  0.45543600  0.18118500  1
  C  C84  1  0.84151800  0.95386400  0.81900200  1
  C  C85  1  0.15792000  0.95543600  0.18118500  1
  C  C86  1  0.29627400  0.45518200  0.77276700  1
  C  C87  1  0.70317400  0.45645800  0.22732200  1
  C  C88  1  0.79627400  0.95518200  0.77276700  1
  C  C89  1  0.20317400  0.95645800  0.22732200  1
  C  C90  1  0.27387400  0.49278200  0.76723900  1
  C  C91  1  0.72578200  0.49377500  0.23235700  1
  C  C92  1  0.77387400  0.99278200  0.76723900  1
  C  C93  1  0.49548200  0.49124900  0.11380100  1
  C  C94  1  0.22578200  0.99377500  0.23235700  1
  C  C95  1  0.20219900  0.48017000  0.64613900  1
  C  C96  1  0.79743000  0.48143200  0.35358000  1
  C  C97  1  0.70219900  0.98017000  0.64613900  1
  C  C98  1  0.29743000  0.98143200  0.35358000  1
  C  C99  1  0.15698000  0.48245000  0.60133400  1
  C  C100  1  0.84266100  0.48350800  0.39825500  1
  C  C101  1  0.65698000  0.98245000  0.60133400  1
  C  C102  1  0.34266100  0.98350800  0.39825500  1
  C  C103  1  0.13437500  0.49905700  0.62862900  1
  C  C104  1  0.00433400  0.98985200  0.88657700  1
  C  C105  1  0.86526800  0.49921500  0.37044900  1
  C  C106  1  0.63437500  0.99905700  0.62862900  1
  C  C107  1  0.36526800  0.99921500  0.37044900  1
  C  C108  1  0.15822500  0.51360100  0.70158200  1
  C  C109  1  0.84147200  0.51308000  0.29716100  1
  C  C110  1  0.65822500  0.01360100  0.70158200  1
  C  C111  1  0.34147200  0.01308000  0.29716100  1
  C  C112  1  0.20336500  0.51135800  0.74581000  1
  C  C113  1  0.79631900  0.51114300  0.25308700  1
  C  C114  1  0.70336500  0.01135800  0.74581000  1
  C  C115  1  0.99548200  0.99124900  0.11380100  1
  C  C116  1  0.29631900  0.01114300  0.25308700  1
  C  C117  1  0.22569500  0.49438600  0.71888700  1
  C  C118  1  0.77396200  0.49505700  0.28052100  1
  C  C119  1  0.72569500  0.99438600  0.71888700  1
  C  C120  1  0.27396200  0.99505700  0.28052100  1
  C  C121  1  0.49933100  0.41503600  0.49940000  1
  C  C122  1  0.99933100  0.91503600  0.49940000  1
  C  C123  1  0.49475500  0.50187400  0.61297900  1
  C  C124  1  0.50569200  0.50192600  0.38797900  1
  C  C125  1  0.99475500  0.00187400  0.61297900  1
  C  C126  1  0.00032100  0.27490300  0.49980400  1
  C  C127  1  0.00569200  0.00192600  0.38797900  1
  C  C128  1  0.50114200  0.58744600  0.50156300  1
  C  C129  1  0.00114200  0.08744600  0.50156300  1
  C  C130  1  0.99973000  0.41458000  0.49822000  1
  C  C131  1  0.49973000  0.91458000  0.49822000  1
  C  C132  1  0.08593500  0.50066100  0.58139900  1
  C  C133  1  0.91368300  0.50066900  0.41756700  1
  C  C134  1  0.58593500  0.00066100  0.58139900  1
  C  C135  1  0.41368300  0.00066900  0.41756700  1
  C  C136  1  0.99987800  0.58728100  0.50076600  1
  O  O1  1  0.43476400  0.52737800  0.93329900  1
  O  O2  1  0.49768800  0.52930200  0.08822800  1
  O  O3  1  0.00421800  0.02766900  0.91501700  1
  O  O4  1  0.99768800  0.02930200  0.08822800  1
  O  O5  1  0.50175000  0.45188400  0.91177900  1
  O  O6  1  0.49597300  0.45348200  0.08576600  1
  O  O7  1  0.00175000  0.95188400  0.91177900  1
  O  O8  1  0.99597300  0.95348200  0.08576600  1
  O  O9  1  0.53704100  0.43580600  0.53798900  1
  O  O10  1  0.46151500  0.43556700  0.46081300  1
  O  O11  1  0.03704100  0.93580600  0.53798900  1
  O  O12  1  0.56524700  0.52946300  0.07031900  1
  O  O13  1  0.96151500  0.93556700  0.46081300  1
  O  O14  1  0.53349800  0.50243300  0.62532900  1
  O  O15  1  0.46694700  0.50056700  0.37559400  1
  O  O16  1  0.03349800  0.00243300  0.62532900  1
  O  O17  1  0.96694700  0.00056700  0.37559400  1
  O  O18  1  0.45800400  0.50006400  0.54628000  1
  O  O19  1  0.54248600  0.50207700  0.45471000  1
  O  O20  1  0.95800400  0.00006400  0.54628000  1
  O  O21  1  0.04248600  0.00207700  0.45471000  1
  O  O22  1  0.53903600  0.56698600  0.53970600  1
  O  O23  1  0.93476400  0.02737800  0.93329900  1
  O  O24  1  0.46336400  0.56674500  0.46343200  1
  O  O25  1  0.03903600  0.06698600  0.53970600  1
  O  O26  1  0.96336400  0.06674500  0.46343200  1
  O  O27  1  0.00043000  0.43514200  0.44688400  1
  O  O28  1  0.99908500  0.43542900  0.54942600  1
  O  O29  1  0.50043000  0.93514200  0.44688400  1
  O  O30  1  0.49908500  0.93542900  0.54942600  1
  O  O31  1  0.06485200  0.49984400  0.50908500  1
  O  O32  1  0.93474400  0.50191500  0.48986900  1
  O  O33  1  0.56485200  0.99984400  0.50908500  1
  O  O34  1  0.06524700  0.02946300  0.07031900  1
  O  O35  1  0.43474400  0.00191500  0.48986900  1
  O  O36  1  0.06542900  0.50176200  0.61331900  1
  O  O37  1  0.93416800  0.49976900  0.38561100  1
  O  O38  1  0.56542900  0.00176200  0.61331900  1
  O  O39  1  0.43416800  0.99976900  0.38561100  1
  O  O40  1  0.00040200  0.56636000  0.44949700  1
  O  O41  1  0.99928500  0.56664700  0.55214800  1
  O  O42  1  0.50040200  0.06636000  0.44949700  1
  O  O43  1  0.49928500  0.06664700  0.55214800  1
  O  O44  1  0.55930500  0.54052000  0.74906000  1
  O  O45  1  0.43447200  0.45177600  0.93046000  1
  O  O46  1  0.44092700  0.54050200  0.25245900  1
  O  O47  1  0.05930500  0.04052000  0.74906000  1
  O  O48  1  0.94092700  0.04050200  0.25245900  1
  O  O49  1  0.13506900  0.46709300  0.53030200  1
  O  O50  1  0.86461000  0.46879600  0.46965900  1
  O  O51  1  0.63506900  0.96709300  0.53030200  1
  O  O52  1  0.36461000  0.96879600  0.46965900  1
  O  O53  1  0.13776000  0.53139600  0.73059400  1
  O  O54  1  0.86203200  0.53000200  0.26774000  1
  O  O55  1  0.63776000  0.03139600  0.73059400  1
  O  O56  1  0.56513600  0.45381500  0.06670500  1
  O  O57  1  0.36203200  0.03000200  0.26774000  1
  O  O58  1  0.03922100  0.27535200  0.44485900  1
  O  O59  1  0.96138800  0.27574200  0.55468500  1
  O  O60  1  0.53922100  0.77535200  0.44485900  1
  O  O61  1  0.46138800  0.77574200  0.55468500  1
  O  O62  1  0.03518800  0.72673900  0.63066600  1
  O  O63  1  0.96445700  0.72627800  0.36956000  1
  O  O64  1  0.53518800  0.22673900  0.63066600  1
  O  O65  1  0.46445700  0.22627800  0.36956000  1
  O  O66  1  0.03690200  0.63756600  0.63216300  1
  O  O67  1  0.93447200  0.95177600  0.93046000  1
  O  O68  1  0.96289900  0.63710500  0.36891400  1
  O  O69  1  0.53690200  0.13756600  0.63216300  1
  O  O70  1  0.46289900  0.13710500  0.36891400  1
  O  O71  1  0.04042300  0.36456200  0.44603000  1
  O  O72  1  0.95931000  0.36493200  0.55125500  1
  O  O73  1  0.54042300  0.86456200  0.44603000  1
  O  O74  1  0.45931000  0.86493200  0.55125500  1
  O  O75  1  0.45284900  0.49165600  0.66417900  1
  O  O76  1  0.54751900  0.49225900  0.33647300  1
  O  O77  1  0.95284900  0.99165600  0.66417900  1
  O  O78  1  0.06513600  0.95381500  0.06670500  1
  O  O79  1  0.04751900  0.99225900  0.33647300  1
  O  O80  1  0.53583300  0.56086900  0.84701800  1
  O  O81  1  0.46464100  0.56189200  0.15485100  1
  O  O82  1  0.03583300  0.06086900  0.84701800  1
  O  O83  1  0.96464100  0.06189200  0.15485100  1
  O  O84  1  0.36380200  0.56467500  0.89722100  1
  O  O85  1  0.63613600  0.56583200  0.10181400  1
  O  O86  1  0.86380200  0.06467500  0.89722100  1
  O  O87  1  0.13613600  0.06583200  0.10181400  1
  O  O88  1  0.36220300  0.41617700  0.82142700  1
  O  O89  1  0.50421800  0.52766900  0.91501700  1
  O  O90  1  0.63690200  0.41813200  0.17919500  1
  O  O91  1  0.86220300  0.91617700  0.82142700  1
  O  O92  1  0.13690200  0.91813200  0.17919500  1
  O  O93  1  0.22345900  0.46525500  0.61675200  1
  O  O94  1  0.77613000  0.46734100  0.38334200  1
  O  O95  1  0.72345900  0.96525500  0.61675200  1
  O  O96  1  0.27613000  0.96734100  0.38334200  1
