# generated using pymatgen
data_ZnH15C28N3O4
_symmetry_space_group_name_H-M   'P 1'
_cell_length_a   17.47432300
_cell_length_b   18.25886600
_cell_length_c   19.49204900
_cell_angle_alpha   89.98944400
_cell_angle_beta   90.01302600
_cell_angle_gamma   86.09763700
_symmetry_Int_Tables_number   1
_chemical_formula_structural   ZnH15C28N3O4
_chemical_formula_sum   'Zn2 H30 C56 N6 O8'
_cell_volume   6204.73935112
_cell_formula_units_Z   2
loop_
 _symmetry_equiv_pos_site_id
 _symmetry_equiv_pos_as_xyz
  1  'x, y, z'
loop_
 _atom_site_type_symbol
 _atom_site_label
 _atom_site_symmetry_multiplicity
 _atom_site_fract_x
 _atom_site_fract_y
 _atom_site_fract_z
 _atom_site_occupancy
  Zn  Zn1  1  0.50085100  0.41685200  0.49696600  1
  Zn  Zn2  1  0.49914900  0.58314800  0.50303400  1
  H  H1  1  0.74171000  0.60341600  0.50791800  1
  H  H2  1  0.25829000  0.39658400  0.49208200  1
  H  H3  1  0.25263700  0.63116300  0.49871300  1
  H  H4  1  0.74736300  0.36883700  0.50128700  1
  H  H5  1  0.99584000  0.57959300  0.47453200  1
  H  H6  1  0.00416000  0.42040700  0.52546800  1
  H  H7  1  0.88665900  0.36340200  0.50418100  1
  H  H8  1  0.11334200  0.63659800  0.49581900  1
  H  H9  1  0.12091100  0.40205900  0.48744000  1
  H  H10  1  0.87908900  0.59794100  0.51256000  1
  H  H11  1  0.52324700  0.61752400  0.15286500  1
  H  H12  1  0.47675300  0.38247600  0.84713500  1
  H  H13  1  0.48184100  0.38986800  0.15859300  1
  H  H14  1  0.51816000  0.61013200  0.84140600  1
  H  H15  1  0.48402600  0.39242500  0.28185200  1
  H  H16  1  0.51597400  0.60757400  0.71814700  1
  H  H17  1  0.56457900  0.39733900  0.06361100  1
  H  H18  1  0.43542100  0.60266100  0.93639000  1
  H  H19  1  0.56276600  0.39424800  0.93949300  1
  H  H20  1  0.43723500  0.60575200  0.06050700  1
  H  H21  1  0.41434300  0.17056700  0.41886200  1
  H  H22  1  0.58565700  0.82943300  0.58113800  1
  H  H23  1  0.58970900  0.16339200  0.57205000  1
  H  H24  1  0.41029100  0.83660800  0.42795000  1
  H  H25  1  0.58630800  0.29695500  0.56914200  1
  H  H26  1  0.41369200  0.70304500  0.43085800  1
  H  H27  1  0.51295000  0.06875300  0.60723300  1
  H  H28  1  0.48705000  0.93124600  0.39276700  1
  H  H29  1  0.51057100  0.93648300  0.61104800  1
  H  H30  1  0.48942900  0.06351700  0.38895300  1
  C  C1  1  0.49735100  0.49437900  0.63457800  1
  C  C2  1  0.50264900  0.50562100  0.36542200  1
  C  C3  1  0.65023000  0.49056100  0.50213100  1
  C  C4  1  0.34977000  0.50943900  0.49786900  1
  C  C5  1  0.73428800  0.48657000  0.50366300  1
  C  C6  1  0.26571300  0.51343000  0.49633700  1
  C  C7  1  0.77271900  0.55019700  0.50650200  1
  C  C8  1  0.22728100  0.44980300  0.49349800  1
  C  C9  1  0.85172200  0.54697000  0.50818500  1
  C  C10  1  0.14827800  0.45303000  0.49181500  1
  C  C11  1  0.89357300  0.47977600  0.50649100  1
  C  C12  1  0.10642700  0.52022400  0.49350900  1
  C  C13  1  0.85491200  0.41631100  0.50478100  1
  C  C14  1  0.14508800  0.58368900  0.49521900  1
  C  C15  1  0.77587500  0.41949200  0.50303600  1
  C  C16  1  0.22412500  0.58050800  0.49696500  1
  C  C17  1  0.97808300  0.47278900  0.50888100  1
  C  C18  1  0.02191700  0.52721000  0.49111900  1
  C  C19  1  0.51406700  0.57052900  0.25175000  1
  C  C20  1  0.48593300  0.42947100  0.74825000  1
  C  C21  1  0.51310600  0.56813200  0.18100700  1
  C  C22  1  0.48689400  0.43186800  0.81899300  1
  C  C23  1  0.50199900  0.50362300  0.14662400  1
  C  C24  1  0.49800100  0.49637700  0.85337600  1
  C  C25  1  0.49208500  0.44085500  0.18402100  1
  C  C26  1  0.50791500  0.55914500  0.81597900  1
  C  C27  1  0.49277100  0.44267600  0.25464100  1
  C  C28  1  0.50722900  0.55732300  0.74536000  1
  C  C29  1  0.50326000  0.50725500  0.28963500  1
  C  C30  1  0.49674000  0.49274500  0.71036500  1
  C  C31  1  0.53506200  0.44231600  0.03623600  1
  C  C32  1  0.46493800  0.55768400  0.96376400  1
  C  C33  1  0.53402800  0.44054900  0.96554900  1
  C  C34  1  0.46597200  0.55945100  0.03445100  1
  C  C35  1  0.49896200  0.49821800  0.92875500  1
  C  C36  1  0.50103800  0.50178100  0.07124500  1
  C  C37  1  0.45385700  0.27244900  0.45099600  1
  C  C38  1  0.54614300  0.72755000  0.54900400  1
  C  C39  1  0.45401700  0.19696300  0.45166600  1
  C  C40  1  0.54598300  0.80303700  0.54833500  1
  C  C41  1  0.50213500  0.15637700  0.49557500  1
  C  C42  1  0.49786500  0.84362300  0.50442600  1
  C  C43  1  0.55008100  0.19307400  0.53780900  1
  C  C44  1  0.44991900  0.80692600  0.46219100  1
  C  C45  1  0.54880100  0.26862200  0.53570700  1
  C  C46  1  0.45119900  0.73137700  0.46429400  1
  C  C47  1  0.50839300  0.03904300  0.55964300  1
  C  C48  1  0.49160700  0.96095700  0.44035700  1
  C  C49  1  0.50694000  0.96369400  0.56181800  1
  C  C50  1  0.49306000  0.03630600  0.43818200  1
  C  C51  1  0.49852900  0.92404900  0.50219600  1
  C  C52  1  0.50147100  0.07595100  0.49780400  1
  C  C53  1  0.40196400  0.31307500  0.40573400  1
  C  C54  1  0.59803600  0.68692500  0.59426600  1
  C  C55  1  0.52872300  0.63938400  0.28318500  1
  C  C56  1  0.47127700  0.36061600  0.71681500  1
  N  N1  1  0.50090100  0.30733200  0.49296700  1
  N  N2  1  0.49909900  0.69266800  0.50703300  1
  N  N3  1  0.35993200  0.34550800  0.36915500  1
  N  N4  1  0.64006800  0.65449100  0.63084500  1
  N  N5  1  0.54062500  0.69496300  0.30816800  1
  N  N6  1  0.45937500  0.30503700  0.69183200  1
  O  O1  1  0.49934800  0.43272000  0.59983400  1
  O  O2  1  0.50065200  0.56728000  0.40016600  1
  O  O3  1  0.49701600  0.55867600  0.60437700  1
  O  O4  1  0.50298400  0.44132400  0.39562300  1
  O  O5  1  0.61514100  0.42937700  0.49948500  1
  O  O6  1  0.38485900  0.57062200  0.50051500  1
  O  O7  1  0.61344000  0.55548900  0.50367500  1
  O  O8  1  0.38656000  0.44451100  0.49632500  1
