# generated using pymatgen
data_Zn3H17C38ClO12
_symmetry_space_group_name_H-M   'P 1'
_cell_length_a   21.87099600
_cell_length_b   21.86492400
_cell_length_c   22.22315100
_cell_angle_alpha   60.56112400
_cell_angle_beta   119.45655500
_cell_angle_gamma   89.95928100
_symmetry_Int_Tables_number   1
_chemical_formula_structural   Zn3H17C38ClO12
_chemical_formula_sum   'Zn6 H34 C76 Cl2 O24'
_cell_volume   7635.81457184
_cell_formula_units_Z   2
loop_
 _symmetry_equiv_pos_site_id
 _symmetry_equiv_pos_as_xyz
  1  'x, y, z'
loop_
 _atom_site_type_symbol
 _atom_site_label
 _atom_site_symmetry_multiplicity
 _atom_site_fract_x
 _atom_site_fract_y
 _atom_site_fract_z
 _atom_site_occupancy
  Zn  Zn1  1  0.50108900  0.42990900  0.50302500  1
  Zn  Zn2  1  0.49391500  0.57316600  0.49324700  1
  Zn  Zn3  1  0.06645600  0.00400300  0.49449900  1
  Zn  Zn4  1  0.93138500  0.00087300  0.50110800  1
  Zn  Zn5  1  0.94472300  0.54231800  0.40698500  1
  Zn  Zn6  1  0.05223100  0.45942800  0.59457400  1
  H  H1  1  0.36972900  0.77325200  0.04812500  1
  H  H2  1  0.32472300  0.72008700  0.94479900  1
  H  H3  1  0.22317500  0.86986300  0.94456000  1
  H  H4  1  0.19104800  0.75883800  0.05112000  1
  H  H5  1  0.14601100  0.70568600  0.94785000  1
  H  H6  1  0.29259900  0.60896800  0.05149300  1
  H  H7  1  0.64773300  0.60350700  0.40652100  1
  H  H8  1  0.71018700  0.37859300  0.65615800  1
  H  H9  1  0.81746500  0.26978700  0.76674800  1
  H  H10  1  0.92793000  0.25994000  0.76463500  1
  H  H11  1  0.93169300  0.35893400  0.65396900  1
  H  H12  1  0.75992800  0.59995500  0.40925900  1
  H  H13  1  0.62343000  0.34421500  0.94708100  1
  H  H14  1  0.67555400  0.18765900  0.05380800  1
  H  H15  1  0.76732800  0.34437800  0.04814100  1
  H  H16  1  0.80154400  0.34151100  0.94211000  1
  H  H17  1  0.85355700  0.18505500  0.04872300  1
  H  H18  1  0.70982000  0.18482400  0.94785300  1
  H  H19  1  0.28286600  0.61330600  0.33674400  1
  H  H20  1  0.17161300  0.71571900  0.21756900  1
  H  H21  1  0.06064400  0.72800600  0.21826700  1
  H  H22  1  0.06009200  0.63824400  0.33568100  1
  H  H23  1  0.24263600  0.41051900  0.60107200  1
  H  H24  1  0.95591900  0.77607400  0.56445300  1
  H  H25  1  0.00009400  0.93164600  0.35613500  1
  H  H26  1  0.03631800  0.91295400  0.27881800  1
  H  H27  1  0.05658800  0.79216200  0.29902200  1
  H  H28  1  0.03753700  0.69124000  0.39423200  1
  H  H29  1  0.01150900  0.24201700  0.40896400  1
  H  H30  1  0.02482300  0.06029800  0.65352800  1
  H  H31  1  0.01755500  0.06189600  0.75732300  1
  H  H32  1  0.00095300  0.17708900  0.74947700  1
  H  H33  1  0.99390300  0.28943500  0.63968500  1
  H  H34  1  0.00806200  0.35331000  0.40860900  1
  C  C1  1  0.62302000  0.49940800  0.51073100  1
  C  C2  1  0.42395000  0.57848100  0.33488600  1
  C  C3  1  0.37249800  0.50315700  0.48672600  1
  C  C4  1  0.57101700  0.42463500  0.66132000  1
  C  C5  1  0.29506200  0.72825000  0.97017900  1
  C  C6  1  0.31836600  0.75855300  0.02411800  1
  C  C7  1  0.38128100  0.61998100  0.24518300  1
  C  C8  1  0.13067500  0.86411600  0.75076700  1
  C  C9  1  0.27620700  0.66875300  0.02596800  1
  C  C10  1  0.29866100  0.69991600  0.07819200  1
  C  C11  1  0.19738700  0.72036600  0.97185700  1
  C  C12  1  0.21708800  0.77900600  0.91777900  1
  C  C13  1  0.22068400  0.75069100  0.02570500  1
  C  C14  1  0.23959000  0.81007700  0.97009300  1
  C  C15  1  0.34445000  0.65563000  0.16978100  1
  C  C16  1  0.16995700  0.82514000  0.82618200  1
  C  C17  1  0.75703600  0.37666600  0.65180000  1
  C  C18  1  0.81826800  0.31458000  0.71589200  1
  C  C19  1  0.88011800  0.30925700  0.71487500  1
  C  C20  1  0.88185100  0.36688800  0.65123700  1
  C  C21  1  0.82137200  0.43128100  0.58697400  1
  C  C22  1  0.75709500  0.43457500  0.58572300  1
  C  C23  1  0.69398600  0.49618300  0.51940000  1
  C  C24  1  0.69656700  0.55543300  0.45786200  1
  C  C25  1  0.75989900  0.55279900  0.45909400  1
  C  C26  1  0.82260900  0.49138900  0.52257700  1
  C  C27  1  0.70343000  0.22319500  0.02716500  1
  C  C28  1  0.67627900  0.30751000  0.97143200  1
  C  C29  1  0.61385100  0.38321100  0.75095700  1
  C  C30  1  0.86709100  0.14073000  0.24495900  1
  C  C31  1  0.72353300  0.22035100  0.97189400  1
  C  C32  1  0.69725000  0.30381500  0.91781700  1
  C  C33  1  0.80071500  0.22176700  0.02437700  1
  C  C34  1  0.77984100  0.22538100  0.07809200  1
  C  C35  1  0.77365800  0.30599700  0.96875800  1
  C  C36  1  0.75359800  0.30885200  0.02409800  1
  C  C37  1  0.65096900  0.34775300  0.82631300  1
  C  C38  1  0.82750200  0.17955700  0.16959600  1
  C  C39  1  0.23553400  0.61610100  0.34017900  1
  C  C40  1  0.17219100  0.67455500  0.27141100  1
  C  C41  1  0.11008800  0.68116500  0.27169000  1
  C  C42  1  0.11028600  0.62832900  0.33957700  1
  C  C43  1  0.17302100  0.56706100  0.40902500  1
  C  C44  1  0.23722500  0.56292400  0.41006300  1
  C  C45  1  0.30257600  0.50554000  0.48044500  1
  C  C46  1  0.30319400  0.45138400  0.54807100  1
  C  C47  1  0.23992900  0.45427000  0.54685600  1
  C  C48  1  0.17437000  0.51120700  0.47848000  1
  C  C49  1  0.98942700  0.89030800  0.48329800  1
  C  C50  1  0.08343400  0.91172600  0.66102900  1
  C  C51  1  0.00813800  0.11468600  0.51178200  1
  C  C52  1  0.91441500  0.09319500  0.33462400  1
  C  C53  1  0.99331500  0.62580600  0.49014000  1
  C  C54  1  0.88643300  0.49332200  0.51575100  1
  C  C55  1  0.00304400  0.37564400  0.51175800  1
  C  C56  1  0.11052300  0.50870700  0.48561100  1
  C  C57  1  0.00998000  0.87701600  0.36888000  1
  C  C58  1  0.02922300  0.86745600  0.32302300  1
  C  C59  1  0.04005100  0.80006100  0.33388000  1
  C  C60  1  0.02823400  0.74307600  0.38769500  1
  C  C61  1  0.00607000  0.75261000  0.43214600  1
  C  C62  1  0.00130800  0.81884900  0.42659800  1
  C  C63  1  0.98593200  0.82634600  0.47705000  1
  C  C64  1  0.96901000  0.77059300  0.52600000  1
  C  C65  1  0.97064900  0.70638400  0.52885000  1
  C  C66  1  0.99020000  0.69622700  0.48325500  1
  C  C67  1  0.01684700  0.11248400  0.64687300  1
  C  C68  1  0.01372700  0.11243900  0.70715000  1
  C  C69  1  0.00486500  0.17675000  0.70301300  1
  C  C70  1  0.00180300  0.24064700  0.64038300  1
  C  C71  1  0.00748300  0.24135000  0.58048200  1
  C  C72  1  0.01146800  0.17720400  0.58164200  1
  C  C73  1  0.01151600  0.17805300  0.51863400  1
  C  C74  1  0.01147300  0.24117400  0.45798800  1
  C  C75  1  0.00848800  0.30430300  0.45724400  1
  C  C76  1  0.00666300  0.30539800  0.51786800  1
  Cl  Cl1  1  0.38554300  0.38013500  0.63878200  1
  Cl  Cl2  1  0.94590000  0.63865100  0.58989500  1
  O  O1  1  0.59605700  0.44530900  0.51263500  1
  O  O2  1  0.58917100  0.55660400  0.50059700  1
  O  O3  1  0.44280500  0.50592200  0.37757100  1
  O  O4  1  0.44023400  0.61531500  0.36975800  1
  O  O5  1  0.40571900  0.44660200  0.49539500  1
  O  O6  1  0.39904700  0.55767400  0.48391300  1
  O  O7  1  0.55458100  0.38773000  0.62649900  1
  O  O8  1  0.55237800  0.49719500  0.61871100  1
  O  O9  1  0.04237100  0.91889700  0.48391700  1
  O  O10  1  0.94135800  0.91395100  0.49232600  1
  O  O11  1  0.11439200  0.93627100  0.61961200  1
  O  O12  1  0.01153000  0.93007000  0.62487500  1
  O  O13  1  0.05629900  0.09121600  0.50277600  1
  O  O14  1  0.95569800  0.08564200  0.51231200  1
  O  O15  1  0.98631000  0.07449100  0.37068000  1
  O  O16  1  0.88344100  0.06897500  0.37603600  1
  O  O17  1  0.95253100  0.62690000  0.42195400  1
  O  O18  1  0.03725000  0.56437800  0.56466600  1
  O  O19  1  0.87206900  0.52584400  0.44036200  1
  O  O20  1  0.95412800  0.46623900  0.58294700  1
  O  O21  1  0.95983000  0.43725700  0.43712700  1
  O  O22  1  0.04473000  0.37487600  0.57951200  1
  O  O23  1  0.04287100  0.53527400  0.41878200  1
  O  O24  1  0.12474800  0.47627300  0.56097100  1
