# generated using pymatgen
data_ZnH9C15N2O5
_symmetry_space_group_name_H-M   'P 1'
_cell_length_a   11.38554800
_cell_length_b   8.55943100
_cell_length_c   10.74534200
_cell_angle_alpha   90.00000000
_cell_angle_beta   104.01702700
_cell_angle_gamma   90.00000000
_symmetry_Int_Tables_number   1
_chemical_formula_structural   ZnH9C15N2O5
_chemical_formula_sum   'Zn2 H18 C30 N4 O10'
_cell_volume   1015.99365515
_cell_formula_units_Z   2
loop_
 _symmetry_equiv_pos_site_id
 _symmetry_equiv_pos_as_xyz
  1  'x, y, z'
loop_
 _atom_site_type_symbol
 _atom_site_label
 _atom_site_symmetry_multiplicity
 _atom_site_fract_x
 _atom_site_fract_y
 _atom_site_fract_z
 _atom_site_occupancy
  Zn  Zn1  1  0.13339700  0.50136400  0.51136000  1
  Zn  Zn2  1  0.86660300  0.50136400  0.48864000  1
  H  H1  1  0.09032800  0.36630500  0.93076400  1
  H  H2  1  0.99335400  0.61472500  0.11301700  1
  H  H3  1  0.90967200  0.36630500  0.06923600  1
  H  H4  1  0.00664600  0.61472500  0.88698300  1
  H  H5  1  0.07112800  0.35854400  0.12996900  1
  H  H6  1  0.87356200  0.71497600  0.90936000  1
  H  H7  1  0.92887200  0.35854400  0.87003100  1
  H  H8  1  0.12643800  0.71497600  0.09064100  1
  H  H9  1  0.72293800  0.50625600  0.67033400  1
  H  H10  1  0.27706200  0.50625600  0.32966600  1
  H  H11  1  0.67764700  0.49761600  0.27247900  1
  H  H12  1  0.32235300  0.49761600  0.72752100  1
  H  H13  1  0.06925100  0.99991500  0.59989100  1
  H  H14  1  0.93074900  0.99991500  0.40010900  1
  H  H15  1  0.72695300  0.40505500  0.87584100  1
  H  H16  1  0.64515900  0.28926100  0.75699900  1
  H  H17  1  0.27304700  0.40505600  0.12415900  1
  H  H18  1  0.35484100  0.28926100  0.24300100  1
  C  C1  1  0.05530300  0.00064300  0.69572100  1
  C  C2  1  0.94469700  0.00064300  0.30427900  1
  C  C3  1  0.03897900  0.14063500  0.75208100  1
  C  C4  1  0.96267600  0.86165500  0.24741100  1
  C  C5  1  0.96102100  0.14063500  0.24791900  1
  C  C6  1  0.03732400  0.86165500  0.75258900  1
  C  C7  1  0.01976300  0.14316000  0.87392000  1
  C  C8  1  0.98959800  0.86394400  0.12838100  1
  C  C9  1  0.98023700  0.14316000  0.12608100  1
  C  C10  1  0.01040200  0.86394400  0.87161900  1
  C  C11  1  0.00776000  0.29818400  0.93167700  1
  C  C12  1  0.02629900  0.71898900  0.07154300  1
  C  C13  1  0.99224000  0.29818400  0.06832300  1
  C  C14  1  0.97370200  0.71898900  0.92845700  1
  C  C15  1  0.00979900  0.00425200  0.93557800  1
  C  C16  1  0.99020100  0.00425200  0.06442200  1
  C  C17  1  0.48616300  0.49115200  0.66577500  1
  C  C18  1  0.51383700  0.49115200  0.33422500  1
  C  C19  1  0.36219100  0.49827300  0.64590500  1
  C  C20  1  0.63780900  0.49827300  0.35409500  1
  C  C21  1  0.33778100  0.49880500  0.42350300  1
  C  C22  1  0.66221900  0.49880500  0.57649700  1
  C  C23  1  0.46236700  0.49207300  0.43885700  1
  C  C24  1  0.53763400  0.49207300  0.56114300  1
  C  C25  1  0.02653000  0.28234900  0.67378600  1
  C  C26  1  0.97406300  0.72041700  0.32632000  1
  C  C27  1  0.97347000  0.28234900  0.32621500  1
  C  C28  1  0.02593700  0.72041700  0.67368000  1
  C  C29  1  0.55791000  0.48041400  0.79869900  1
  C  C30  1  0.44209000  0.48041400  0.20130100  1
  N  N1  1  0.70978400  0.50118300  0.47339400  1
  N  N2  1  0.29021600  0.50118300  0.52660600  1
  N  N3  1  0.64212200  0.35583400  0.83754200  1
  N  N4  1  0.35787800  0.35583400  0.16245800  1
  O  O1  1  0.91653800  0.33282900  0.62185000  1
  O  O2  1  0.08373200  0.66961500  0.37798800  1
  O  O3  1  0.08346200  0.33282900  0.37815100  1
  O  O4  1  0.91626800  0.66961500  0.62201200  1
  O  O5  1  0.12317600  0.33782400  0.64326400  1
  O  O6  1  0.87699300  0.66542900  0.35705300  1
  O  O7  1  0.87682400  0.33782400  0.35673600  1
  O  O8  1  0.12300700  0.66542900  0.64294700  1
  O  O9  1  0.53349300  0.56540900  0.87994400  1
  O  O10  1  0.46650700  0.56540900  0.12005600  1
