# generated using pymatgen
data_Fe2H15C48N4Cl5O16
_symmetry_space_group_name_H-M   'P 1'
_cell_length_a   17.28726400
_cell_length_b   8.78334000
_cell_length_c   16.36861700
_cell_angle_alpha   103.95341200
_cell_angle_beta   81.37955700
_cell_angle_gamma   108.30241300
_symmetry_Int_Tables_number   1
_chemical_formula_structural   Fe2H15C48N4Cl5O16
_chemical_formula_sum   'Fe2 H15 C48 N4 Cl5 O16'
_cell_volume   2282.61855479
_cell_formula_units_Z   1
loop_
 _symmetry_equiv_pos_site_id
 _symmetry_equiv_pos_as_xyz
  1  'x, y, z'
loop_
 _atom_site_type_symbol
 _atom_site_label
 _atom_site_symmetry_multiplicity
 _atom_site_fract_x
 _atom_site_fract_y
 _atom_site_fract_z
 _atom_site_occupancy
  Fe  Fe1  1  0.52947700  0.35850400  0.31781900  1
  Fe  Fe2  1  0.46823600  0.64526700  0.68789600  1
  H  H1  1  0.08343900  0.49825600  0.15494100  1
  H  H2  1  0.76077800  0.07219600  0.96611800  1
  H  H3  1  0.91280100  0.48901500  0.84530800  1
  H  H4  1  0.98755700  0.13800700  0.97786900  1
  H  H5  1  0.01008900  0.84973900  0.02267300  1
  H  H6  1  0.02171200  0.46295200  0.74745300  1
  H  H7  1  0.27970500  0.81405600  0.87013000  1
  H  H8  1  0.33034400  0.13779500  0.13405500  1
  H  H9  1  0.20543800  0.59219400  0.20121900  1
  H  H10  1  0.97486200  0.53363000  0.24917600  1
  H  H11  1  0.67409500  0.87248600  0.87472000  1
  H  H12  1  0.65526100  0.37283900  0.75274400  1
  H  H13  1  0.78550700  0.39570800  0.80222200  1
  H  H14  1  0.43918500  0.11230900  0.62891200  1
  H  H15  1  0.56255500  0.89267400  0.37699300  1
  C  C1  1  0.22859500  0.21734100  0.11446700  1
  C  C2  1  0.19539800  0.34428900  0.13483900  1
  C  C3  1  0.12172800  0.29203300  0.09963700  1
  C  C4  1  0.17477600  0.09020400  0.06286700  1
  C  C5  1  0.06782100  0.37770200  0.11476400  1
  C  C6  1  0.98217200  0.30659200  0.09548100  1
  C  C7  1  0.91833600  0.34949700  0.14657500  1
  C  C8  1  0.84818600  0.25549400  0.11164300  1
  C  C9  1  0.87056900  0.15812100  0.03755500  1
  C  C10  1  0.81468500  0.04399800  0.97604200  1
  C  C11  1  0.82553700  0.90037400  0.93710800  1
  C  C12  1  0.77064500  0.77569800  0.88771500  1
  C  C13  1  0.80150700  0.64613800  0.86703400  1
  C  C14  1  0.87592400  0.69633100  0.90090400  1
  C  C15  1  0.92908500  0.60976300  0.88546200  1
  C  C16  1  0.01489100  0.68372100  0.90364300  1
  C  C17  1  0.07853800  0.64386200  0.85112800  1
  C  C18  1  0.14870500  0.73789700  0.88589500  1
  C  C19  1  0.12687500  0.83410700  0.96061700  1
  C  C20  1  0.18413900  0.94441300  0.02217700  1
  C  C21  1  0.07811600  0.53691300  0.77482600  1
  C  C22  1  0.15232500  0.52673600  0.73252300  1
  C  C23  1  0.22574100  0.62587100  0.76687800  1
  C  C24  1  0.22375900  0.73274600  0.84476100  1
  C  C25  1  0.30170900  0.23381500  0.14598000  1
  C  C26  1  0.34023300  0.38238200  0.19658500  1
  C  C27  1  0.30550200  0.51158200  0.21527600  1
  C  C28  1  0.23217200  0.49203500  0.18487400  1
  C  C29  1  0.91855400  0.45865500  0.22193200  1
  C  C30  1  0.84441100  0.47089400  0.26347500  1
  C  C31  1  0.77053700  0.36912800  0.23051800  1
  C  C32  1  0.77272600  0.25890900  0.15299400  1
  C  C33  1  0.69792500  0.76823400  0.85959600  1
  C  C34  1  0.65611100  0.62110500  0.81038500  1
  C  C35  1  0.68733500  0.48723100  0.79149900  1
  C  C36  1  0.76127200  0.49943300  0.81873600  1
  C  C37  1  0.69152500  0.37798900  0.27767300  1
  C  C38  1  0.52865000  0.17352100  0.43455200  1
  C  C39  1  0.41642100  0.40157400  0.23254400  1
  C  C40  1  0.52411800  0.66038900  0.41529600  1
  C  C41  1  0.53387400  0.83615500  0.42955600  1
  C  C42  1  0.50151000  0.91634900  0.49964900  1
  C  C43  1  0.50028600  0.08909100  0.50630500  1
  C  C44  1  0.46754000  0.16893900  0.57627300  1
  C  C45  1  0.58002800  0.60307300  0.77510400  1
  C  C46  1  0.47621200  0.34432300  0.59008700  1
  C  C47  1  0.30543900  0.61923400  0.72224500  1
  C  C48  1  0.47234700  0.83146000  0.57118400  1
  N  N1  1  0.10909700  0.13692300  0.05488400  1
  N  N2  1  0.95287000  0.18860400  0.02857100  1
  N  N3  1  0.89066300  0.85237400  0.94476000  1
  N  N4  1  0.04445400  0.80145700  0.97082700  1
  Cl  Cl1  1  0.34926600  0.69847900  0.28255900  1
  Cl  Cl2  1  0.68374400  0.11382000  0.11336600  1
  Cl  Cl3  1  0.14949400  0.38555200  0.63591900  1
  Cl  Cl4  1  0.84852800  0.61828800  0.35796100  1
  Cl  Cl5  1  0.26671800  0.87908100  0.03506400  1
  O  O1  1  0.62235400  0.30691800  0.24188600  1
  O  O2  1  0.59838700  0.17157500  0.39058200  1
  O  O3  1  0.68957900  0.45958200  0.35597700  1
  O  O4  1  0.48491000  0.25922500  0.41781500  1
  O  O5  1  0.43171200  0.27560600  0.24976500  1
  O  O6  1  0.46804600  0.54766900  0.25240100  1
  O  O7  1  0.57609600  0.60027100  0.36049800  1
  O  O8  1  0.45506600  0.56128200  0.44028300  1
  O  O9  1  0.56349700  0.72933500  0.75961700  1
  O  O10  1  0.53215300  0.45514600  0.74953500  1
  O  O11  1  0.42332900  0.40323700  0.64414200  1
  O  O12  1  0.54524000  0.44453500  0.56587200  1
  O  O13  1  0.40181600  0.83193300  0.61374800  1
  O  O14  1  0.37304100  0.69425700  0.76057600  1
  O  O15  1  0.51574600  0.74592000  0.58882700  1
  O  O16  1  0.30985300  0.53785900  0.64409900  1
