# generated using pymatgen
data_Cu2H28C43(N3O13)2
_symmetry_space_group_name_H-M   'P 1'
_cell_length_a   10.77172300
_cell_length_b   15.52818300
_cell_length_c   17.05363600
_cell_angle_alpha   96.33053000
_cell_angle_beta   90.00244600
_cell_angle_gamma   92.86007700
_symmetry_Int_Tables_number   1
_chemical_formula_structural   Cu2H28C43(N3O13)2
_chemical_formula_sum   'Cu2 H28 C43 N6 O26'
_cell_volume   2831.51220061
_cell_formula_units_Z   1
loop_
 _symmetry_equiv_pos_site_id
 _symmetry_equiv_pos_as_xyz
  1  'x, y, z'
loop_
 _atom_site_type_symbol
 _atom_site_label
 _atom_site_symmetry_multiplicity
 _atom_site_fract_x
 _atom_site_fract_y
 _atom_site_fract_z
 _atom_site_occupancy
  Cu  Cu1  1  0.49263100  0.41080400  0.49087900  1
  Cu  Cu2  1  0.50415300  0.58384200  0.50354600  1
  H  H1  1  0.08138700  0.37939000  0.42222900  1
  H  H2  1  0.88264800  0.36789500  0.43637700  1
  H  H3  1  0.08457100  0.49601300  0.62734400  1
  H  H4  1  0.88242400  0.52740900  0.62880500  1
  H  H5  1  0.11252000  0.61164800  0.43933900  1
  H  H6  1  0.10678200  0.51272800  0.37682100  1
  H  H7  1  0.90773600  0.61418700  0.44458000  1
  H  H8  1  0.91006200  0.61737100  0.57571800  1
  H  H9  1  0.57011800  0.36459000  0.08965100  1
  H  H10  1  0.49518900  0.64656500  0.75030400  1
  H  H11  1  0.47517300  0.66086000  0.89227300  1
  H  H12  1  0.47804200  0.62523000  0.26390700  1
  H  H13  1  0.59991200  0.27988000  0.58002900  1
  H  H14  1  0.59270400  0.12527100  0.57627600  1
  H  H15  1  0.66326700  0.88918300  0.60412500  1
  H  H16  1  0.65299100  0.73034700  0.59936800  1
  H  H17  1  0.36048000  0.26835600  0.38570900  1
  H  H18  1  0.38184400  0.86720900  0.42423800  1
  H  H19  1  0.37711200  0.71236600  0.42300100  1
  H  H20  1  0.14504500  0.21131600  0.53685300  1
  H  H21  1  0.16906700  0.74811000  0.59784500  1
  H  H22  1  0.53165100  0.23107600  0.71035300  1
  H  H23  1  0.31763700  0.31204100  0.97746200  1
  H  H24  1  0.68195800  0.27161900  0.30427900  1
  H  H25  1  0.45072500  0.77914200  0.13483400  1
  H  H26  1  0.25877800  0.98573100  0.30079600  1
  H  H27  1  0.81657200  0.23234900  0.58138000  1
  H  H28  1  0.78766800  0.54008800  0.25918500  1
  C  C1  1  0.50431900  0.49183700  0.34556100  1
  C  C2  1  0.25871900  0.49666500  0.49829500  1
  C  C3  1  0.49377300  0.50267300  0.64908200  1
  C  C4  1  0.73776900  0.49765200  0.49929300  1
  C  C5  1  0.06122400  0.40227600  0.48458700  1
  C  C6  1  0.92080200  0.40281900  0.49183200  1
  C  C7  1  0.06870500  0.53810200  0.58067900  1
  C  C8  1  0.07320000  0.54411600  0.43385600  1
  C  C9  1  0.11801500  0.49565000  0.50101300  1
  C  C10  1  0.87767900  0.49693500  0.50014300  1
  C  C11  1  0.92900200  0.54791400  0.57566500  1
  C  C12  1  0.93179800  0.54537500  0.43329900  1
  C  C13  1  0.51438100  0.49051600  0.25889600  1
  C  C14  1  0.49636700  0.56691000  0.22607400  1
  C  C15  1  0.50764900  0.57207100  0.14581300  1
  C  C16  1  0.52983800  0.49710700  0.09615200  1
  C  C17  1  0.54843700  0.42147600  0.12864900  1
  C  C18  1  0.54425300  0.41715700  0.20891200  1
  C  C19  1  0.45725300  0.44270600  0.85871000  1
  C  C20  1  0.47024500  0.43339800  0.77703400  1
  C  C21  1  0.46093900  0.52485400  0.90018600  1
  C  C22  1  0.48425200  0.50689300  0.73630500  1
  C  C23  1  0.48500300  0.58812600  0.77918900  1
  C  C24  1  0.47294500  0.59683300  0.86002100  1
  C  C25  1  0.44005000  0.75155800  0.46321800  1
  C  C26  1  0.44362200  0.84042000  0.46407500  1
  C  C27  1  0.52407500  0.89115700  0.51536100  1
  C  C28  1  0.59930600  0.85077500  0.56396700  1
  C  C29  1  0.59330800  0.76150900  0.56132100  1
  C  C30  1  0.54001900  0.15266800  0.53202000  1
  C  C31  1  0.54477500  0.24158800  0.53492900  1
  C  C32  1  0.46945400  0.10268400  0.47429700  1
  C  C33  1  0.41119100  0.23450900  0.42643600  1
  C  C34  1  0.40317900  0.14459100  0.42086300  1
  C  C35  1  0.10984400  0.33467200  0.53218800  1
  C  C36  1  0.13270800  0.62379100  0.60921800  1
  C  C37  1  0.45888900  0.34544200  0.73569200  1
  C  C38  1  0.42467900  0.36613200  0.90010500  1
  C  C39  1  0.57763900  0.33471300  0.23632900  1
  C  C40  1  0.50655000  0.65890600  0.11857000  1
  C  C41  1  0.32485300  0.09664200  0.35772200  1
  C  C42  1  0.87702400  0.34812300  0.55514200  1
  C  C43  1  0.87988300  0.51354200  0.35321800  1
  N  N1  1  0.53520600  0.49320500  0.01290300  1
  N  N2  1  0.45589500  0.53594700  0.98352300  1
  N  N3  1  0.51210200  0.71348300  0.51251000  1
  N  N4  1  0.53141500  0.98279400  0.51936100  1
  N  N5  1  0.46310700  0.01094400  0.47019000  1
  N  N6  1  0.48392100  0.28107100  0.48148900  1
  O  O1  1  0.49939400  0.41896000  0.37754700  1
  O  O2  1  0.50194500  0.56723000  0.38830700  1
  O  O3  1  0.31318600  0.42279700  0.48794300  1
  O  O4  1  0.32275200  0.57124100  0.50382300  1
  O  O5  1  0.49590300  0.42732200  0.60614100  1
  O  O6  1  0.49625800  0.57580800  0.61696000  1
  O  O7  1  0.67384200  0.42321300  0.49028500  1
  O  O8  1  0.68395200  0.57228700  0.50733900  1
  O  O9  1  0.15475800  0.35379300  0.59779900  1
  O  O10  1  0.10839900  0.24873200  0.49864500  1
  O  O11  1  0.19451600  0.63026300  0.66966000  1
  O  O12  1  0.12002500  0.69659700  0.56957500  1
  O  O13  1  0.36111000  0.31853100  0.70378100  1
  O  O14  1  0.55743500  0.29089800  0.73663800  1
  O  O15  1  0.48700400  0.30236200  0.89183400  1
  O  O16  1  0.32590700  0.36839300  0.95280200  1
  O  O17  1  0.53759600  0.26630400  0.20121500  1
  O  O18  1  0.66654500  0.33357700  0.29538800  1
  O  O19  1  0.57204200  0.67721600  0.06387300  1
  O  O20  1  0.43856900  0.72303600  0.15957700  1
  O  O21  1  0.26657600  0.13665600  0.31367000  1
  O  O22  1  0.31654800  0.00642300  0.34656800  1
  O  O23  1  0.88596800  0.37415100  0.62510700  1
  O  O24  1  0.83362200  0.26307900  0.53287100  1
  O  O25  1  0.90632000  0.44361900  0.31932000  1
  O  O26  1  0.80917000  0.56823100  0.31417900  1
