# generated using pymatgen
data_ZnH28C30N3O4
_symmetry_space_group_name_H-M   'P 1'
_cell_length_a   17.80604500
_cell_length_b   16.72131600
_cell_length_c   19.31282400
_cell_angle_alpha   90.00000000
_cell_angle_beta   90.00611900
_cell_angle_gamma   90.00000000
_symmetry_Int_Tables_number   1
_chemical_formula_structural   ZnH28C30N3O4
_chemical_formula_sum   'Zn2 H56 C60 N6 O8'
_cell_volume   5750.20994094
_cell_formula_units_Z   2
loop_
 _symmetry_equiv_pos_site_id
 _symmetry_equiv_pos_as_xyz
  1  'x, y, z'
loop_
 _atom_site_type_symbol
 _atom_site_label
 _atom_site_symmetry_multiplicity
 _atom_site_fract_x
 _atom_site_fract_y
 _atom_site_fract_z
 _atom_site_occupancy
  Zn  Zn1  1  0.50000000  0.59126800  0.50000000  1
  Zn  Zn2  1  0.50000000  0.40873200  0.50000000  1
  H  H1  1  0.51143200  0.62796800  0.27952100  1
  H  H2  1  0.48794600  0.37207000  0.72051800  1
  H  H3  1  0.48856800  0.62796800  0.72047900  1
  H  H4  1  0.51205400  0.37207000  0.27948200  1
  H  H5  1  0.50854700  0.62813300  0.15458300  1
  H  H6  1  0.49087600  0.37194000  0.84545800  1
  H  H7  1  0.49145300  0.62813300  0.84541700  1
  H  H8  1  0.50912400  0.37194000  0.15454200  1
  H  H9  1  0.73747900  0.62642500  0.50502700  1
  H  H10  1  0.26243100  0.37362200  0.49265700  1
  H  H11  1  0.26252000  0.62642500  0.49497300  1
  H  H12  1  0.73756900  0.37362200  0.50734300  1
  H  H13  1  0.43651500  0.86993900  0.40866500  1
  H  H14  1  0.56246700  0.13003600  0.59190900  1
  H  H15  1  0.56348500  0.86993900  0.59133500  1
  H  H16  1  0.43753300  0.13003600  0.40809100  1
  H  H17  1  0.80845400  0.72556200  0.45335900  1
  H  H18  1  0.81755600  0.73097000  0.54768900  1
  H  H19  1  0.88699200  0.77555400  0.49261200  1
  H  H20  1  0.93141800  0.65026100  0.54343500  1
  H  H21  1  0.92666600  0.64636100  0.45007100  1
  H  H22  1  0.18224400  0.27015800  0.44833400  1
  H  H23  1  0.19138900  0.27341600  0.54273800  1
  H  H24  1  0.11280200  0.22438200  0.50266600  1
  H  H25  1  0.07324100  0.35260500  0.54740400  1
  H  H26  1  0.06846100  0.35085000  0.45398800  1
  H  H27  1  0.19154600  0.72556200  0.54664100  1
  H  H28  1  0.18244400  0.73097000  0.45231100  1
  H  H29  1  0.11300800  0.77555400  0.50738800  1
  H  H30  1  0.06858200  0.65026100  0.45656500  1
  H  H31  1  0.07333400  0.64636100  0.54992800  1
  H  H32  1  0.81775500  0.27015800  0.55166600  1
  H  H33  1  0.80861100  0.27341600  0.45726200  1
  H  H34  1  0.88719800  0.22438200  0.49733400  1
  H  H35  1  0.92675900  0.35260500  0.45259600  1
  H  H36  1  0.93153900  0.35085000  0.54601200  1
  H  H37  1  0.31761500  0.75654000  0.45671900  1
  H  H38  1  0.32782400  0.80734000  0.37419300  1
  H  H39  1  0.29414100  0.70601100  0.37661000  1
  H  H40  1  0.43534800  0.73185600  0.34456600  1
  H  H41  1  0.40754100  0.65271300  0.40073900  1
  H  H42  1  0.67084900  0.19199700  0.62696800  1
  H  H43  1  0.68234700  0.24276500  0.54455600  1
  H  H44  1  0.70514000  0.29306100  0.62494200  1
  H  H45  1  0.59245900  0.34720000  0.59921100  1
  H  H46  1  0.56362100  0.26871300  0.65571200  1
  H  H47  1  0.68238500  0.75654000  0.54328100  1
  H  H48  1  0.67217600  0.80734000  0.62580600  1
  H  H49  1  0.70585900  0.70601100  0.62339000  1
  H  H50  1  0.56465200  0.73185600  0.65543400  1
  H  H51  1  0.59245900  0.65271300  0.59926100  1
  H  H52  1  0.32915100  0.19199700  0.37303200  1
  H  H53  1  0.31765300  0.24276500  0.45544400  1
  H  H54  1  0.29485900  0.29306100  0.37505800  1
  H  H55  1  0.40754100  0.34720000  0.40078900  1
  H  H56  1  0.43637900  0.26871300  0.34428800  1
  C  C1  1  0.35285900  0.50000600  0.49260300  1
  C  C2  1  0.64714100  0.50000600  0.50739700  1
  C  C3  1  0.50943900  0.50000300  0.36469500  1
  C  C4  1  0.49056100  0.50000300  0.63530500  1
  C  C5  1  0.51111600  0.57134300  0.25265300  1
  C  C6  1  0.48855800  0.42870400  0.74736800  1
  C  C7  1  0.48888400  0.57134300  0.74734600  1
  C  C8  1  0.51144200  0.42870400  0.25263200  1
  C  C9  1  0.50947700  0.57138200  0.18129000  1
  C  C10  1  0.49021100  0.42868600  0.81873200  1
  C  C11  1  0.49052300  0.57138200  0.81870900  1
  C  C12  1  0.50978900  0.42868600  0.18126800  1
  C  C13  1  0.50819400  0.50003900  0.14510300  1
  C  C14  1  0.49180600  0.50003900  0.85489700  1
  C  C15  1  0.51144700  0.50001600  0.28878800  1
  C  C16  1  0.48855300  0.50001600  0.71121200  1
  C  C17  1  0.49570900  0.50004500  0.93082000  1
  C  C18  1  0.50429100  0.50004500  0.06918000  1
  C  C19  1  0.84700900  0.57206300  0.50256800  1
  C  C20  1  0.15293800  0.42801600  0.49618200  1
  C  C21  1  0.15299100  0.57206300  0.49743200  1
  C  C22  1  0.84706200  0.42801600  0.50381800  1
  C  C23  1  0.76902600  0.57158700  0.50530400  1
  C  C24  1  0.23092200  0.42847800  0.49343600  1
  C  C25  1  0.23097400  0.57158700  0.49469600  1
  C  C26  1  0.76907800  0.42847800  0.50656400  1
  C  C27  1  0.73000100  0.50003100  0.50745500  1
  C  C28  1  0.26999900  0.50003200  0.49254500  1
  C  C29  1  0.88528800  0.50004900  0.50252300  1
  C  C30  1  0.11471200  0.50004900  0.49747700  1
  C  C31  1  0.96612700  0.50005900  0.50068000  1
  C  C32  1  0.03387300  0.50005900  0.49932000  1
  C  C33  1  0.46412100  0.83672600  0.44929800  1
  C  C34  1  0.53533500  0.16326900  0.55101900  1
  C  C35  1  0.53587800  0.83672600  0.55070100  1
  C  C36  1  0.46466500  0.16326900  0.44898100  1
  C  C37  1  0.46082600  0.75413900  0.45109000  1
  C  C38  1  0.53883600  0.24584700  0.54913300  1
  C  C39  1  0.53917400  0.75413900  0.54891000  1
  C  C40  1  0.46116400  0.24584700  0.45086700  1
  C  C41  1  0.50000000  0.87820700  0.50000000  1
  C  C42  1  0.50000000  0.12178700  0.50000000  1
  C  C43  1  0.50000000  0.96397800  0.50000000  1
  C  C44  1  0.50000000  0.03601600  0.50000000  1
  C  C45  1  0.89294100  0.64762000  0.49833600  1
  C  C46  1  0.84773500  0.72444500  0.49792400  1
  C  C47  1  0.10694700  0.35242300  0.49911800  1
  C  C48  1  0.15209100  0.27556900  0.49821200  1
  C  C49  1  0.10705900  0.64762000  0.50166400  1
  C  C50  1  0.15226500  0.72444500  0.50207600  1
  C  C51  1  0.89305300  0.35242300  0.50088200  1
  C  C52  1  0.84790900  0.27556900  0.50178800  1
  C  C53  1  0.41230800  0.71721000  0.39636500  1
  C  C54  1  0.33291500  0.74926100  0.40144000  1
  C  C55  1  0.58717100  0.28277900  0.60399600  1
  C  C56  1  0.66640700  0.25011800  0.59968200  1
  C  C57  1  0.58769200  0.71721000  0.60363500  1
  C  C58  1  0.66708500  0.74926100  0.59856000  1
  C  C59  1  0.41282900  0.28277900  0.39600400  1
  C  C60  1  0.33359300  0.25011800  0.40031800  1
  N  N1  1  0.50208600  0.43053600  0.03416600  1
  N  N2  1  0.49791600  0.56955600  0.96583300  1
  N  N3  1  0.49791300  0.43053600  0.96583400  1
  N  N4  1  0.50208400  0.56955600  0.03416700  1
  N  N5  1  0.50000000  0.71150200  0.50000000  1
  N  N6  1  0.50000000  0.28849200  0.50000000  1
  O  O1  1  0.38826300  0.56893900  0.49405800  1
  O  O2  1  0.61174000  0.43106100  0.50594700  1
  O  O3  1  0.61173700  0.56893900  0.50594200  1
  O  O4  1  0.38826000  0.43106100  0.49405300  1
  O  O5  1  0.50727500  0.56888100  0.39707700  1
  O  O6  1  0.49272300  0.43112100  0.60292400  1
  O  O7  1  0.49272500  0.56888100  0.60292300  1
  O  O8  1  0.50727700  0.43112100  0.39707600  1
