# generated using pymatgen
data_CuH18C21(NO2)3
_symmetry_space_group_name_H-M   'P 1'
_cell_length_a   16.04236800
_cell_length_b   14.61640600
_cell_length_c   11.82481200
_cell_angle_alpha   90.00000000
_cell_angle_beta   89.98625000
_cell_angle_gamma   90.00000000
_symmetry_Int_Tables_number   1
_chemical_formula_structural   CuH18C21(NO2)3
_chemical_formula_sum   'Cu2 H36 C42 N6 O12'
_cell_volume   2772.70269558
_cell_formula_units_Z   2
loop_
 _symmetry_equiv_pos_site_id
 _symmetry_equiv_pos_as_xyz
  1  'x, y, z'
loop_
 _atom_site_type_symbol
 _atom_site_label
 _atom_site_symmetry_multiplicity
 _atom_site_fract_x
 _atom_site_fract_y
 _atom_site_fract_z
 _atom_site_occupancy
  Cu  Cu1  1  0.49523300  0.58711600  0.51232200  1
  Cu  Cu2  1  0.49802800  0.40402900  0.51214200  1
  H  H1  1  0.60750300  0.07765300  0.61402700  1
  H  H2  1  0.38572800  0.91349200  0.41045400  1
  H  H3  1  0.38853800  0.08177800  0.41021700  1
  H  H4  1  0.60469400  0.90937000  0.61426300  1
  H  H5  1  0.10478400  0.65032300  0.69343300  1
  H  H6  1  0.04429300  0.74238800  0.63162400  1
  H  H7  1  0.23426200  0.71993400  0.61870100  1
  H  H8  1  0.17707600  0.80067900  0.70262300  1
  H  H9  1  0.23487100  0.72913300  0.43039100  1
  H  H10  1  0.17925500  0.81845500  0.35858400  1
  H  H11  1  0.10494200  0.67006600  0.34204800  1
  H  H12  1  0.04566800  0.75554700  0.41952000  1
  H  H13  1  0.86695000  0.36017200  0.68666600  1
  H  H14  1  0.93203200  0.26235300  0.65642500  1
  H  H15  1  0.74598600  0.28372200  0.59963300  1
  H  H16  1  0.79144100  0.21197100  0.70597400  1
  H  H17  1  0.76685000  0.25609400  0.41618000  1
  H  H18  1  0.82541600  0.15796900  0.37088000  1
  H  H19  1  0.90866200  0.29929300  0.34682100  1
  H  H20  1  0.95270100  0.22142800  0.45174400  1
  H  H21  1  0.82757100  0.64703300  0.38595500  1
  H  H22  1  0.92317100  0.69728700  0.33665600  1
  H  H23  1  0.77394000  0.78313100  0.44956400  1
  H  H24  1  0.84348800  0.82759800  0.34406100  1
  H  H25  1  0.79895900  0.81608300  0.63526800  1
  H  H26  1  0.90594300  0.82570600  0.67795800  1
  H  H27  1  0.81126300  0.66312300  0.60900000  1
  H  H28  1  0.90794300  0.67161400  0.68656000  1
  H  H29  1  0.11455100  0.36106600  0.33622300  1
  H  H30  1  0.07486200  0.24721500  0.34796000  1
  H  H31  1  0.24694900  0.31730000  0.41080900  1
  H  H32  1  0.21578300  0.22465400  0.32372900  1
  H  H33  1  0.24177600  0.31063800  0.59203100  1
  H  H34  1  0.21208200  0.20934700  0.66464400  1
  H  H35  1  0.10558300  0.33910300  0.66996000  1
  H  H36  1  0.07038800  0.22680100  0.62999200  1
  C  C1  1  0.33663200  0.49229200  0.51173700  1
  C  C2  1  0.65658400  0.49877800  0.51263700  1
  C  C3  1  0.49698400  0.49538000  0.29519400  1
  C  C4  1  0.49628600  0.49576500  0.72927100  1
  C  C5  1  0.55717400  0.94726400  0.56947400  1
  C  C6  1  0.43605600  0.04388200  0.45500900  1
  C  C7  1  0.43443700  0.94955200  0.45520600  1
  C  C8  1  0.55879300  0.04159300  0.56927800  1
  C  C9  1  0.49367700  0.80308100  0.51233300  1
  C  C10  1  0.49955900  0.18806300  0.51214100  1
  C  C11  1  0.49690400  0.49548500  0.17384000  1
  C  C12  1  0.49637100  0.49566100  0.85062500  1
  C  C13  1  0.49674800  0.49554500  0.07193700  1
  C  C14  1  0.49652800  0.49560200  0.95252800  1
  C  C15  1  0.95815000  0.58119700  0.51064800  1
  C  C16  1  0.03523900  0.40890200  0.50567400  1
  C  C17  1  0.04478700  0.57383900  0.51116200  1
  C  C18  1  0.94848300  0.41586800  0.51005700  1
  C  C19  1  0.91092800  0.50098200  0.51155600  1
  C  C20  1  0.08227900  0.48889600  0.50825000  1
  C  C21  1  0.82120700  0.50162600  0.51243900  1
  C  C22  1  0.17195100  0.48769300  0.50950000  1
  C  C23  1  0.24712200  0.49009400  0.51067400  1
  C  C24  1  0.74602200  0.50044000  0.51264700  1
  C  C25  1  0.49499000  0.90124600  0.51247700  1
  C  C26  1  0.49824000  0.08989900  0.51200600  1
  C  C27  1  0.10058200  0.69948900  0.62223100  1
  C  C28  1  0.17639400  0.76134400  0.62243400  1
  C  C29  1  0.17734000  0.77119400  0.43190400  1
  C  C30  1  0.10112600  0.71073900  0.42105100  1
  C  C31  1  0.87838000  0.30320800  0.62670800  1
  C  C32  1  0.80176700  0.24248400  0.62125700  1
  C  C33  1  0.82155900  0.21252200  0.43584700  1
  C  C34  1  0.90079400  0.26846100  0.43185700  1
  C  C35  1  0.87810700  0.69526700  0.40764200  1
  C  C36  1  0.84043700  0.78916500  0.42481600  1
  C  C37  1  0.86385800  0.79762700  0.61217800  1
  C  C38  1  0.87407300  0.69430700  0.60978500  1
  C  C39  1  0.11302400  0.29972800  0.39132000  1
  C  C40  1  0.20056200  0.26177900  0.40287600  1
  C  C41  1  0.19727000  0.25293300  0.59055900  1
  C  C42  1  0.10845500  0.28610800  0.60296700  1
  N  N1  1  0.50011400  0.26721700  0.51221700  1
  N  N2  1  0.49313000  0.72392800  0.51225000  1
  N  N3  1  0.09866100  0.65073300  0.51699400  1
  N  N4  1  0.89441600  0.33896800  0.51579100  1
  N  N5  1  0.92031900  0.66921000  0.51019300  1
  N  N6  1  0.07438800  0.32193500  0.49875000  1
  O  O1  1  0.37429500  0.57175000  0.51592400  1
  O  O2  1  0.61893600  0.41937400  0.50846800  1
  O  O3  1  0.61655500  0.57673700  0.51664100  1
  O  O4  1  0.37673700  0.41443100  0.50785800  1
  O  O5  1  0.49864900  0.57408600  0.34800800  1
  O  O6  1  0.49465000  0.41706100  0.67645600  1
  O  O7  1  0.49808000  0.57455400  0.67669600  1
  O  O8  1  0.49514600  0.41659100  0.34776800  1
  O  O9  1  0.17268400  0.82288200  0.53159300  1
  O  O10  1  0.81326600  0.17177700  0.54258700  1
  O  O11  1  0.88551300  0.83629400  0.50766800  1
  O  O12  1  0.20537800  0.20037500  0.49284200  1
