# generated using pymatgen
data_CuH12C35N2(OF2)6
_symmetry_space_group_name_H-M   'P 1'
_cell_length_a   15.21349100
_cell_length_b   13.68790600
_cell_length_c   27.58411800
_cell_angle_alpha   90.00000000
_cell_angle_beta   89.99014800
_cell_angle_gamma   90.00000000
_symmetry_Int_Tables_number   1
_chemical_formula_structural   CuH12C35N2(OF2)6
_chemical_formula_sum   'Cu2 H24 C70 N4 O12 F24'
_cell_volume   5744.13967296
_cell_formula_units_Z   2
loop_
 _symmetry_equiv_pos_site_id
 _symmetry_equiv_pos_as_xyz
  1  'x, y, z'
loop_
 _atom_site_type_symbol
 _atom_site_label
 _atom_site_symmetry_multiplicity
 _atom_site_fract_x
 _atom_site_fract_y
 _atom_site_fract_z
 _atom_site_occupancy
  Cu  Cu1  1  0.50095900  0.59699300  0.50035000  1
  Cu  Cu2  1  0.49834400  0.40218500  0.50211300  1
  H  H1  1  0.43326200  0.62222200  0.35002200  1
  H  H2  1  0.57476400  0.38207100  0.65236700  1
  H  H3  1  0.43294700  0.62718100  0.26173800  1
  H  H4  1  0.57866300  0.37879500  0.74056600  1
  H  H5  1  0.30523800  0.42976400  0.12678300  1
  H  H6  1  0.70090000  0.57622700  0.87627900  1
  H  H7  1  0.40027700  0.61603900  0.74669200  1
  H  H8  1  0.59915000  0.37934500  0.25642800  1
  H  H9  1  0.28577900  0.46024500  0.97296800  1
  H  H10  1  0.72127300  0.53936300  0.02958600  1
  H  H11  1  0.29760000  0.42104900  0.04319300  1
  H  H12  1  0.70810500  0.58450100  0.96009400  1
  H  H13  1  0.05003600  0.64574800  0.51362700  1
  H  H14  1  0.94441700  0.38020700  0.55279400  1
  H  H15  1  0.94115500  0.60810400  0.45080600  1
  H  H16  1  0.05581100  0.34676000  0.48391600  1
  H  H17  1  0.54277900  0.06898400  0.57600300  1
  H  H18  1  0.40138300  0.92887400  0.44589700  1
  H  H19  1  0.45445700  0.07159100  0.42828200  1
  H  H20  1  0.60169700  0.92769000  0.55558300  1
  H  H21  1  0.54784200  0.24478700  0.57405700  1
  H  H22  1  0.41146300  0.75375300  0.44224200  1
  H  H23  1  0.44664500  0.24598100  0.43211100  1
  H  H24  1  0.59732100  0.75108900  0.55461500  1
  C  C1  1  0.32945600  0.50232800  0.49578500  1
  C  C2  1  0.66919300  0.49707400  0.50551900  1
  C  C3  1  0.51049900  0.49643200  0.40806800  1
  C  C4  1  0.48940000  0.50268500  0.59444800  1
  C  C5  1  0.44102900  0.48034400  0.17936800  1
  C  C6  1  0.56579100  0.52338700  0.82349600  1
  C  C7  1  0.58901000  0.52618600  0.17806600  1
  C  C8  1  0.41871300  0.47397400  0.82485100  1
  C  C9  1  0.56399100  0.43206000  0.27815800  1
  C  C10  1  0.43819200  0.56594100  0.72484200  1
  C  C11  1  0.56465800  0.42732600  0.32836800  1
  C  C12  1  0.43496400  0.56884600  0.67462000  1
  C  C13  1  0.47060500  0.56822500  0.33021400  1
  C  C14  1  0.53616300  0.43462700  0.67232500  1
  C  C15  1  0.47004400  0.57121300  0.28034300  1
  C  C16  1  0.53884000  0.43278600  0.72223100  1
  C  C17  1  0.51661500  0.50300000  0.25425000  1
  C  C18  1  0.49021200  0.49886400  0.74857800  1
  C  C19  1  0.51294200  0.50090300  0.10269500  1
  C  C20  1  0.49406300  0.50169000  0.90019000  1
  C  C21  1  0.43889800  0.47866800  0.12950600  1
  C  C22  1  0.56790800  0.52497800  0.87340500  1
  C  C23  1  0.36289000  0.45127100  0.10658100  1
  C  C24  1  0.64352400  0.55357300  0.89642000  1
  C  C25  1  0.59077600  0.52291500  0.12704500  1
  C  C26  1  0.41658900  0.47852600  0.87580400  1
  C  C27  1  0.51569600  0.49572200  0.35478300  1
  C  C28  1  0.48644400  0.50351800  0.64791300  1
  C  C29  1  0.42469400  0.48030400  0.97781000  1
  C  C30  1  0.58215100  0.52179000  0.02503300  1
  C  C31  1  0.57699400  0.52537300  0.97417000  1
  C  C32  1  0.42968000  0.47747900  0.02872600  1
  C  C33  1  0.49864700  0.50203900  0.95081200  1
  C  C34  1  0.50817500  0.50050600  0.05206700  1
  C  C35  1  0.34579500  0.46628900  0.95332100  1
  C  C36  1  0.66126400  0.53485600  0.04940500  1
  C  C37  1  0.33999700  0.46366300  0.90324500  1
  C  C38  1  0.66724800  0.53773200  0.09947800  1
  C  C39  1  0.35851300  0.44878400  0.05716600  1
  C  C40  1  0.64779500  0.55558100  0.94586200  1
  C  C41  1  0.08991500  0.58244800  0.50612600  1
  C  C42  1  0.90593700  0.42989500  0.53103600  1
  C  C43  1  0.90402900  0.55922500  0.47366300  1
  C  C44  1  0.09287300  0.41292000  0.48971900  1
  C  C45  1  0.18069500  0.58851900  0.50274100  1
  C  C46  1  0.81486200  0.43152600  0.53380000  1
  C  C47  1  0.81305500  0.56064200  0.47386500  1
  C  C48  1  0.18357400  0.41518900  0.48444500  1
  C  C49  1  0.23045500  0.50263400  0.49392600  1
  C  C50  1  0.76686200  0.49646600  0.50453800  1
  C  C51  1  0.04649900  0.49571000  0.50053100  1
  C  C52  1  0.95020800  0.49424800  0.50170100  1
  C  C53  1  0.52427500  0.10537800  0.54287600  1
  C  C54  1  0.44763200  0.89316800  0.46960100  1
  C  C55  1  0.47252500  0.10647200  0.46191800  1
  C  C56  1  0.55607400  0.89227400  0.53134500  1
  C  C57  1  0.52532400  0.20623400  0.54227800  1
  C  C58  1  0.45093800  0.79265500  0.46836600  1
  C  C59  1  0.47027500  0.20701500  0.46346600  1
  C  C60  1  0.55475000  0.79147100  0.53052000  1
  C  C61  1  0.49919700  0.05348600  0.50205100  1
  C  C62  1  0.50091700  0.94512100  0.50113700  1
  C  C63  1  0.21930700  0.69003700  0.50543300  1
  C  C64  1  0.77118900  0.36604700  0.57039200  1
  C  C65  1  0.76819200  0.63087400  0.43974600  1
  C  C66  1  0.22571200  0.32354100  0.46477500  1
  C  C67  1  0.37044700  0.63625400  0.65067900  1
  C  C68  1  0.62061200  0.35057200  0.35221500  1
  C  C69  1  0.24955000  0.44888800  0.88129600  1
  C  C70  1  0.75759200  0.55361100  0.12128000  1
  N  N1  1  0.51514200  0.50445300  0.20257600  1
  N  N2  1  0.49212100  0.49744700  0.80027300  1
  N  N3  1  0.49636700  0.25595600  0.50330400  1
  N  N4  1  0.50303200  0.74313900  0.49908000  1
  O  O1  1  0.37349200  0.58487800  0.49409200  1
  O  O2  1  0.62608500  0.41383300  0.50652100  1
  O  O3  1  0.62839600  0.58108400  0.50342800  1
  O  O4  1  0.37080000  0.41879800  0.50066200  1
  O  O5  1  0.50616600  0.58104400  0.43005900  1
  O  O6  1  0.49599900  0.41821500  0.57246700  1
  O  O7  1  0.48935600  0.58556500  0.57066200  1
  O  O8  1  0.50719400  0.41364800  0.43169600  1
  O  O9  1  0.36927200  0.45632800  0.20516200  1
  O  O10  1  0.63705700  0.54925900  0.79771900  1
  O  O11  1  0.34933700  0.44385900  0.79887300  1
  O  O12  1  0.65922400  0.55294600  0.20423600  1
  F  F1  1  0.27819200  0.69793500  0.54329500  1
  F  F2  1  0.15493500  0.75968300  0.51280100  1
  F  F3  1  0.25962300  0.71150900  0.46191100  1
  F  F4  1  0.70977900  0.41814200  0.59673000  1
  F  F5  1  0.83224100  0.32924900  0.60267700  1
  F  F6  1  0.73134700  0.28819400  0.54724800  1
  F  F7  1  0.82723900  0.66815700  0.40648300  1
  F  F8  1  0.73338200  0.70839200  0.46552600  1
  F  F9  1  0.70275600  0.58399900  0.41401600  1
  F  F10  1  0.16316100  0.26260700  0.44465000  1
  F  F11  1  0.26720200  0.27285600  0.50163700  1
  F  F12  1  0.28471000  0.34676400  0.42838700  1
  F  F13  1  0.31393100  0.67641000  0.68447900  1
  F  F14  1  0.32079600  0.58400800  0.61772400  1
  F  F15  1  0.41419500  0.71156600  0.62760200  1
  F  F16  1  0.67802600  0.30975300  0.31910400  1
  F  F17  1  0.56795900  0.27706400  0.37036100  1
  F  F18  1  0.67000700  0.39108900  0.38910300  1
  F  F19  1  0.18423200  0.44747500  0.91611800  1
  F  F20  1  0.24614300  0.36030900  0.85721800  1
  F  F21  1  0.23024100  0.52480500  0.84994100  1
  F  F22  1  0.82247100  0.55810500  0.08626800  1
  F  F23  1  0.77857300  0.47685400  0.15179500  1
  F  F24  1  0.75953100  0.64126100  0.14623000  1
