# generated using pymatgen
data_CuH18C23NO4
_symmetry_space_group_name_H-M   'P 1'
_cell_length_a   16.03837400
_cell_length_b   14.61820600
_cell_length_c   15.89668400
_cell_angle_alpha   90.00000000
_cell_angle_beta   89.98888400
_cell_angle_gamma   90.00000000
_symmetry_Int_Tables_number   1
_chemical_formula_structural   CuH18C23NO4
_chemical_formula_sum   'Cu2 H36 C46 N2 O8'
_cell_volume   3727.01334127
_cell_formula_units_Z   2
loop_
 _symmetry_equiv_pos_site_id
 _symmetry_equiv_pos_as_xyz
  1  'x, y, z'
loop_
 _atom_site_type_symbol
 _atom_site_label
 _atom_site_symmetry_multiplicity
 _atom_site_fract_x
 _atom_site_fract_y
 _atom_site_fract_z
 _atom_site_occupancy
  Cu  Cu1  1  0.50267700  0.59703000  0.50878700  1
  Cu  Cu2  1  0.50268000  0.41388100  0.50857300  1
  H  H1  1  0.38078200  0.55959800  0.95369300  1
  H  H2  1  0.39494100  0.41933400  0.94324700  1
  H  H3  1  0.39600000  0.58882000  0.08530000  1
  H  H4  1  0.39355200  0.42685100  0.07719200  1
  H  H5  1  0.48143700  0.35597000  0.08778300  1
  H  H6  1  0.48618000  0.65499600  0.07108000  1
  H  H7  1  0.61755600  0.58320700  0.94581500  1
  H  H8  1  0.63452100  0.46669300  0.92883900  1
  H  H9  1  0.07940700  0.65122700  0.50843900  1
  H  H10  1  0.07935500  0.35979100  0.50851100  1
  H  H11  1  0.92600900  0.65125900  0.50871000  1
  H  H12  1  0.92596300  0.35982500  0.50878200  1
  H  H13  1  0.58441400  0.08965700  0.61423500  1
  H  H14  1  0.58439100  0.92135600  0.61433900  1
  H  H15  1  0.42083000  0.92124500  0.40320000  1
  H  H16  1  0.42082900  0.08953500  0.40311500  1
  H  H17  1  0.43915200  0.30956700  0.87143500  1
  H  H18  1  0.47234500  0.26780700  0.97042400  1
  H  H19  1  0.59056300  0.35185400  0.83451500  1
  H  H20  1  0.59741900  0.19241800  0.95797000  1
  H  H21  1  0.67723100  0.22925400  0.87907500  1
  H  H22  1  0.40271800  0.71926400  0.94795300  1
  H  H23  1  0.42088000  0.66334500  0.85075800  1
  H  H24  1  0.55760300  0.74616400  0.96613100  1
  H  H25  1  0.53627700  0.71392900  0.77749700  1
  H  H26  1  0.62352800  0.77330600  0.83336700  1
  H  H27  1  0.71540700  0.57751700  0.05674900  1
  H  H28  1  0.68239700  0.54019100  0.15836500  1
  H  H29  1  0.58540400  0.67394400  0.16933600  1
  H  H30  1  0.71913000  0.73098400  0.04279600  1
  H  H31  1  0.65089200  0.80509600  0.10947000  1
  H  H32  1  0.60905100  0.35151000  0.04072500  1
  H  H33  1  0.62789800  0.39017100  0.14425400  1
  H  H34  1  0.75188200  0.41358700  0.99504000  1
  H  H35  1  0.76354600  0.36735900  0.18221700  1
  H  H36  1  0.84950500  0.37632000  0.10310200  1
  C  C1  1  0.34269300  0.50545600  0.50833800  1
  C  C2  1  0.50279500  0.50532500  0.34726800  1
  C  C3  1  0.66269000  0.50546400  0.50901500  1
  C  C4  1  0.50197500  0.50557600  0.67008800  1
  C  C5  1  0.45860400  0.58852800  0.05570800  1
  C  C6  1  0.45964400  0.41992000  0.05774900  1
  C  C7  1  0.46144700  0.41599900  0.96149000  1
  C  C8  1  0.44648800  0.58086300  0.96158000  1
  C  C9  1  0.50152300  0.50534200  0.76030800  1
  C  C10  1  0.50696100  0.50481500  0.08910700  1
  C  C11  1  0.50273000  0.50397300  0.92827800  1
  C  C12  1  0.59302800  0.51501100  0.96153800  1
  C  C13  1  0.59827000  0.50132300  0.05692700  1
  C  C14  1  0.50179200  0.50488000  0.83612500  1
  C  C15  1  0.50458300  0.50531800  0.18123900  1
  C  C16  1  0.50328600  0.50541900  0.25702900  1
  C  C17  1  0.95971000  0.58722500  0.50866100  1
  C  C18  1  0.95968600  0.42384400  0.50870100  1
  C  C19  1  0.91672200  0.50554000  0.50875900  1
  C  C20  1  0.04565700  0.42382600  0.50854300  1
  C  C21  1  0.04568400  0.58720700  0.50850300  1
  C  C22  1  0.08864900  0.50550600  0.50843400  1
  C  C23  1  0.82726800  0.50553200  0.50890200  1
  C  C24  1  0.17810600  0.50548000  0.50832800  1
  C  C25  1  0.25323300  0.50546000  0.50829500  1
  C  C26  1  0.75214500  0.50549500  0.50898900  1
  C  C27  1  0.54846700  0.95831800  0.56792600  1
  C  C28  1  0.54847700  0.05264500  0.56787000  1
  C  C29  1  0.50262200  0.91113400  0.50876100  1
  C  C30  1  0.50263300  0.09976900  0.50866200  1
  C  C31  1  0.45676700  0.95825700  0.44956600  1
  C  C32  1  0.45676900  0.05258000  0.44951700  1
  C  C33  1  0.50264100  0.81298600  0.50877200  1
  C  C34  1  0.50264400  0.19792200  0.50860800  1
  C  C35  1  0.48415700  0.32193300  0.92314100  1
  C  C36  1  0.56944400  0.30948000  0.88604500  1
  C  C37  1  0.61730200  0.23939700  0.90918000  1
  C  C38  1  0.44661100  0.67302200  0.91482700  1
  C  C39  1  0.52871600  0.72058800  0.90958800  1
  C  C40  1  0.56475400  0.73679200  0.83562600  1
  C  C41  1  0.66029100  0.57001800  0.09824000  1
  C  C42  1  0.63146400  0.66417400  0.12029400  1
  C  C43  1  0.66978000  0.73747300  0.08900800  1
  C  C44  1  0.63747400  0.40681900  0.07697000  1
  C  C45  1  0.72915000  0.40215800  0.05835700  1
  C  C46  1  0.78373600  0.38058200  0.11829300  1
  N  N1  1  0.50265500  0.27706500  0.50857400  1
  N  N2  1  0.50265100  0.73384500  0.50876700  1
  O  O1  1  0.38149700  0.58423600  0.51142700  1
  O  O2  1  0.38151200  0.42667400  0.50539200  1
  O  O3  1  0.50036500  0.58397900  0.38654100  1
  O  O4  1  0.50029700  0.42656000  0.38630900  1
  O  O5  1  0.62382500  0.58408700  0.51204000  1
  O  O6  1  0.62384400  0.42683000  0.50586500  1
  O  O7  1  0.49970200  0.58433700  0.63104100  1
  O  O8  1  0.49977700  0.42694800  0.63079900  1
