# generated using pymatgen
data_Zn3H4C25(Br3O4)3
_symmetry_space_group_name_H-M   'P 1'
_cell_length_a   18.83257600
_cell_length_b   18.87455900
_cell_length_c   18.98410700
_cell_angle_alpha   109.29461500
_cell_angle_beta   109.82093900
_cell_angle_gamma   109.01575500
_symmetry_Int_Tables_number   1
_chemical_formula_structural   Zn3H4C25(Br3O4)3
_chemical_formula_sum   'Zn6 H8 C50 Br18 O24'
_cell_volume   5212.45563420
_cell_formula_units_Z   2
loop_
 _symmetry_equiv_pos_site_id
 _symmetry_equiv_pos_as_xyz
  1  'x, y, z'
loop_
 _atom_site_type_symbol
 _atom_site_label
 _atom_site_symmetry_multiplicity
 _atom_site_fract_x
 _atom_site_fract_y
 _atom_site_fract_z
 _atom_site_occupancy
  Zn  Zn1  1  0.49947000  0.42724100  0.43165800  1
  Zn  Zn2  1  0.49858800  0.56766000  0.56673300  1
  Zn  Zn3  1  0.93885100  0.43456200  0.00592900  1
  Zn  Zn4  1  0.07363400  0.57369300  0.00349300  1
  Zn  Zn5  1  0.07074100  0.00021700  0.57243300  1
  Zn  Zn6  1  0.92966500  0.99875900  0.43365800  1
  H  H1  1  0.12480800  0.36007100  0.15663200  1
  H  H2  1  0.19868500  0.46197900  0.33628700  1
  H  H3  1  0.74942200  0.76547900  0.63415200  1
  H  H4  1  0.88903500  0.53038100  0.75876800  1
  H  H5  1  0.26824800  0.13470500  0.52017700  1
  H  H6  1  0.99632500  0.87498000  0.24257200  1
  H  H7  1  0.00439800  0.62487600  0.26317100  1
  H  H8  1  0.87224900  0.22878300  0.76402200  1
  C  C1  1  0.61849600  0.61625000  0.49819400  1
  C  C2  1  0.37946900  0.49555900  0.37628600  1
  C  C3  1  0.37908600  0.37861500  0.49976700  1
  C  C4  1  0.61908400  0.49982100  0.62214200  1
  C  C5  1  0.32595100  0.57628100  0.29825800  1
  C  C6  1  0.23706300  0.55830200  0.28616800  1
  C  C7  1  0.19782300  0.50383500  0.19030700  1
  C  C8  1  0.28626500  0.52172600  0.20183500  1
  C  C9  1  0.27379400  0.44273500  0.21140400  1
  C  C10  1  0.18433500  0.42419600  0.19907500  1
  C  C11  1  0.22429000  0.47927800  0.29624000  1
  C  C12  1  0.31309800  0.49726000  0.30743400  1
  C  C13  1  0.74977900  0.75672800  0.57508800  1
  C  C14  1  0.81509500  0.82032900  0.57822000  1
  C  C15  1  0.81651300  0.81069800  0.50334100  1
  C  C16  1  0.75254100  0.73639700  0.42585000  1
  C  C17  1  0.68777900  0.67236100  0.42287900  1
  C  C18  1  0.68626900  0.68221600  0.49802800  1
  C  C19  1  0.67315900  0.48763900  0.75304300  1
  C  C20  1  0.73643100  0.48841900  0.81732300  1
  C  C21  1  0.81456600  0.50308500  0.81948500  1
  C  C22  1  0.82833600  0.51812200  0.75761400  1
  C  C23  1  0.76454100  0.51609500  0.69270800  1
  C  C24  1  0.68646500  0.50060200  0.69003200  1
  C  C25  1  0.23760700  0.31694900  0.49304300  1
  C  C26  1  0.17377300  0.25499600  0.49317400  1
  C  C27  1  0.18381600  0.18819800  0.50201500  1
  C  C28  1  0.25899800  0.18578400  0.51237500  1
  C  C29  1  0.32235900  0.24702200  0.51105000  1
  C  C30  1  0.31194100  0.31306800  0.50108500  1
  C  C31  1  0.00566600  0.62395500  0.12351800  1
  C  C32  1  0.12838600  0.50451500  0.12360500  1
  C  C33  1  0.00667000  0.38426800  0.88547700  1
  C  C34  1  0.88369000  0.50410700  0.88625100  1
  C  C35  1  0.00236500  0.87972300  0.38575500  1
  C  C36  1  0.88333800  0.87934400  0.50513500  1
  C  C37  1  0.99743100  0.11855100  0.62032000  1
  C  C38  1  0.11709600  0.12034500  0.50150800  1
  C  C39  1  0.00095000  0.76027800  0.18423600  1
  C  C40  1  0.99911300  0.82057000  0.24792600  1
  C  C41  1  0.00247600  0.81298200  0.31867500  1
  C  C42  1  0.00400700  0.74175400  0.32362100  1
  C  C43  1  0.00364700  0.68032800  0.25883800  1
  C  C44  1  0.00403500  0.68983800  0.18993400  1
  C  C45  1  0.07963100  0.32969800  0.80992700  1
  C  C46  1  0.07600400  0.26462800  0.74561900  1
  C  C47  1  0.99958900  0.18732800  0.68736500  1
  C  C48  1  0.92630300  0.17537000  0.69412300  1
  C  C49  1  0.93016700  0.23962200  0.75953500  1
  C  C50  1  0.00622300  0.31744700  0.81751900  1
  Br  Br1  1  0.20937900  0.64389000  0.33962300  1
  Br  Br2  1  0.59869300  0.57561400  0.31169900  1
  Br  Br3  1  0.56597400  0.46492200  0.75147800  1
  Br  Br4  1  0.71389400  0.47575200  0.90464900  1
  Br  Br5  1  0.78831800  0.54032800  0.61067200  1
  Br  Br6  1  0.21771600  0.40482800  0.47698400  1
  Br  Br7  1  0.07660900  0.26984200  0.48749400  1
  Br  Br8  1  0.42568800  0.24079000  0.52841000  1
  Br  Br9  1  0.99170800  0.77381300  0.08661300  1
  Br  Br10  1  0.43007800  0.68785800  0.37129000  1
  Br  Br11  1  0.99936700  0.72121100  0.41444400  1
  Br  Br12  1  0.19008600  0.43186400  0.88898100  1
  Br  Br13  1  0.17800600  0.28549000  0.73668900  1
  Br  Br14  1  0.81976300  0.06901700  0.61649800  1
  Br  Br15  1  0.33483300  0.55393200  0.13521300  1
  Br  Br16  1  0.29776500  0.35663800  0.15136800  1
  Br  Br17  1  0.89924100  0.92286200  0.68652900  1
  Br  Br18  1  0.75342800  0.71748000  0.32094800  1
  O  O1  1  0.58906500  0.53457200  0.44649200  1
  O  O2  1  0.59197500  0.64202800  0.55243500  1
  O  O3  1  0.40637300  0.44049600  0.35356800  1
  O  O4  1  0.40900300  0.55032100  0.45687000  1
  O  O5  1  0.40633200  0.35290300  0.44622900  1
  O  O6  1  0.40913500  0.46034700  0.55212400  1
  O  O7  1  0.58920600  0.44477500  0.54153400  1
  O  O8  1  0.59179100  0.55455400  0.64485200  1
  O  O9  1  0.95724500  0.54250600  0.09818600  1
  O  O10  1  0.05622500  0.64886800  0.09312900  1
  O  O11  1  0.04782000  0.44933100  0.09468100  1
  O  O12  1  0.15025700  0.55890400  0.09602100  1
  O  O13  1  0.95558700  0.35943300  0.91549800  1
  O  O14  1  0.05573800  0.46573900  0.91184200  1
  O  O15  1  0.86240500  0.44986300  0.91399300  1
  O  O16  1  0.96448400  0.55796800  0.91388100  1
  O  O17  1  0.05482900  0.90749900  0.46686100  1
  O  O18  1  0.95092600  0.91044100  0.36163300  1
  O  O19  1  0.96523000  0.90708600  0.55677500  1
  O  O20  1  0.85814500  0.90911900  0.45357200  1
  O  O21  1  0.05008600  0.08906500  0.64449800  1
  O  O22  1  0.94505200  0.09111000  0.53919000  1
  O  O23  1  0.14225700  0.08936700  0.55192500  1
  O  O24  1  0.03523700  0.09216600  0.44981500  1
