# generated using pymatgen
data_ZnH14C22BrNO4
_symmetry_space_group_name_H-M   'P 1'
_cell_length_a   14.20288600
_cell_length_b   8.55476900
_cell_length_c   15.05834100
_cell_angle_alpha   90.00000000
_cell_angle_beta   90.95953200
_cell_angle_gamma   90.00000000
_symmetry_Int_Tables_number   1
_chemical_formula_structural   ZnH14C22BrNO4
_chemical_formula_sum   'Zn2 H28 C44 Br2 N2 O8'
_cell_volume   1829.36814110
_cell_formula_units_Z   2
loop_
 _symmetry_equiv_pos_site_id
 _symmetry_equiv_pos_as_xyz
  1  'x, y, z'
loop_
 _atom_site_type_symbol
 _atom_site_label
 _atom_site_symmetry_multiplicity
 _atom_site_fract_x
 _atom_site_fract_y
 _atom_site_fract_z
 _atom_site_occupancy
  Zn  Zn1  1  0.88652900  0.48037600  0.52134800  1
  Zn  Zn2  1  0.09457600  0.47731100  0.49817400  1
  H  H1  1  0.03667300  0.97867200  0.56948600  1
  H  H2  1  0.94437400  0.97895400  0.44996600  1
  H  H3  1  0.99202600  0.22914600  0.80767600  1
  H  H4  1  0.98803500  0.22968300  0.21133700  1
  H  H5  1  0.99313800  0.72801900  0.80816500  1
  H  H6  1  0.98914400  0.72852900  0.21178600  1
  H  H7  1  0.08172500  0.77724100  0.93315300  1
  H  H8  1  0.07823700  0.77854600  0.09389900  1
  H  H9  1  0.89947200  0.18048800  0.08630800  1
  H  H10  1  0.90296300  0.17917000  0.92556300  1
  H  H11  1  0.43391300  0.22676600  0.53677500  1
  H  H12  1  0.57233000  0.29588000  0.41794400  1
  H  H13  1  0.59031300  0.48718900  0.37476600  1
  H  H14  1  0.39191600  0.34797100  0.62550700  1
  H  H15  1  0.43626100  0.54662000  0.36920600  1
  H  H16  1  0.53262400  0.46433200  0.65014700  1
  H  H17  1  0.56776300  0.70327000  0.58479500  1
  H  H18  1  0.39891500  0.72098200  0.49041900  1
  H  H19  1  0.55723600  0.71278800  0.46486500  1
  H  H20  1  0.41212600  0.64422300  0.60133400  1
  H  H21  1  0.64094400  0.36105300  0.74104300  1
  H  H22  1  0.74587400  0.15026900  0.78741300  1
  H  H23  1  0.67802400  0.89916200  0.55124200  1
  H  H24  1  0.56783300  0.10101700  0.50629100  1
  H  H25  1  0.49903400  0.37010300  0.24793700  1
  H  H26  1  0.44842600  0.15614000  0.15049600  1
  H  H27  1  0.26478200  0.99154400  0.34998300  1
  H  H28  1  0.31323500  0.19820800  0.44764900  1
  C  C1  1  0.01188300  0.11771800  0.68342500  1
  C  C2  1  0.96581900  0.11874700  0.33572800  1
  C  C3  1  0.99813800  0.11844500  0.77384300  1
  C  C4  1  0.97952100  0.11946300  0.24529200  1
  C  C5  1  0.99735100  0.97835800  0.82030200  1
  C  C6  1  0.98381700  0.97933400  0.19917600  1
  C  C7  1  0.00163100  0.83822600  0.77420000  1
  C  C8  1  0.98301100  0.83922600  0.24562700  1
  C  C9  1  0.01529200  0.83892000  0.68376500  1
  C  C10  1  0.96922200  0.83993000  0.33604500  1
  C  C11  1  0.02538600  0.97854900  0.64000900  1
  C  C12  1  0.95569400  0.97909700  0.37945600  1
  C  C13  1  0.04000600  0.86468200  0.96610700  1
  C  C14  1  0.03823400  0.86566200  0.05763900  1
  C  C15  1  0.98881600  0.97997000  0.10188200  1
  C  C16  1  0.99237900  0.97774900  0.91758600  1
  C  C17  1  0.94119300  0.09304500  0.05335600  1
  C  C18  1  0.94296700  0.09206100  0.96182400  1
  C  C19  1  0.00798600  0.69681000  0.63037900  1
  C  C20  1  0.97593400  0.69777600  0.38943800  1
  C  C21  1  0.97311900  0.26083900  0.38915000  1
  C  C22  1  0.00516700  0.25986700  0.63004800  1
  C  C23  1  0.53670100  0.38613100  0.59175400  1
  C  C24  1  0.44714900  0.43943200  0.40949400  1
  C  C25  1  0.55219100  0.41937600  0.42562600  1
  C  C26  1  0.43628200  0.34501300  0.56562000  1
  C  C27  1  0.57951200  0.48113000  0.51739600  1
  C  C28  1  0.40183900  0.46783000  0.49888700  1
  C  C29  1  0.43326500  0.62871600  0.53132100  1
  C  C30  1  0.53938400  0.64390100  0.52464600  1
  C  C31  1  0.29891300  0.47148800  0.49156000  1
  C  C32  1  0.68221100  0.48336500  0.52682500  1
  C  C33  1  0.59697500  0.24945000  0.61936400  1
  C  C34  1  0.64701700  0.25933500  0.69894100  1
  C  C35  1  0.70690200  0.14075400  0.72536500  1
  C  C36  1  0.71822800  0.01152800  0.67224300  1
  C  C37  1  0.66853100  0.00005400  0.59326900  1
  C  C38  1  0.60719900  0.11707900  0.56725200  1
  C  C39  1  0.41083500  0.30363200  0.35508400  1
  C  C40  1  0.44742900  0.28736900  0.27106300  1
  C  C41  1  0.41901300  0.16711500  0.21594700  1
  C  C42  1  0.35331600  0.06094200  0.24420600  1
  C  C43  1  0.31615600  0.07538100  0.32760100  1
  C  C44  1  0.34428100  0.19561700  0.38308200  1
  Br  Br1  1  0.80243200  0.84884900  0.70785900  1
  Br  Br2  1  0.31420500  0.89403200  0.16829700  1
  N  N1  1  0.21749200  0.47504700  0.48810500  1
  N  N2  1  0.76361600  0.48321400  0.53140600  1
  O  O1  1  0.08368700  0.64655800  0.59054900  1
  O  O2  1  0.89985400  0.64938800  0.42920700  1
  O  O3  1  0.92325600  0.64279400  0.61254600  1
  O  O4  1  0.06019800  0.64136500  0.40709900  1
  O  O5  1  0.89744200  0.31111800  0.42898100  1
  O  O6  1  0.08123400  0.30828800  0.59030100  1
  O  O7  1  0.05782500  0.31490800  0.40697700  1
  O  O8  1  0.92092700  0.31632900  0.61241900  1
