# generated using pymatgen
data_Zn2H16C25(NO4)2
_symmetry_space_group_name_H-M   'P 1'
_cell_length_a   11.91845100
_cell_length_b   10.97640300
_cell_length_c   9.83255500
_cell_angle_alpha   90.00453300
_cell_angle_beta   90.00358000
_cell_angle_gamma   89.99286100
_symmetry_Int_Tables_number   1
_chemical_formula_structural   Zn2H16C25(NO4)2
_chemical_formula_sum   'Zn2 H16 C25 N2 O8'
_cell_volume   1286.31175347
_cell_formula_units_Z   1
loop_
 _symmetry_equiv_pos_site_id
 _symmetry_equiv_pos_as_xyz
  1  'x, y, z'
loop_
 _atom_site_type_symbol
 _atom_site_label
 _atom_site_symmetry_multiplicity
 _atom_site_fract_x
 _atom_site_fract_y
 _atom_site_fract_z
 _atom_site_occupancy
  Zn  Zn1  1  0.49142600  0.51105100  0.65280900  1
  Zn  Zn2  1  0.49136200  0.51068100  0.34309600  1
  H  H1  1  0.47730300  0.12188400  0.27980800  1
  H  H2  1  0.47699700  0.90060500  0.27893000  1
  H  H3  1  0.43350700  0.89992200  0.81019900  1
  H  H4  1  0.59080600  0.89411000  0.79259300  1
  H  H5  1  0.44088100  0.12264800  0.81493100  1
  H  H6  1  0.64191500  0.60917300  0.12324900  1
  H  H7  1  0.64191400  0.60950800  0.87300500  1
  H  H8  1  0.23528100  0.44913600  0.87457100  1
  H  H9  1  0.31363700  0.29975900  0.87280600  1
  H  H10  1  0.23572300  0.44777200  0.12221700  1
  H  H11  1  0.31455100  0.29852000  0.12163000  1
  H  H12  1  0.63266500  0.22749600  0.78364000  1
  H  H13  1  0.69486700  0.08110800  0.74776600  1
  H  H14  1  0.58069100  0.06645800  0.01500000  1
  H  H15  1  0.80566000  0.18796400  0.95252600  1
  H  H16  1  0.75305400  0.13091300  0.12073500  1
  C  C1  1  0.49203900  0.27243900  0.49817800  1
  C  C2  1  0.27214700  0.51075400  0.49785100  1
  C  C3  1  0.49116700  0.74922000  0.49748600  1
  C  C4  1  0.71066600  0.51110600  0.49805500  1
  C  C5  1  0.15174600  0.51078000  0.49790500  1
  C  C6  1  0.05064300  0.51085200  0.49793800  1
  C  C7  1  0.93217100  0.51096200  0.49796900  1
  C  C8  1  0.83106800  0.51104700  0.49800100  1
  C  C9  1  0.50166800  0.07100400  0.61398200  1
  C  C10  1  0.49290100  0.13897300  0.49704900  1
  C  C11  1  0.48424900  0.07449500  0.37575700  1
  C  C12  1  0.48383200  0.94751400  0.37520000  1
  C  C13  1  0.49117500  0.88255200  0.49610300  1
  C  C14  1  0.49941800  0.94982800  0.61319800  1
  C  C15  1  0.51048200  0.93758300  0.76279600  1
  C  C16  1  0.51386400  0.07980000  0.76401500  1
  C  C17  1  0.41070200  0.45758100  0.06465000  1
  C  C18  1  0.57446300  0.56456700  0.06926200  1
  C  C19  1  0.57442600  0.56482900  0.92683400  1
  C  C20  1  0.41050300  0.45809900  0.93109400  1
  C  C21  1  0.30290100  0.39157900  0.91784300  1
  C  C22  1  0.30324900  0.39079700  0.07779000  1
  C  C23  1  0.62803100  0.12865700  0.80561700  1
  C  C24  1  0.64548000  0.10930500  0.95419400  1
  C  C25  1  0.74055200  0.14492000  0.01266100  1
  N  N1  1  0.49094300  0.50986700  0.13965200  1
  N  N2  1  0.49076700  0.51056400  0.85625800  1
  O  O1  1  0.49156400  0.32940400  0.61566500  1
  O  O2  1  0.49151000  0.32927300  0.38074300  1
  O  O3  1  0.32426200  0.51087100  0.61539500  1
  O  O4  1  0.32416800  0.51046000  0.38026000  1
  O  O5  1  0.49136700  0.69259400  0.61512400  1
  O  O6  1  0.49098700  0.69213700  0.38035000  1
  O  O7  1  0.65859600  0.51100500  0.61548900  1
  O  O8  1  0.65850200  0.51089500  0.38066800  1
