# generated using pymatgen
data_ZnH14C33N3O7
_symmetry_space_group_name_H-M   'P 1'
_cell_length_a   17.53883700
_cell_length_b   8.55287200
_cell_length_c   23.28963200
_cell_angle_alpha   90.00000000
_cell_angle_beta   93.88779300
_cell_angle_gamma   90.00000000
_symmetry_Int_Tables_number   1
_chemical_formula_structural   ZnH14C33N3O7
_chemical_formula_sum   'Zn2 H28 C66 N6 O14'
_cell_volume   3485.57809443
_cell_formula_units_Z   2
loop_
 _symmetry_equiv_pos_site_id
 _symmetry_equiv_pos_as_xyz
  1  'x, y, z'
loop_
 _atom_site_type_symbol
 _atom_site_label
 _atom_site_symmetry_multiplicity
 _atom_site_fract_x
 _atom_site_fract_y
 _atom_site_fract_z
 _atom_site_occupancy
  Zn  Zn1  1  0.91535400  0.50444400  0.50280600  1
  Zn  Zn2  1  0.08464700  0.50444400  0.49719400  1
  H  H1  1  0.97404700  0.24967500  0.68723200  1
  H  H2  1  0.98397700  0.75261700  0.30673500  1
  H  H3  1  0.02595300  0.24967500  0.31276800  1
  H  H4  1  0.01602400  0.75261700  0.69326500  1
  H  H5  1  0.04489000  0.38228200  0.86077200  1
  H  H6  1  0.05445200  0.63351800  0.14272300  1
  H  H7  1  0.95511000  0.38228200  0.13922800  1
  H  H8  1  0.94554900  0.63351800  0.85727700  1
  H  H9  1  0.96634600  0.39046700  0.03691000  1
  H  H10  1  0.96363300  0.62514000  0.96075200  1
  H  H11  1  0.03365400  0.39046700  0.96309000  1
  H  H12  1  0.03636700  0.62514000  0.03924800  1
  H  H13  1  0.03684200  0.00502200  0.54057300  1
  H  H14  1  0.96315800  0.00502200  0.45942700  1
  H  H15  1  0.31764700  0.53660700  0.63822300  1
  H  H16  1  0.68235400  0.53660700  0.36177700  1
  H  H17  1  0.45297800  0.53986100  0.64292100  1
  H  H18  1  0.54702200  0.53986100  0.35707900  1
  H  H19  1  0.56317100  0.46161500  0.64451500  1
  H  H20  1  0.43682900  0.46161500  0.35548500  1
  H  H21  1  0.80216200  0.51885600  0.41468800  1
  H  H22  1  0.19783800  0.51885600  0.58531200  1
  H  H23  1  0.81674900  0.49514800  0.59428000  1
  H  H24  1  0.18325100  0.49514800  0.40572000  1
  H  H25  1  0.81368400  0.35934900  0.68105600  1
  H  H26  1  0.76287200  0.25956600  0.62795500  1
  H  H27  1  0.18631700  0.35934900  0.31894400  1
  H  H28  1  0.23712800  0.25956600  0.37204500  1
  C  C1  1  0.02053800  0.13312800  0.79370700  1
  C  C2  1  0.03200000  0.88184900  0.20848400  1
  C  C3  1  0.97946200  0.13312800  0.20629300  1
  C  C4  1  0.96800100  0.88184900  0.79151600  1
  C  C5  1  0.00971100  0.86394400  0.67190200  1
  C  C6  1  0.00693900  0.14148400  0.33087300  1
  C  C7  1  0.99028900  0.86394400  0.32809800  1
  C  C8  1  0.99306100  0.14148400  0.66912700  1
  C  C9  1  0.01642600  0.86535200  0.61327100  1
  C  C10  1  0.98675300  0.14309300  0.38711200  1
  C  C11  1  0.98357400  0.86535200  0.38672900  1
  C  C12  1  0.01324700  0.14309300  0.61288800  1
  C  C13  1  0.99864000  0.00369400  0.70114200  1
  C  C14  1  0.00136000  0.00369400  0.29885800  1
  C  C15  1  0.99568500  0.00792300  0.88157900  1
  C  C16  1  0.00431500  0.00792300  0.11842100  1
  C  C17  1  0.01393000  0.14011900  0.85243100  1
  C  C18  1  0.02411500  0.87569200  0.14898800  1
  C  C19  1  0.98607000  0.14011900  0.14756900  1
  C  C20  1  0.97588500  0.87569200  0.85101200  1
  C  C21  1  0.02922900  0.27671300  0.88258600  1
  C  C22  1  0.03773700  0.73918400  0.11974500  1
  C  C23  1  0.97077100  0.27671300  0.11741400  1
  C  C24  1  0.96226300  0.73918400  0.88025500  1
  C  C25  1  0.02586400  0.00463500  0.58550400  1
  C  C26  1  0.97413600  0.00463500  0.41449600  1
  C  C27  1  0.99551500  0.14703000  0.02939400  1
  C  C28  1  0.99319500  0.86859700  0.97023600  1
  C  C29  1  0.00448500  0.14703000  0.97060500  1
  C  C30  1  0.00680500  0.86859700  0.02976400  1
  C  C31  1  0.00233600  0.00785700  0.05913700  1
  C  C32  1  0.99766400  0.00785700  0.94086200  1
  C  C33  1  0.97899900  0.28198900  0.05899800  1
  C  C34  1  0.97446300  0.73378500  0.93941000  1
  C  C35  1  0.02100100  0.28198900  0.94100200  1
  C  C36  1  0.02553700  0.73378500  0.06059000  1
  C  C37  1  0.01080700  0.72278800  0.57860300  1
  C  C38  1  0.99015700  0.28569200  0.42166700  1
  C  C39  1  0.98919300  0.72278800  0.42139700  1
  C  C40  1  0.00984300  0.28569200  0.57833300  1
  C  C41  1  0.78129300  0.49503200  0.55466200  1
  C  C42  1  0.21870700  0.49503200  0.44533700  1
  C  C43  1  0.77378600  0.51179300  0.45436800  1
  C  C44  1  0.22621500  0.51179300  0.54563200  1
  C  C45  1  0.65856400  0.50051200  0.50311100  1
  C  C46  1  0.34143600  0.50051200  0.49688900  1
  C  C47  1  0.70214700  0.48850900  0.55457400  1
  C  C48  1  0.29785300  0.48850900  0.44542600  1
  C  C49  1  0.66587200  0.47274100  0.60511300  1
  C  C50  1  0.33412800  0.47274100  0.39488700  1
  C  C51  1  0.69523600  0.51163100  0.45295000  1
  C  C52  1  0.30476400  0.51163100  0.54705000  1
  C  C53  1  0.46323200  0.50701400  0.55102500  1
  C  C54  1  0.53676800  0.50701400  0.44897500  1
  C  C55  1  0.45706000  0.49768400  0.44747200  1
  C  C56  1  0.54294100  0.49768400  0.55252800  1
  C  C57  1  0.42078900  0.50152700  0.49845900  1
  C  C58  1  0.57921100  0.50152700  0.50154100  1
  C  C59  1  0.42468600  0.52272400  0.60103800  1
  C  C60  1  0.57531400  0.52272400  0.39896200  1
  C  C61  1  0.34632000  0.52434200  0.59882200  1
  C  C62  1  0.65368000  0.52434200  0.40117800  1
  C  C63  1  0.58739900  0.48047600  0.60397100  1
  C  C64  1  0.41260100  0.48047600  0.39602800  1
  C  C65  1  0.70779800  0.44323900  0.66080300  1
  C  C66  1  0.29220200  0.44323900  0.33919600  1
  N  N1  1  0.99454000  0.00677500  0.76288600  1
  N  N2  1  0.00546000  0.00677500  0.23711400  1
  N  N3  1  0.81553900  0.50432000  0.50481600  1
  N  N4  1  0.18446100  0.50432000  0.49518400  1
  N  N5  1  0.75991100  0.31514700  0.66763900  1
  N  N6  1  0.24008900  0.31514700  0.33236100  1
  O  O1  1  0.05622500  0.25077500  0.76833700  1
  O  O2  1  0.06817100  0.76419200  0.23712500  1
  O  O3  1  0.94377500  0.25077500  0.23166300  1
  O  O4  1  0.93182900  0.76419200  0.76287400  1
  O  O5  1  0.07285100  0.67318600  0.55626900  1
  O  O6  1  0.92747800  0.33489500  0.44393200  1
  O  O7  1  0.92714900  0.67318600  0.44373000  1
  O  O8  1  0.07252200  0.33489500  0.55606800  1
  O  O9  1  0.94227200  0.66790700  0.56323200  1
  O  O10  1  0.05800000  0.34197600  0.43654500  1
  O  O11  1  0.05772900  0.66790700  0.43676800  1
  O  O12  1  0.94200000  0.34197600  0.56345500  1
  O  O13  1  0.69094700  0.51612500  0.70311500  1
  O  O14  1  0.30905300  0.51612400  0.29688500  1
