# generated using pymatgen
data_CuH8C21N2(OF)4
_symmetry_space_group_name_H-M   'P 1'
_cell_length_a   16.22353700
_cell_length_b   17.00544600
_cell_length_c   17.70335900
_cell_angle_alpha   89.63376200
_cell_angle_beta   89.97557300
_cell_angle_gamma   93.57048500
_symmetry_Int_Tables_number   1
_chemical_formula_structural   CuH8C21N2(OF)4
_chemical_formula_sum   'Cu2 H16 C42 N4 O8 F8'
_cell_volume   4874.57117299
_cell_formula_units_Z   2
loop_
 _symmetry_equiv_pos_site_id
 _symmetry_equiv_pos_as_xyz
  1  'x, y, z'
loop_
 _atom_site_type_symbol
 _atom_site_label
 _atom_site_symmetry_multiplicity
 _atom_site_fract_x
 _atom_site_fract_y
 _atom_site_fract_z
 _atom_site_occupancy
  Cu  Cu1  1  0.41765800  0.50023400  0.50099700  1
  Cu  Cu2  1  0.58234000  0.49986700  0.49901300  1
  H  H1  1  0.38482400  0.74786400  0.49585200  1
  H  H2  1  0.61518100  0.25224100  0.50395400  1
  H  H3  1  0.39200100  0.88879600  0.49639300  1
  H  H4  1  0.60799400  0.11131900  0.50346300  1
  H  H5  1  0.34362600  0.10761800  0.49683400  1
  H  H6  1  0.65635100  0.89250000  0.50358300  1
  H  H7  1  0.35138200  0.25112400  0.49734800  1
  H  H8  1  0.64860300  0.74898800  0.50299100  1
  H  H9  1  0.36759500  0.49650800  0.12215000  1
  H  H10  1  0.63243400  0.50383800  0.87785000  1
  H  H11  1  0.62956200  0.50492800  0.26207900  1
  H  H12  1  0.37045500  0.49527800  0.73794000  1
  H  H13  1  0.29303800  0.58735600  0.41675500  1
  H  H14  1  0.70704300  0.41245400  0.58297400  1
  H  H15  1  0.28077700  0.41223000  0.58613200  1
  H  H16  1  0.71913200  0.58807200  0.41407000  1
  C  C1  1  0.50221800  0.49958100  0.64538600  1
  C  C2  1  0.49778300  0.50052900  0.35462600  1
  C  C3  1  0.48939100  0.34855100  0.50055200  1
  C  C4  1  0.51060800  0.65155300  0.49946400  1
  C  C5  1  0.48392200  0.26215500  0.50062100  1
  C  C6  1  0.51607300  0.73795100  0.49944000  1
  C  C7  1  0.55497800  0.22132400  0.50239100  1
  C  C8  1  0.44501700  0.77878200  0.49756000  1
  C  C9  1  0.55044400  0.14007400  0.50208000  1
  C  C10  1  0.44954700  0.86003700  0.49789500  1
  C  C11  1  0.47404900  0.09862800  0.50001000  1
  C  C12  1  0.52593600  0.90148400  0.50013500  1
  C  C13  1  0.40331500  0.13956500  0.49841500  1
  C  C14  1  0.59667000  0.86054900  0.50185900  1
  C  C15  1  0.40793700  0.22077300  0.49871600  1
  C  C16  1  0.59205500  0.77933600  0.50152600  1
  C  C17  1  0.42495100  0.49835700  0.15332400  1
  C  C18  1  0.57507700  0.50196000  0.84668100  1
  C  C19  1  0.42360500  0.49841000  0.23120800  1
  C  C20  1  0.57641100  0.50181700  0.76879800  1
  C  C21  1  0.49713600  0.50069700  0.27153800  1
  C  C22  1  0.50287400  0.49948100  0.72847400  1
  C  C23  1  0.57125500  0.50306700  0.23248100  1
  C  C24  1  0.42876200  0.49716600  0.76753700  1
  C  C25  1  0.57201000  0.50299100  0.15462200  1
  C  C26  1  0.42801800  0.49732900  0.84539600  1
  C  C27  1  0.49891500  0.50057900  0.11505100  1
  C  C28  1  0.50111700  0.49976800  0.88495900  1
  C  C29  1  0.49972500  0.50031600  0.03402700  1
  C  C30  1  0.50031700  0.50006200  0.96598100  1
  C  C31  1  0.17185800  0.54917800  0.45309700  1
  C  C32  1  0.82818300  0.45065700  0.54651000  1
  C  C33  1  0.25675800  0.54872900  0.45439500  1
  C  C34  1  0.74328600  0.45118700  0.54539800  1
  C  C35  1  0.24992800  0.45128600  0.54864700  1
  C  C36  1  0.75002100  0.54890800  0.45141400  1
  C  C37  1  0.16485900  0.45039500  0.54869300  1
  C  C38  1  0.83508300  0.54973200  0.45119300  1
  C  C39  1  0.12551900  0.49985600  0.50071900  1
  C  C40  1  0.87446800  0.50008600  0.49893600  1
  C  C41  1  0.03711200  0.49986700  0.50005500  1
  C  C42  1  0.96287300  0.50002300  0.49946600  1
  N  N1  1  0.46613200  0.01528900  0.49942300  1
  N  N2  1  0.53385200  0.98481800  0.50073600  1
  N  N3  1  0.29447600  0.50077600  0.50241000  1
  N  N4  1  0.70552100  0.49932500  0.49759900  1
  O  O1  1  0.43081400  0.49714000  0.61061400  1
  O  O2  1  0.56918600  0.50296900  0.38939700  1
  O  O3  1  0.57256800  0.50232000  0.60890000  1
  O  O4  1  0.42743200  0.49777600  0.39111100  1
  O  O5  1  0.42106100  0.38567400  0.49861100  1
  O  O6  1  0.57893900  0.61442900  0.50140700  1
  O  O7  1  0.56262800  0.38544200  0.50218200  1
  O  O8  1  0.43737200  0.61466100  0.49782400  1
  F  F1  1  0.12022500  0.40097300  0.59562400  1
  F  F2  1  0.87964900  0.59924600  0.40428700  1
  F  F3  1  0.34942400  0.49617500  0.26666400  1
  F  F4  1  0.65058600  0.50399600  0.73333800  1
  F  F5  1  0.64486100  0.50521700  0.11698000  1
  F  F6  1  0.35517300  0.49514600  0.88304700  1
  F  F7  1  0.13422700  0.59786500  0.40505600  1
  F  F8  1  0.86587800  0.40176400  0.59429500  1
