# generated using pymatgen
data_CuH23C31N3O4
_symmetry_space_group_name_H-M   'P 1'
_cell_length_a   10.68262600
_cell_length_b   15.52246700
_cell_length_c   17.14847400
_cell_angle_alpha   96.29315000
_cell_angle_beta   90.00592400
_cell_angle_gamma   92.84437200
_symmetry_Int_Tables_number   1
_chemical_formula_structural   CuH23C31N3O4
_chemical_formula_sum   'Cu2 H46 C62 N6 O8'
_cell_volume   2822.91080043
_cell_formula_units_Z   2
loop_
 _symmetry_equiv_pos_site_id
 _symmetry_equiv_pos_as_xyz
  1  'x, y, z'
loop_
 _atom_site_type_symbol
 _atom_site_label
 _atom_site_symmetry_multiplicity
 _atom_site_fract_x
 _atom_site_fract_y
 _atom_site_fract_z
 _atom_site_occupancy
  Cu  Cu1  1  0.49059400  0.41366400  0.49533800  1
  Cu  Cu2  1  0.50533500  0.58726700  0.51497600  1
  H  H1  1  0.91417100  0.40479800  0.39439000  1
  H  H2  1  0.08163000  0.59694100  0.61686100  1
  H  H3  1  0.06674300  0.35618300  0.51540500  1
  H  H4  1  0.92835500  0.64604000  0.49700000  1
  H  H5  1  0.91943100  0.44901700  0.62587600  1
  H  H6  1  0.07620300  0.55281300  0.38532000  1
  H  H7  1  0.47715400  0.38046500  0.89751400  1
  H  H8  1  0.46420400  0.61345000  0.11157200  1
  H  H9  1  0.54285400  0.34879000  0.11481900  1
  H  H10  1  0.51222300  0.65376100  0.89692200  1
  H  H11  1  0.54519000  0.36595000  0.25560700  1
  H  H12  1  0.51026600  0.63821000  0.75643000  1
  H  H13  1  0.60888000  0.28652200  0.57352200  1
  H  H14  1  0.36696400  0.71588300  0.44979400  1
  H  H15  1  0.61408100  0.13234800  0.57151300  1
  H  H16  1  0.37665100  0.86954500  0.44271500  1
  H  H17  1  0.69428500  0.89633800  0.59431000  1
  H  H18  1  0.37440400  0.10069200  0.37132300  1
  H  H19  1  0.79340000  0.73163800  0.59424100  1
  H  H20  1  0.67343800  0.66688400  0.63600700  1
  H  H21  1  0.91247900  0.80711500  0.69373300  1
  H  H22  1  0.93145200  0.89847200  0.81918900  1
  H  H23  1  0.74383400  0.93248700  0.89737800  1
  H  H24  1  0.53608000  0.87482200  0.84932500  1
  H  H25  1  0.51530300  0.78383100  0.72365800  1
  H  H26  1  0.38279900  0.26278600  0.30665000  1
  H  H27  1  0.31264700  0.33467600  0.38090900  1
  H  H28  1  0.22603700  0.19049400  0.22888200  1
  H  H29  1  0.02511600  0.10753300  0.21314200  1
  H  H30  1  0.89530100  0.08540800  0.32831100  1
  H  H31  1  0.96761400  0.14640800  0.45992600  1
  H  H32  1  0.16908400  0.22891400  0.47666700  1
  H  H33  1  0.54004600  0.31703800  0.70949000  1
  H  H34  1  0.37610900  0.33682700  0.69632200  1
  H  H35  1  0.58726000  0.20494400  0.78246200  1
  H  H36  1  0.51821400  0.09111600  0.86334900  1
  H  H37  1  0.30490200  0.08803100  0.91715200  1
  H  H38  1  0.15986000  0.19913000  0.88938100  1
  H  H39  1  0.22788700  0.31350300  0.80830800  1
  H  H40  1  0.54464700  0.68242600  0.30885100  1
  H  H41  1  0.37771200  0.65577900  0.30510300  1
  H  H42  1  0.64660100  0.75041200  0.19950700  1
  H  H43  1  0.62353500  0.86884500  0.11760700  1
  H  H44  1  0.41404300  0.91784600  0.09047600  1
  H  H45  1  0.22741100  0.84846600  0.14577900  1
  H  H46  1  0.24923100  0.73006400  0.22747300  1
  C  C1  1  0.50189900  0.50364000  0.35492800  1
  C  C2  1  0.49221700  0.49723500  0.65541200  1
  C  C3  1  0.25772500  0.50247000  0.50417800  1
  C  C4  1  0.73815500  0.49856200  0.50655700  1
  C  C5  1  0.03484100  0.42191500  0.51006300  1
  C  C6  1  0.96077600  0.57995800  0.50121900  1
  C  C7  1  0.95363200  0.44854500  0.44483400  1
  C  C8  1  0.04216800  0.55324000  0.56638200  1
  C  C9  1  0.87750500  0.49928500  0.50611300  1
  C  C10  1  0.11827700  0.50237800  0.50506700  1
  C  C11  1  0.95655200  0.47273700  0.57130000  1
  C  C12  1  0.03915100  0.52911700  0.43992700  1
  C  C13  1  0.50587600  0.50163000  0.26813700  1
  C  C14  1  0.48914700  0.49894300  0.74229900  1
  C  C15  1  0.48668100  0.57313700  0.22659700  1
  C  C16  1  0.47437400  0.42540600  0.78323200  1
  C  C17  1  0.48480700  0.56079000  0.14458400  1
  C  C18  1  0.48157900  0.43619400  0.86520700  1
  C  C19  1  0.50517300  0.48010400  0.10433800  1
  C  C20  1  0.49496700  0.51843700  0.90615000  1
  C  C21  1  0.52668800  0.41170200  0.14579400  1
  C  C22  1  0.50265100  0.58952800  0.86541200  1
  C  C23  1  0.52712400  0.42214800  0.22624600  1
  C  C24  1  0.50125600  0.57998000  0.78504100  1
  C  C25  1  0.43762900  0.75502900  0.48423700  1
  C  C26  1  0.55281400  0.24647900  0.53000200  1
  C  C27  1  0.44474500  0.84335600  0.47910000  1
  C  C28  1  0.55712000  0.15753600  0.52795200  1
  C  C29  1  0.53786000  0.89471500  0.51948800  1
  C  C30  1  0.48954400  0.10451800  0.47136700  1
  C  C31  1  0.62010800  0.85600000  0.56412900  1
  C  C32  1  0.42315000  0.14257100  0.41722300  1
  C  C33  1  0.60879500  0.76789300  0.57060700  1
  C  C34  1  0.41521400  0.23184300  0.42269500  1
  C  C35  1  0.70093600  0.73287900  0.62345800  1
  C  C36  1  0.71250200  0.78875700  0.70021600  1
  C  C37  1  0.82907800  0.82154800  0.72738500  1
  C  C38  1  0.84014300  0.87302200  0.79811700  1
  C  C39  1  0.73501800  0.89206900  0.84197600  1
  C  C40  1  0.61862800  0.85970700  0.81505000  1
  C  C41  1  0.60726400  0.80821000  0.74435100  1
  C  C42  1  0.33347300  0.26683800  0.36366400  1
  C  C43  1  0.21088800  0.21587900  0.35395400  1
  C  C44  1  0.17008600  0.18119100  0.28008600  1
  C  C45  1  0.05683400  0.13447600  0.27098800  1
  C  C46  1  0.98399900  0.12210200  0.33551700  1
  C  C47  1  0.02448100  0.15638100  0.40925100  1
  C  C48  1  0.13761700  0.20319700  0.41849500  1
  C  C49  1  0.45247200  0.33582700  0.73991500  1
  C  C50  1  0.41242200  0.26745300  0.79085300  1
  C  C51  1  0.49328100  0.20435500  0.80583600  1
  C  C52  1  0.45466900  0.14018500  0.85138100  1
  C  C53  1  0.33508000  0.13842400  0.88154000  1
  C  C54  1  0.25382100  0.20074000  0.86602000  1
  C  C55  1  0.29220700  0.26500500  0.82054900  1
  C  C56  1  0.46389400  0.66124900  0.26962300  1
  C  C57  1  0.44941800  0.73170700  0.21807300  1
  C  C58  1  0.55424300  0.77150800  0.18763400  1
  C  C59  1  0.54144000  0.83809300  0.14165200  1
  C  C60  1  0.42404500  0.86558800  0.12647200  1
  C  C61  1  0.31941600  0.82665700  0.15745800  1
  C  C62  1  0.33196000  0.76003100  0.20344500  1
  N  N1  1  0.50288200  0.46495300  0.02133100  1
  N  N2  1  0.49896500  0.53274800  0.98913700  1
  N  N3  1  0.51715500  0.71733000  0.53001800  1
  N  N4  1  0.47894000  0.28360200  0.48050500  1
  N  N5  1  0.54957900  0.98589600  0.51897400  1
  N  N6  1  0.48200400  0.01289000  0.46883000  1
  O  O1  1  0.49840900  0.42875300  0.38384900  1
  O  O2  1  0.49580200  0.57211800  0.62642200  1
  O  O3  1  0.50314900  0.57744200  0.40040900  1
  O  O4  1  0.49378100  0.42363600  0.60991200  1
  O  O5  1  0.30994300  0.42764000  0.49894500  1
  O  O6  1  0.68593200  0.57324600  0.51230400  1
  O  O7  1  0.32245100  0.57682500  0.50917900  1
  O  O8  1  0.67354000  0.42407400  0.50047900  1
