# generated using pymatgen
data_ZnH11C16(NO)4
_symmetry_space_group_name_H-M   'P 1'
_cell_length_a   14.33923300
_cell_length_b   8.54825300
_cell_length_c   15.06943200
_cell_angle_alpha   90.00000000
_cell_angle_beta   90.99347900
_cell_angle_gamma   90.00000000
_symmetry_Int_Tables_number   1
_chemical_formula_structural   ZnH11C16(NO)4
_chemical_formula_sum   'Zn2 H22 C32 N8 O8'
_cell_volume   1846.86385566
_cell_formula_units_Z   2
loop_
 _symmetry_equiv_pos_site_id
 _symmetry_equiv_pos_as_xyz
  1  'x, y, z'
loop_
 _atom_site_type_symbol
 _atom_site_label
 _atom_site_symmetry_multiplicity
 _atom_site_fract_x
 _atom_site_fract_y
 _atom_site_fract_z
 _atom_site_occupancy
  Zn  Zn1  1  0.89689100  0.50034000  0.51097000  1
  Zn  Zn2  1  0.10310700  0.49966400  0.48903100  1
  H  H1  1  0.04468000  0.99978600  0.56010400  1
  H  H2  1  0.95531800  0.00021800  0.43989600  1
  H  H3  1  0.00221100  0.25099600  0.79816200  1
  H  H4  1  0.99778700  0.74900800  0.20183900  1
  H  H5  1  0.00018900  0.25058300  0.20163700  1
  H  H6  1  0.99980900  0.74942100  0.79836300  1
  H  H7  1  0.91421600  0.20239200  0.91639600  1
  H  H8  1  0.08578200  0.79761300  0.08360500  1
  H  H9  1  0.91148100  0.20327400  0.07704500  1
  H  H10  1  0.08851700  0.79673100  0.92295600  1
  H  H11  1  0.51374200  0.16667400  0.40187600  1
  H  H12  1  0.60386000  0.16810200  0.47546200  1
  H  H13  1  0.48625800  0.83332800  0.59812500  1
  H  H14  1  0.39613700  0.83189800  0.52453800  1
  H  H15  1  0.48528200  0.17699700  0.60858000  1
  H  H16  1  0.39481700  0.17260200  0.53544100  1
  H  H17  1  0.51471500  0.82300500  0.39142100  1
  H  H18  1  0.60518200  0.82740200  0.46456000  1
  H  H19  1  0.51693700  0.49402500  0.28729400  1
  H  H20  1  0.41737500  0.59291700  0.30614300  1
  H  H21  1  0.48305800  0.50598800  0.71270300  1
  H  H22  1  0.58262700  0.40708900  0.69385300  1
  C  C1  1  0.02113400  0.13924900  0.67394000  1
  C  C2  1  0.97886400  0.86075600  0.32606100  1
  C  C3  1  0.97799500  0.13967600  0.32591100  1
  C  C4  1  0.02200300  0.86032800  0.67409000  1
  C  C5  1  0.00752600  0.14013900  0.76430400  1
  C  C6  1  0.99247200  0.85986500  0.23569700  1
  C  C7  1  0.99124000  0.14036300  0.23552000  1
  C  C8  1  0.00875800  0.85964200  0.76448200  1
  C  C9  1  0.00579300  0.99987600  0.81066200  1
  C  C10  1  0.99420500  0.00012800  0.18933900  1
  C  C11  1  0.03332500  0.99981000  0.63051500  1
  C  C12  1  0.96667300  0.00019500  0.36948600  1
  C  C13  1  0.95338500  0.11433900  0.95240500  1
  C  C14  1  0.04661300  0.88566600  0.04759600  1
  C  C15  1  0.95205000  0.11506900  0.04388300  1
  C  C16  1  0.04794800  0.88493500  0.95611800  1
  C  C17  1  0.99867200  0.00087400  0.09209400  1
  C  C18  1  0.00132600  0.99913000  0.90790700  1
  C  C19  1  0.01503500  0.71828500  0.62064600  1
  C  C20  1  0.98496300  0.28171900  0.37935500  1
  C  C21  1  0.98541900  0.71869500  0.37954700  1
  C  C22  1  0.01457900  0.28131000  0.62045400  1
  C  C23  1  0.46544600  0.37793100  0.53936900  1
  C  C24  1  0.53455200  0.62207400  0.46063300  1
  C  C25  1  0.53424300  0.37377200  0.46472400  1
  C  C26  1  0.46575500  0.62623300  0.53527700  1
  C  C27  1  0.52265700  0.50425000  0.58428900  1
  C  C28  1  0.47734100  0.49575500  0.41571200  1
  C  C29  1  0.59259000  0.50009500  0.50986200  1
  C  C30  1  0.40740800  0.49991000  0.49013900  1
  C  C31  1  0.69442700  0.50040200  0.51801400  1
  C  C32  1  0.30557100  0.49960300  0.48198800  1
  N  N1  1  0.77509000  0.50062100  0.52180600  1
  N  N2  1  0.22490800  0.49938300  0.47819500  1
  N  N3  1  0.57059400  0.23209500  0.42510900  1
  N  N4  1  0.42940400  0.76791000  0.57489200  1
  N  N5  1  0.42864000  0.24093200  0.58355900  1
  N  N6  1  0.57135800  0.75907300  0.41644200  1
  N  N7  1  0.45433200  0.49099100  0.32160800  1
  N  N8  1  0.54566600  0.50901400  0.67839300  1
  O  O1  1  0.09029800  0.66888100  0.58112500  1
  O  O2  1  0.90970000  0.33112400  0.41887600  1
  O  O3  1  0.91001600  0.66974700  0.41902900  1
  O  O4  1  0.08998200  0.33025700  0.58097200  1
  O  O5  1  0.93134200  0.66340300  0.60248800  1
  O  O6  1  0.06865600  0.33660100  0.39751300  1
  O  O7  1  0.06896100  0.66315400  0.39766200  1
  O  O8  1  0.93103700  0.33685100  0.60233900  1
