# generated using pymatgen
data_Cu2H11C22N2O8F
_symmetry_space_group_name_H-M   'P 1'
_cell_length_a   14.42788300
_cell_length_b   11.04843500
_cell_length_c   9.55521200
_cell_angle_alpha   90.02053100
_cell_angle_beta   90.00386500
_cell_angle_gamma   90.00000000
_symmetry_Int_Tables_number   1
_chemical_formula_structural   Cu2H11C22N2O8F
_chemical_formula_sum   'Cu2 H11 C22 N2 O8 F1'
_cell_volume   1523.15350811
_cell_formula_units_Z   1
loop_
 _symmetry_equiv_pos_site_id
 _symmetry_equiv_pos_as_xyz
  1  'x, y, z'
loop_
 _atom_site_type_symbol
 _atom_site_label
 _atom_site_symmetry_multiplicity
 _atom_site_fract_x
 _atom_site_fract_y
 _atom_site_fract_z
 _atom_site_occupancy
  Cu  Cu1  1  0.47793100  0.52859700  0.62234400  1
  Cu  Cu2  1  0.48482900  0.52573400  0.34244900  1
  H  H1  1  0.48850100  0.91731300  0.26824400  1
  H  H2  1  0.47118800  0.93157800  0.58743400  1
  H  H3  1  0.48359800  0.14035800  0.27125700  1
  H  H4  1  0.48193900  0.12163500  0.59189400  1
  H  H5  1  0.42728600  0.35626900  0.85887500  1
  H  H6  1  0.47081700  0.61428700  0.88040700  1
  H  H7  1  0.38201100  0.40486400  0.11305300  1
  H  H8  1  0.57176500  0.73686300  0.11480300  1
  H  H9  1  0.72875300  0.77768300  0.02798700  1
  H  H10  1  0.76779700  0.40152700  0.95082100  1
  H  H11  1  0.61192200  0.35945100  0.03883500  1
  C  C1  1  0.48189300  0.29470100  0.48494800  1
  C  C2  1  0.30373200  0.52550800  0.47211200  1
  C  C3  1  0.47949500  0.75974200  0.48014900  1
  C  C4  1  0.65912200  0.52858600  0.49274500  1
  C  C5  1  0.20433200  0.52535200  0.46899500  1
  C  C6  1  0.12085000  0.52569500  0.47179100  1
  C  C7  1  0.02312400  0.52647800  0.47893900  1
  C  C8  1  0.93975200  0.52728700  0.48602300  1
  C  C9  1  0.84201900  0.52817900  0.49313400  1
  C  C10  1  0.75853400  0.52865200  0.49589500  1
  C  C11  1  0.48319000  0.96090200  0.36952500  1
  C  C12  1  0.47747700  0.89232200  0.48453700  1
  C  C13  1  0.48252000  0.09514100  0.37183000  1
  C  C14  1  0.48185000  0.16198600  0.48911500  1
  C  C15  1  0.44594900  0.44147300  0.90724300  1
  C  C16  1  0.43691000  0.45430600  0.06093700  1
  C  C17  1  0.58010500  0.54632500  0.07867800  1
  C  C18  1  0.61446000  0.66295600  0.07841800  1
  C  C19  1  0.70259100  0.68601300  0.02943900  1
  C  C20  1  0.75741800  0.59224200  0.98266600  1
  C  C21  1  0.72429900  0.47527100  0.98572600  1
  C  C22  1  0.63603300  0.45202600  0.03423800  1
  N  N1  1  0.47163500  0.53141200  0.83147700  1
  N  N2  1  0.49053100  0.52374900  0.13327100  1
  O  O1  1  0.47683000  0.35247600  0.60478500  1
  O  O2  1  0.48170900  0.34993000  0.36341400  1
  O  O3  1  0.34387500  0.53099000  0.59489200  1
  O  O4  1  0.34965300  0.52082600  0.35353700  1
  O  O5  1  0.47405700  0.70402700  0.59995900  1
  O  O6  1  0.48079600  0.70191200  0.36046300  1
  O  O7  1  0.61303600  0.53461500  0.61046300  1
  O  O8  1  0.61878000  0.52211800  0.37076900  1
  F  F1  1  0.84418600  0.61486800  0.93512500  1
