# generated using pymatgen
data_CuH16C35NO8
_symmetry_space_group_name_H-M   'P 1'
_cell_length_a   15.04167100
_cell_length_b   13.54852100
_cell_length_c   11.90596400
_cell_angle_alpha   90.00000000
_cell_angle_beta   89.98631400
_cell_angle_gamma   90.00000000
_symmetry_Int_Tables_number   1
_chemical_formula_structural   CuH16C35NO8
_chemical_formula_sum   'Cu2 H32 C70 N2 O16'
_cell_volume   2426.34485411
_cell_formula_units_Z   2
loop_
 _symmetry_equiv_pos_site_id
 _symmetry_equiv_pos_as_xyz
  1  'x, y, z'
loop_
 _atom_site_type_symbol
 _atom_site_label
 _atom_site_symmetry_multiplicity
 _atom_site_fract_x
 _atom_site_fract_y
 _atom_site_fract_z
 _atom_site_occupancy
  Cu  Cu1  1  0.49771400  0.60055000  0.49890900  1
  Cu  Cu2  1  0.50090400  0.40308600  0.49958800  1
  H  H1  1  0.77717000  0.47588700  0.32217900  1
  H  H2  1  0.22185600  0.52847800  0.67344500  1
  H  H3  1  0.91929800  0.55115000  0.77293500  1
  H  H4  1  0.07912900  0.45022100  0.22538200  1
  H  H5  1  0.39795700  0.75660100  0.62217000  1
  H  H6  1  0.59764900  0.24975900  0.37306300  1
  H  H7  1  0.58909400  0.75182200  0.37097800  1
  H  H8  1  0.40071500  0.24965500  0.61685900  1
  H  H9  1  0.76657900  0.38790600  0.76528800  1
  H  H10  1  0.68236500  0.47347500  0.93568100  1
  H  H11  1  0.66456300  0.66129800  0.88176100  1
  H  H12  1  0.26876900  0.29738800  0.32928000  1
  H  H13  1  0.34305700  0.31778800  0.12730400  1
  H  H14  1  0.31140600  0.50202800  0.06483800  1
  H  H15  1  0.13567700  0.37103400  0.79942300  1
  H  H16  1  0.15815000  0.39864300  0.01689500  1
  H  H17  1  0.10106100  0.57973700  0.06067500  1
  H  H18  1  0.96386500  0.33915000  0.11233400  1
  H  H19  1  0.89328100  0.41836800  0.92871300  1
  H  H20  1  0.82968300  0.59272200  0.99073400  1
  H  H21  1  0.76421800  0.82445700  0.40094100  1
  H  H22  1  0.84037900  0.76077800  0.21181100  1
  H  H23  1  0.74655100  0.83668300  0.04526200  1
  H  H24  1  0.42477400  0.17717700  0.83872600  1
  H  H25  1  0.27586700  0.24210500  0.93424500  1
  H  H26  1  0.14343200  0.16695500  0.81657700  1
  H  H27  1  0.38347600  0.93428200  0.88366500  1
  H  H28  1  0.24743800  0.82531500  0.95579500  1
  H  H29  1  0.16069100  0.76792300  0.77477000  1
  H  H30  1  0.80516300  0.06661800  0.35405400  1
  H  H31  1  0.86349100  0.17555500  0.18296500  1
  H  H32  1  0.72081400  0.23649800  0.07424200  1
  C  C1  1  0.32825600  0.49873400  0.50040600  1
  C  C2  1  0.67049400  0.50482200  0.49751200  1
  C  C3  1  0.50116600  0.50222900  0.28279700  1
  C  C4  1  0.49813500  0.50145000  0.71558500  1
  C  C5  1  0.50209500  0.50205400  0.16104700  1
  C  C6  1  0.49630200  0.50199200  0.83737600  1
  C  C7  1  0.50071000  0.50237400  0.05910800  1
  C  C8  1  0.49733900  0.50207300  0.93937100  1
  C  C9  1  0.81445600  0.49089400  0.39779000  1
  C  C10  1  0.18384800  0.51351100  0.59857100  1
  C  C11  1  0.76807300  0.50776100  0.49583200  1
  C  C12  1  0.23030300  0.49545000  0.50098200  1
  C  C13  1  0.81377800  0.52616000  0.59365500  1
  C  C14  1  0.18427000  0.47441700  0.40384900  1
  C  C15  1  0.90620500  0.52380700  0.59517500  1
  C  C16  1  0.09184600  0.47844800  0.40235800  1
  C  C17  1  0.95281300  0.50388700  0.49776400  1
  C  C18  1  0.04528600  0.49926700  0.49959000  1
  C  C19  1  0.90692400  0.48968200  0.39827100  1
  C  C20  1  0.09129500  0.51349400  0.59882900  1
  C  C21  1  0.95265500  0.53826700  0.69399800  1
  C  C22  1  0.04538900  0.46350400  0.30373100  1
  C  C23  1  0.04374500  0.53003400  0.69663900  1
  C  C24  1  0.95427200  0.47156700  0.30072900  1
  C  C25  1  0.44147000  0.79810700  0.56800500  1
  C  C26  1  0.55696900  0.20649300  0.42942800  1
  C  C27  1  0.54997700  0.79611000  0.42743300  1
  C  C28  1  0.44674900  0.20680100  0.56799700  1
  C  C29  1  0.55485600  0.89852300  0.42812700  1
  C  C30  1  0.44685100  0.10469600  0.57257600  1
  C  C31  1  0.44183400  0.90036600  0.56923600  1
  C  C32  1  0.55758900  0.10377100  0.42838200  1
  C  C33  1  0.49976300  0.95085600  0.49947400  1
  C  C34  1  0.50191500  0.05293000  0.50058600  1
  C  C35  1  0.61306400  0.94932400  0.35783200  1
  C  C36  1  0.39001600  0.05410200  0.64483900  1
  C  C37  1  0.38680900  0.95210000  0.64195200  1
  C  C38  1  0.61350200  0.05158000  0.35701400  1
  C  C39  1  0.76282900  0.53902600  0.69657700  1
  C  C40  1  0.74688600  0.46448000  0.77186700  1
  C  C41  1  0.70379100  0.50803500  0.85845000  1
  C  C42  1  0.69562400  0.60588300  0.82946900  1
  C  C43  1  0.23462800  0.45329500  0.30224200  1
  C  C44  1  0.27103600  0.36307400  0.27790100  1
  C  C45  1  0.30841600  0.37364800  0.17504300  1
  C  C46  1  0.29184700  0.46972300  0.14404100  1
  C  C47  1  0.08488200  0.52340300  0.80689200  1
  C  C48  1  0.12345800  0.43826900  0.84575500  1
  C  C49  1  0.13477800  0.45260500  0.95717300  1
  C  C50  1  0.10339700  0.54604900  0.97854500  1
  C  C51  1  0.91238900  0.47507500  0.19048200  1
  C  C52  1  0.92768100  0.40788700  0.10637800  1
  C  C53  1  0.89218300  0.44874900  0.01263900  1
  C  C54  1  0.85888300  0.53862400  0.04596800  1
  C  C55  1  0.67319900  0.89696200  0.28153500  1
  C  C56  1  0.74410800  0.84039900  0.31564100  1
  C  C57  1  0.78304300  0.80842000  0.21940900  1
  C  C58  1  0.73353600  0.84815500  0.13352700  1
  C  C59  1  0.33002400  0.10602500  0.72233100  1
  C  C60  1  0.35737300  0.16187000  0.81246100  1
  C  C61  1  0.28148200  0.19449900  0.86170700  1
  C  C62  1  0.21321700  0.15526600  0.79931400  1
  C  C63  1  0.32572000  0.89999200  0.71790400  1
  C  C64  1  0.33356200  0.89817800  0.83295300  1
  C  C65  1  0.26447200  0.84238200  0.86971000  1
  C  C66  1  0.21965400  0.81351500  0.77468700  1
  C  C67  1  0.67427800  0.10383300  0.28146800  1
  C  C68  1  0.76536900  0.10379200  0.29129000  1
  C  C69  1  0.79514900  0.15970500  0.20451900  1
  C  C70  1  0.72027600  0.19060300  0.14848600  1
  N  N1  1  0.49561400  0.74822700  0.49835400  1
  N  N2  1  0.50317400  0.25544000  0.50019800  1
  O  O1  1  0.36868200  0.58422300  0.49517400  1
  O  O2  1  0.63003300  0.41915800  0.50317200  1
  O  O3  1  0.62721000  0.58909400  0.49509000  1
  O  O4  1  0.37155500  0.41488500  0.50370700  1
  O  O5  1  0.50089700  0.58705000  0.33556300  1
  O  O6  1  0.50349900  0.41674700  0.66289000  1
  O  O7  1  0.50047500  0.58622300  0.66224600  1
  O  O8  1  0.50365400  0.41747600  0.33616400  1
  O  O9  1  0.73187000  0.62544100  0.73062500  1
  O  O10  1  0.24641200  0.51866900  0.22114200  1
  O  O11  1  0.07066900  0.58874000  0.88752900  1
  O  O12  1  0.87109400  0.55514800  0.15422800  1
  O  O13  1  0.66666667  0.90264800  0.17083000  1
  O  O14  1  0.24227600  0.10074500  0.71456000  1
  O  O15  1  0.25662500  0.84829700  0.68173200  1
  O  O16  1  0.64629500  0.15695900  0.19503200  1
