# generated using pymatgen
data_Cu3H34(C23O6)2
_symmetry_space_group_name_H-M   'P 1'
_cell_length_a   36.81641900
_cell_length_b   30.13643000
_cell_length_c   21.58536300
_cell_angle_alpha   90.00000000
_cell_angle_beta   54.93293500
_cell_angle_gamma   90.00000000
_symmetry_Int_Tables_number   1
_chemical_formula_structural   Cu3H34(C23O6)2
_chemical_formula_sum   'Cu12 H136 C184 O48'
_cell_volume   19602.02027482
_cell_formula_units_Z   4
loop_
 _symmetry_equiv_pos_site_id
 _symmetry_equiv_pos_as_xyz
  1  'x, y, z'
loop_
 _atom_site_type_symbol
 _atom_site_label
 _atom_site_symmetry_multiplicity
 _atom_site_fract_x
 _atom_site_fract_y
 _atom_site_fract_z
 _atom_site_occupancy
  Cu  Cu1  1  0.00000000  0.56050900  0.50000000  1
  Cu  Cu2  1  0.50000000  0.06050900  0.50000000  1
  Cu  Cu3  1  0.00000000  0.47379700  0.50000000  1
  Cu  Cu4  1  0.50000000  0.97379700  0.50000000  1
  Cu  Cu5  1  0.95590500  0.51447600  0.03915600  1
  Cu  Cu6  1  0.04409500  0.51447600  0.96084400  1
  Cu  Cu7  1  0.45590500  0.01447600  0.03915600  1
  Cu  Cu8  1  0.54409500  0.01447600  0.96084400  1
  Cu  Cu9  1  0.50114200  0.51445000  0.06054700  1
  Cu  Cu10  1  0.49885800  0.51445000  0.93945300  1
  Cu  Cu11  1  0.00114200  0.01445000  0.06054700  1
  Cu  Cu12  1  0.99885800  0.01445000  0.93945300  1
  H  H1  1  0.06723500  0.65400000  0.90240300  1
  H  H2  1  0.93276500  0.65400000  0.09759700  1
  H  H3  1  0.56723500  0.15400000  0.90240300  1
  H  H4  1  0.43276500  0.15400000  0.09759700  1
  H  H5  1  0.95311000  0.55742400  0.73970500  1
  H  H6  1  0.04689000  0.55742400  0.26029500  1
  H  H7  1  0.45311000  0.05742400  0.73970600  1
  H  H8  1  0.54689000  0.05742400  0.26029500  1
  H  H9  1  0.08685700  0.48237800  0.55245600  1
  H  H10  1  0.91314300  0.48237800  0.44754400  1
  H  H11  1  0.58685700  0.98237800  0.55245600  1
  H  H12  1  0.41314300  0.98237800  0.44754400  1
  H  H13  1  0.13821600  0.43569300  0.55624400  1
  H  H14  1  0.86178400  0.43569300  0.44375500  1
  H  H15  1  0.63821600  0.93569300  0.55624400  1
  H  H16  1  0.36178400  0.93569300  0.44375500  1
  H  H17  1  0.06698200  0.45260600  0.79314000  1
  H  H18  1  0.93301800  0.45260700  0.20685900  1
  H  H19  1  0.56698200  0.95260600  0.79314000  1
  H  H20  1  0.43301800  0.95260700  0.20685900  1
  H  H21  1  0.95196300  0.55490900  0.85272400  1
  H  H22  1  0.04803700  0.55490900  0.14727600  1
  H  H23  1  0.45196300  0.05490900  0.85272400  1
  H  H24  1  0.54803700  0.05490900  0.14727600  1
  H  H25  1  0.21849200  0.44719900  0.25205500  1
  H  H26  1  0.78150800  0.44719900  0.74794500  1
  H  H27  1  0.71849200  0.94719900  0.25205500  1
  H  H28  1  0.28150800  0.94719900  0.74794500  1
  H  H29  1  0.13805400  0.44791700  0.32959600  1
  H  H30  1  0.86194600  0.44791700  0.67040300  1
  H  H31  1  0.63805400  0.94791700  0.32959600  1
  H  H32  1  0.36194600  0.94791700  0.67040300  1
  H  H33  1  0.13919200  0.58562500  0.37694100  1
  H  H34  1  0.86080800  0.58562500  0.62305900  1
  H  H35  1  0.63919200  0.08562500  0.37694100  1
  H  H36  1  0.36080800  0.08562500  0.62305900  1
  H  H37  1  0.21923800  0.58515400  0.29780700  1
  H  H38  1  0.78076200  0.58515400  0.70219300  1
  H  H39  1  0.71923800  0.08515400  0.29780700  1
  H  H40  1  0.28076200  0.08515400  0.70219300  1
  H  H41  1  0.27770400  0.55744700  0.29950200  1
  H  H42  1  0.72229600  0.55744700  0.70049800  1
  H  H43  1  0.77770400  0.05744700  0.29950200  1
  H  H44  1  0.22229600  0.05744700  0.70049800  1
  H  H45  1  0.36145200  0.47462600  0.06048700  1
  H  H46  1  0.63854800  0.47462600  0.93951300  1
  H  H47  1  0.86145200  0.97462600  0.06048700  1
  H  H48  1  0.13854800  0.97462600  0.93951300  1
  H  H49  1  0.28111500  0.47441400  0.13609700  1
  H  H50  1  0.71888500  0.47441400  0.86390200  1
  H  H51  1  0.78111500  0.97441400  0.13609700  1
  H  H52  1  0.21888500  0.97441400  0.86390200  1
  H  H53  1  0.47359900  0.37494900  0.11783200  1
  H  H54  1  0.52640100  0.37494900  0.88216800  1
  H  H55  1  0.97359900  0.87494900  0.11783200  1
  H  H56  1  0.02640100  0.87494900  0.88216800  1
  H  H57  1  0.06696200  0.73473800  0.90215300  1
  H  H58  1  0.93303800  0.73473800  0.09784700  1
  H  H59  1  0.56696200  0.23473800  0.90215300  1
  H  H60  1  0.43303800  0.23473800  0.09784700  1
  H  H61  1  0.47324400  0.29421000  0.11777200  1
  H  H62  1  0.52675600  0.29421000  0.88222800  1
  H  H63  1  0.97324400  0.79421000  0.11777200  1
  H  H64  1  0.02675600  0.79421000  0.88222800  1
  H  H65  1  0.06616900  0.29417400  0.97040200  1
  H  H66  1  0.93383100  0.29417400  0.02959800  1
  H  H67  1  0.56616900  0.79417400  0.97040200  1
  H  H68  1  0.43383100  0.79417400  0.02959800  1
  H  H69  1  0.06649200  0.37493000  0.96948600  1
  H  H70  1  0.93350800  0.37493000  0.03051400  1
  H  H71  1  0.56649200  0.87493000  0.96948600  1
  H  H72  1  0.43350800  0.87493000  0.03051400  1
  H  H73  1  0.47612200  0.73475600  0.93031900  1
  H  H74  1  0.52387800  0.73475600  0.06968000  1
  H  H75  1  0.97612200  0.23475600  0.93031900  1
  H  H76  1  0.02387800  0.23475600  0.06968000  1
  H  H77  1  0.47656300  0.65399500  0.92945300  1
  H  H78  1  0.52343700  0.65399500  0.07054700  1
  H  H79  1  0.97656300  0.15399500  0.92945300  1
  H  H80  1  0.02343700  0.15399500  0.07054700  1
  H  H81  1  0.42622700  0.58001800  0.25768900  1
  H  H82  1  0.37566500  0.60854300  0.32914800  1
  H  H83  1  0.39262800  0.55900300  0.35350300  1
  H  H84  1  0.33179100  0.54199000  0.34054900  1
  H  H85  1  0.38235900  0.51476000  0.26732300  1
  H  H86  1  0.39613500  0.58206100  0.18174800  1
  H  H87  1  0.34219700  0.60068800  0.25473500  1
  H  H88  1  0.57377300  0.58001800  0.74231100  1
  H  H89  1  0.62433500  0.60854300  0.67085100  1
  H  H90  1  0.60737200  0.55900300  0.64649700  1
  H  H91  1  0.66820900  0.54199000  0.65945000  1
  H  H92  1  0.61764100  0.51476000  0.73267700  1
  H  H93  1  0.60386500  0.58206100  0.81825200  1
  H  H94  1  0.65780300  0.60068800  0.74526500  1
  H  H95  1  0.92622700  0.08001800  0.25768900  1
  H  H96  1  0.87566500  0.10854300  0.32914800  1
  H  H97  1  0.89262800  0.05900300  0.35350300  1
  H  H98  1  0.83179100  0.04199000  0.34054900  1
  H  H99  1  0.88235900  0.01476000  0.26732300  1
  H  H100  1  0.89613500  0.08206100  0.18174800  1
  H  H101  1  0.84219700  0.10068800  0.25473500  1
  H  H102  1  0.07377300  0.08001800  0.74231100  1
  H  H103  1  0.12433500  0.10854300  0.67085100  1
  H  H104  1  0.10737200  0.05900300  0.64649700  1
  H  H105  1  0.16820900  0.04199000  0.65945000  1
  H  H106  1  0.11764100  0.01476000  0.73267700  1
  H  H107  1  0.10386500  0.08206100  0.81825200  1
  H  H108  1  0.15780300  0.10068800  0.74526500  1
  H  H109  1  0.19851500  0.40026700  0.70871800  1
  H  H110  1  0.21638000  0.37218700  0.62129800  1
  H  H111  1  0.24530600  0.42124400  0.61939800  1
  H  H112  1  0.19660600  0.43929200  0.57909600  1
  H  H113  1  0.17728000  0.46624600  0.66788800  1
  H  H114  1  0.12396000  0.40318500  0.73669600  1
  H  H115  1  0.14045200  0.38016400  0.64702200  1
  H  H116  1  0.80148600  0.40026700  0.29128100  1
  H  H117  1  0.78362000  0.37218700  0.37870200  1
  H  H118  1  0.75469400  0.42124400  0.38060200  1
  H  H119  1  0.80339300  0.43929200  0.42090400  1
  H  H120  1  0.82272000  0.46624600  0.33211200  1
  H  H121  1  0.87604000  0.40318500  0.26330400  1
  H  H122  1  0.85954800  0.38016400  0.35297800  1
  H  H123  1  0.69851500  0.90026700  0.70871800  1
  H  H124  1  0.71638000  0.87218700  0.62129800  1
  H  H125  1  0.74530600  0.92124400  0.61939800  1
  H  H126  1  0.69660600  0.93929200  0.57909600  1
  H  H127  1  0.67728000  0.96624600  0.66788800  1
  H  H128  1  0.62396000  0.90318500  0.73669600  1
  H  H129  1  0.64045200  0.88016400  0.64702200  1
  H  H130  1  0.30148600  0.90026700  0.29128100  1
  H  H131  1  0.28362000  0.87218700  0.37870200  1
  H  H132  1  0.25469400  0.92124400  0.38060200  1
  H  H133  1  0.30339300  0.93929100  0.42090400  1
  H  H134  1  0.32272000  0.96624600  0.33211200  1
  H  H135  1  0.37604000  0.90318500  0.26330400  1
  H  H136  1  0.35954800  0.88016400  0.35297800  1
  C  C1  1  0.08400400  0.51708800  0.40913900  1
  C  C2  1  0.91599600  0.51708800  0.59086100  1
  C  C3  1  0.58400400  0.01708800  0.40913900  1
  C  C4  1  0.41599600  0.01708800  0.59086100  1
  C  C5  1  0.00793300  0.51758700  0.60927000  1
  C  C6  1  0.99206700  0.51758700  0.39072900  1
  C  C7  1  0.50793300  0.01758700  0.60927000  1
  C  C8  1  0.49206700  0.01758700  0.39072900  1
  C  C9  1  0.03757000  0.67139500  0.94565700  1
  C  C10  1  0.96243000  0.67139500  0.05434300  1
  C  C11  1  0.53757000  0.17139500  0.94565700  1
  C  C12  1  0.46243000  0.17139500  0.05434300  1
  C  C13  1  0.50000000  0.64831100  0.00000000  1
  C  C14  1  0.00000000  0.14831100  0.00000000  1
  C  C15  1  0.08047500  0.47601300  0.60702600  1
  C  C16  1  0.91952500  0.47601300  0.39297400  1
  C  C17  1  0.58047500  0.97601300  0.60702600  1
  C  C18  1  0.41952500  0.97601300  0.39297400  1
  C  C19  1  0.11072900  0.45007900  0.60830100  1
  C  C20  1  0.88927100  0.45007900  0.39169800  1
  C  C21  1  0.61072900  0.95007900  0.60830100  1
  C  C22  1  0.38927100  0.95007900  0.39169800  1
  C  C23  1  0.10526300  0.44143800  0.67563300  1
  C  C24  1  0.89473700  0.44143800  0.32436700  1
  C  C25  1  0.60526300  0.94143800  0.67563300  1
  C  C26  1  0.39473700  0.94143800  0.32436700  1
  C  C27  1  0.07077500  0.46097700  0.74123700  1
  C  C28  1  0.92922500  0.46097700  0.25876200  1
  C  C29  1  0.57077500  0.96097700  0.74123700  1
  C  C30  1  0.42922500  0.96097700  0.25876200  1
  C  C31  1  0.04146300  0.48952000  0.74008600  1
  C  C32  1  0.95853700  0.48952000  0.25991400  1
  C  C33  1  0.54146300  0.98952000  0.74008600  1
  C  C34  1  0.45853700  0.98952000  0.25991400  1
  C  C35  1  0.04425700  0.49412500  0.67335800  1
  C  C36  1  0.95574300  0.49412500  0.32664200  1
  C  C37  1  0.54425700  0.99412500  0.67335800  1
  C  C38  1  0.45574300  0.99412500  0.32664200  1
  C  C39  1  0.01141000  0.51752500  0.67372700  1
  C  C40  1  0.98859000  0.51752500  0.32627200  1
  C  C41  1  0.51141000  0.01752500  0.67372700  1
  C  C42  1  0.48859000  0.01752500  0.32627200  1
  C  C43  1  0.97877800  0.53920100  0.73853500  1
  C  C44  1  0.02122200  0.53920100  0.26146400  1
  C  C45  1  0.47877800  0.03920100  0.73853500  1
  C  C46  1  0.52122200  0.03920100  0.26146400  1
  C  C47  1  0.97759400  0.53695600  0.80316600  1
  C  C48  1  0.02240600  0.53695600  0.19683400  1
  C  C49  1  0.47759400  0.03695600  0.80316600  1
  C  C50  1  0.52240600  0.03695600  0.19683400  1
  C  C51  1  0.00856600  0.51235800  0.80492100  1
  C  C52  1  0.99143400  0.51235800  0.19507900  1
  C  C53  1  0.50856600  0.01235800  0.80492100  1
  C  C54  1  0.49143400  0.01235800  0.19507900  1
  C  C55  1  0.20136600  0.47797000  0.27821900  1
  C  C56  1  0.79863400  0.47797000  0.72178000  1
  C  C57  1  0.70136600  0.97797000  0.27821900  1
  C  C58  1  0.29863400  0.97797000  0.72178000  1
  C  C59  1  0.15555800  0.47831500  0.32278500  1
  C  C60  1  0.84444200  0.47831500  0.67721400  1
  C  C61  1  0.65555800  0.97831500  0.32278500  1
  C  C62  1  0.34444200  0.97831500  0.67721400  1
  C  C63  1  0.13265900  0.51678200  0.35919200  1
  C  C64  1  0.86734100  0.51678200  0.64080800  1
  C  C65  1  0.63265900  0.01678200  0.35919200  1
  C  C66  1  0.36734100  0.01678200  0.64080800  1
  C  C67  1  0.15612400  0.55496100  0.34971800  1
  C  C68  1  0.84387600  0.55496100  0.65028200  1
  C  C69  1  0.65612400  0.05496100  0.34971800  1
  C  C70  1  0.34387600  0.05496100  0.65028200  1
  C  C71  1  0.20182400  0.55459600  0.30518400  1
  C  C72  1  0.79817600  0.55459600  0.69481600  1
  C  C73  1  0.70182400  0.05459600  0.30518400  1
  C  C74  1  0.29817600  0.05459600  0.69481600  1
  C  C75  1  0.22484800  0.51604000  0.26958900  1
  C  C76  1  0.77515200  0.51604000  0.73041000  1
  C  C77  1  0.72484800  0.01604000  0.26958900  1
  C  C78  1  0.27515200  0.01604000  0.73041000  1
  C  C79  1  0.29602300  0.53942000  0.24666800  1
  C  C80  1  0.70397700  0.53942000  0.75333200  1
  C  C81  1  0.79602300  0.03942000  0.24666800  1
  C  C82  1  0.20397700  0.03942000  0.75333200  1
  C  C83  1  0.34183500  0.54053300  0.20333400  1
  C  C84  1  0.65816400  0.54053300  0.79666600  1
  C  C85  1  0.84183500  0.04053300  0.20333400  1
  C  C86  1  0.15816400  0.04053300  0.79666600  1
  C  C87  1  0.36598400  0.51667100  0.13578500  1
  C  C88  1  0.63401600  0.51667100  0.86421500  1
  C  C89  1  0.86598400  0.01667100  0.13578500  1
  C  C90  1  0.13401600  0.01667100  0.86421500  1
  C  C91  1  0.34340800  0.49319600  0.11280100  1
  C  C92  1  0.65659200  0.49319600  0.88719900  1
  C  C93  1  0.84340800  0.99319600  0.11280100  1
  C  C94  1  0.15659200  0.99319600  0.88719900  1
  C  C95  1  0.29769600  0.49250200  0.15634200  1
  C  C96  1  0.70230400  0.49250200  0.84365800  1
  C  C97  1  0.79769600  0.99250200  0.15634200  1
  C  C98  1  0.20230400  0.99250200  0.84365800  1
  C  C99  1  0.27364600  0.51567900  0.22363000  1
  C  C100  1  0.72635400  0.51567900  0.77636900  1
  C  C101  1  0.77364600  0.01567900  0.22363000  1
  C  C102  1  0.22635400  0.01567900  0.77636900  1
  C  C103  1  0.00000000  0.64831200  0.00000000  1
  C  C104  1  0.50000000  0.14831200  0.00000000  1
  C  C105  1  0.03733000  0.71713100  0.94503000  1
  C  C106  1  0.96267000  0.71713100  0.05496900  1
  C  C107  1  0.53733000  0.21713100  0.94503000  1
  C  C108  1  0.46267000  0.21713100  0.05496900  1
  C  C109  1  0.50000000  0.74018000  0.00000000  1
  C  C110  1  0.00000000  0.24018000  0.00000000  1
  C  C111  1  0.00000000  0.74018600  0.00000000  1
  C  C112  1  0.50000000  0.24018600  0.00000000  1
  C  C113  1  0.00000000  0.42920000  0.00000000  1
  C  C114  1  0.50000000  0.92920000  0.00000000  1
  C  C115  1  0.00583900  0.51261300  0.87556400  1
  C  C116  1  0.99416100  0.51261300  0.12443500  1
  C  C117  1  0.50583900  0.01261300  0.87556400  1
  C  C118  1  0.49416100  0.01261300  0.12443500  1
  C  C119  1  0.48478200  0.31181700  0.06592800  1
  C  C120  1  0.51521800  0.31181700  0.93407200  1
  C  C121  1  0.98478200  0.81181700  0.06592800  1
  C  C122  1  0.01521800  0.81181700  0.93407200  1
  C  C123  1  0.00000000  0.59973300  0.00000000  1
  C  C124  1  0.50000000  0.09973300  0.00000000  1
  C  C125  1  0.50000000  0.42921400  0.00000000  1
  C  C126  1  0.00000000  0.92921400  0.00000000  1
  C  C127  1  0.41475900  0.51588600  0.08687900  1
  C  C128  1  0.58524100  0.51588600  0.91312000  1
  C  C129  1  0.91475900  0.01588600  0.08687900  1
  C  C130  1  0.08524100  0.01588600  0.91312000  1
  C  C131  1  0.48538600  0.35755300  0.06572000  1
  C  C132  1  0.51461400  0.35755300  0.93428000  1
  C  C133  1  0.98538600  0.85755300  0.06572000  1
  C  C134  1  0.01461400  0.85755300  0.93428000  1
  C  C135  1  0.50000000  0.59973700  0.00000000  1
  C  C136  1  0.00000000  0.09973700  0.00000000  1
  C  C137  1  0.03688500  0.31179900  0.98391300  1
  C  C138  1  0.96311400  0.31179900  0.01608600  1
  C  C139  1  0.53688500  0.81179900  0.98391300  1
  C  C140  1  0.46311400  0.81179900  0.01608600  1
  C  C141  1  0.03715700  0.35753600  0.98276200  1
  C  C142  1  0.96284300  0.35753600  0.01723800  1
  C  C143  1  0.53715700  0.85753600  0.98276200  1
  C  C144  1  0.46284300  0.85753600  0.01723800  1
  C  C145  1  0.00000000  0.38062200  0.00000000  1
  C  C146  1  0.50000000  0.88062200  0.00000000  1
  C  C147  1  0.50000000  0.28876200  0.00000000  1
  C  C148  1  0.00000000  0.78876200  0.00000000  1
  C  C149  1  0.50000000  0.38063600  0.00000000  1
  C  C150  1  0.00000000  0.88063600  0.00000000  1
  C  C151  1  0.00000000  0.28875000  0.00000000  1
  C  C152  1  0.50000000  0.78875000  0.00000000  1
  C  C153  1  0.48639500  0.71713100  0.96143700  1
  C  C154  1  0.51360500  0.71713100  0.03856300  1
  C  C155  1  0.98639500  0.21713100  0.96143700  1
  C  C156  1  0.01360500  0.21713100  0.03856300  1
  C  C157  1  0.48703700  0.67139400  0.96044500  1
  C  C158  1  0.51296200  0.67139400  0.03955500  1
  C  C159  1  0.98703700  0.17139400  0.96044500  1
  C  C160  1  0.01296200  0.17139400  0.03955500  1
  C  C161  1  0.36298500  0.57054500  0.22930300  1
  C  C162  1  0.36572900  0.54733600  0.28890000  1
  C  C163  1  0.39179100  0.57564900  0.30852300  1
  C  C164  1  0.63701500  0.57054500  0.77069700  1
  C  C165  1  0.63427000  0.54733600  0.71110000  1
  C  C166  1  0.60820800  0.57564900  0.69147600  1
  C  C167  1  0.86298500  0.07054500  0.22930300  1
  C  C168  1  0.86572900  0.04733600  0.28890000  1
  C  C169  1  0.89179100  0.07564900  0.30852300  1
  C  C170  1  0.13701500  0.07054500  0.77069700  1
  C  C171  1  0.13427000  0.04733600  0.71110000  1
  C  C172  1  0.10820800  0.07564900  0.69147600  1
  C  C173  1  0.13683100  0.41135500  0.67735500  1
  C  C174  1  0.18164200  0.43383900  0.64005000  1
  C  C175  1  0.21242700  0.40492500  0.64796900  1
  C  C176  1  0.86316900  0.41135500  0.32264500  1
  C  C177  1  0.81835900  0.43383900  0.35995000  1
  C  C178  1  0.78757300  0.40492500  0.35203100  1
  C  C179  1  0.63683100  0.91135500  0.67735500  1
  C  C180  1  0.68164200  0.93383900  0.64005000  1
  C  C181  1  0.71242700  0.90492500  0.64796900  1
  C  C182  1  0.36316900  0.91135500  0.32264500  1
  C  C183  1  0.31835900  0.93383900  0.35995000  1
  C  C184  1  0.28757300  0.90492500  0.35203100  1
  O  O1  1  0.06406100  0.55377000  0.44718900  1
  O  O2  1  0.93593900  0.55377000  0.55281100  1
  O  O3  1  0.56406100  0.05377000  0.44718900  1
  O  O4  1  0.43593900  0.05377000  0.55281100  1
  O  O5  1  0.06225600  0.48053900  0.41547600  1
  O  O6  1  0.93774400  0.48053900  0.58452300  1
  O  O7  1  0.56225600  0.98053900  0.41547600  1
  O  O8  1  0.43774400  0.98053900  0.58452300  1
  O  O9  1  0.99293300  0.55376800  0.59641000  1
  O  O10  1  0.00706700  0.55376800  0.40359000  1
  O  O11  1  0.49293300  0.05376800  0.59641000  1
  O  O12  1  0.50706700  0.05376800  0.40359000  1
  O  O13  1  0.01687600  0.48054200  0.57028700  1
  O  O14  1  0.98312400  0.48054200  0.42971200  1
  O  O15  1  0.51687600  0.98054200  0.57028700  1
  O  O16  1  0.48312400  0.98054200  0.42971200  1
  O  O17  1  0.96175200  0.44996900  0.03625300  1
  O  O18  1  0.03824800  0.44996900  0.96374600  1
  O  O19  1  0.46175200  0.94996900  0.03625300  1
  O  O20  1  0.53824800  0.94996900  0.96374600  1
  O  O21  1  0.96645900  0.51611900  0.93957500  1
  O  O22  1  0.03354100  0.51611900  0.06042500  1
  O  O23  1  0.46645900  0.01611900  0.93957500  1
  O  O24  1  0.53354100  0.01611900  0.06042500  1
  O  O25  1  0.04254500  0.51588500  0.87195400  1
  O  O26  1  0.95745500  0.51588500  0.12804500  1
  O  O27  1  0.54254500  0.01588500  0.87195400  1
  O  O28  1  0.45745500  0.01588500  0.12804500  1
  O  O29  1  0.96171900  0.57897500  0.03681900  1
  O  O30  1  0.03828100  0.57897500  0.96318100  1
  O  O31  1  0.46171900  0.07897500  0.03681900  1
  O  O32  1  0.53828100  0.07897500  0.96318100  1
  O  O33  1  0.49841400  0.44997300  0.05495900  1
  O  O34  1  0.50158600  0.44997300  0.94504100  1
  O  O35  1  0.99841400  0.94997300  0.05495900  1
  O  O36  1  0.00158600  0.94997300  0.94504100  1
  O  O37  1  0.43647700  0.51362500  0.11816100  1
  O  O38  1  0.56352300  0.51362500  0.88183800  1
  O  O39  1  0.93647700  0.01362500  0.11816100  1
  O  O40  1  0.06352300  0.01362500  0.88183800  1
  O  O41  1  0.43457200  0.51219100  0.01358600  1
  O  O42  1  0.56542800  0.51219100  0.98641300  1
  O  O43  1  0.93457200  0.01219100  0.01358600  1
  O  O44  1  0.06542800  0.01219100  0.98641300  1
  O  O45  1  0.49992600  0.57897000  0.05346400  1
  O  O46  1  0.50007400  0.57897000  0.94653500  1
  O  O47  1  0.99992600  0.07897000  0.05346400  1
  O  O48  1  0.00007400  0.07897000  0.94653500  1
