# generated using pymatgen
data_Cu6H36C76O31
_symmetry_space_group_name_H-M   'P 1'
_cell_length_a   21.62661300
_cell_length_b   21.61396000
_cell_length_c   22.00150600
_cell_angle_alpha   60.61049500
_cell_angle_beta   119.41726600
_cell_angle_gamma   89.95916400
_symmetry_Int_Tables_number   1
_chemical_formula_structural   Cu6H36C76O31
_chemical_formula_sum   'Cu6 H36 C76 O31'
_cell_volume   7398.85892070
_cell_formula_units_Z   1
loop_
 _symmetry_equiv_pos_site_id
 _symmetry_equiv_pos_as_xyz
  1  'x, y, z'
loop_
 _atom_site_type_symbol
 _atom_site_label
 _atom_site_symmetry_multiplicity
 _atom_site_fract_x
 _atom_site_fract_y
 _atom_site_fract_z
 _atom_site_occupancy
  Cu  Cu1  1  0.50363100  0.43408700  0.50788800  1
  Cu  Cu2  1  0.49373100  0.56470200  0.49226200  1
  Cu  Cu3  1  0.05699800  0.99996800  0.49409600  1
  Cu  Cu4  1  0.94076200  0.99624500  0.50735700  1
  Cu  Cu5  1  0.94867500  0.53418500  0.41330300  1
  Cu  Cu6  1  0.04448900  0.46767200  0.57890200  1
  H  H1  1  0.37499100  0.76841800  0.05036500  1
  H  H2  1  0.33938500  0.71469500  0.94687500  1
  H  H3  1  0.22310200  0.85699300  0.94559000  1
  H  H4  1  0.19629400  0.73761300  0.05356000  1
  H  H5  1  0.16065400  0.68386200  0.95022400  1
  H  H6  1  0.31257700  0.59511700  0.05507900  1
  H  H7  1  0.65153100  0.60196800  0.41937800  1
  H  H8  1  0.82992000  0.25348200  0.76969200  1
  H  H9  1  0.92791500  0.24380300  0.74600100  1
  H  H10  1  0.92473500  0.34988800  0.63151200  1
  H  H11  1  0.76182300  0.60084800  0.41570100  1
  H  H12  1  0.60470900  0.33534900  0.95090400  1
  H  H13  1  0.74076000  0.35194100  0.05247600  1
  H  H14  1  0.78337400  0.36730600  0.94504400  1
  H  H15  1  0.85461000  0.20972300  0.04983300  1
  H  H16  1  0.34832400  0.40188900  0.58984200  1
  H  H17  1  0.28285900  0.62327300  0.33291900  1
  H  H18  1  0.17267000  0.73065600  0.21732400  1
  H  H19  1  0.05926800  0.64658300  0.33564900  1
  H  H20  1  0.23545600  0.40561600  0.58785600  1
  H  H21  1  0.97942800  0.76305300  0.58072500  1
  H  H22  1  0.96087100  0.95028100  0.33295100  1
  H  H23  1  0.96786100  0.84079000  0.22118600  1
  H  H24  1  0.98113400  0.72447300  0.33350300  1
  H  H25  1  0.98001100  0.65260000  0.57804700  1
  H  H26  1  0.00014300  0.23629200  0.41011300  1
  H  H27  1  0.05597800  0.15906600  0.79026600  1
  H  H28  1  0.02557900  0.27526800  0.66812800  1
  H  H29  1  0.99691100  0.34907700  0.40748500  1
  H  H30  1  0.62347900  0.17926900  0.01070100  1
  H  H31  1  0.75196600  0.13533700  0.99474800  1
  H  H32  1  0.06365700  0.79623800  0.21132800  1
  H  H33  1  0.90173800  0.99253300  0.16549200  1
  H  H34  1  0.02927800  0.00882500  0.69219700  1
  H  H35  1  0.13775000  0.01244200  0.85195900  1
  H  H36  1  0.73956800  0.38604400  0.71950200  1
  C  C1  1  0.62620000  0.49323700  0.51917300  1
  C  C2  1  0.43054600  0.56894000  0.33955000  1
  C  C3  1  0.37136600  0.50548400  0.48106300  1
  C  C4  1  0.56535400  0.42992900  0.66043300  1
  C  C5  1  0.30760000  0.71925900  0.97236100  1
  C  C6  1  0.32575700  0.74986200  0.02637600  1
  C  C7  1  0.39007800  0.60836700  0.24944600  1
  C  C8  1  0.13773700  0.85231000  0.75108100  1
  C  C9  1  0.29164300  0.65512100  0.02897100  1
  C  C10  1  0.30892400  0.68662500  0.08118900  1
  C  C11  1  0.20991600  0.70238500  0.97421600  1
  C  C12  1  0.22674000  0.76561800  0.91939400  1
  C  C13  1  0.22806000  0.73303800  0.02805700  1
  C  C14  1  0.24410500  0.79697700  0.97175500  1
  C  C15  1  0.35432000  0.64293100  0.17352700  1
  C  C16  1  0.17856400  0.81228600  0.82704200  1
  C  C17  1  0.76697200  0.36533300  0.66103000  1
  C  C18  1  0.82668600  0.30056100  0.71622600  1
  C  C19  1  0.88200000  0.29541600  0.70368600  1
  C  C20  1  0.88043700  0.35675400  0.63906200  1
  C  C21  1  0.82258300  0.42384700  0.58469100  1
  C  C22  1  0.76181200  0.42640500  0.59122100  1
  C  C23  1  0.69853300  0.49038700  0.52895600  1
  C  C24  1  0.70027600  0.55242300  0.46761300  1
  C  C25  1  0.76208300  0.55119300  0.46451500  1
  C  C26  1  0.82341600  0.48743100  0.52210800  1
  C  C27  1  0.70076500  0.22398600  0.02880700  1
  C  C28  1  0.66170200  0.30749800  0.97364400  1
  C  C29  1  0.60643200  0.39070000  0.75052900  1
  C  C30  1  0.86019200  0.14369700  0.25039600  1
  C  C31  1  0.72533100  0.23082600  0.97392600  1
  C  C32  1  0.68767700  0.31379200  0.91862900  1
  C  C33  1  0.79816400  0.23908400  0.02703600  1
  C  C34  1  0.77235000  0.23267000  0.08220200  1
  C  C35  1  0.75988600  0.32382000  0.97119400  1
  C  C36  1  0.73500800  0.31663900  0.02788800  1
  C  C37  1  0.64236500  0.35662600  0.82638900  1
  C  C38  1  0.81978100  0.18477700  0.17450200  1
  C  C39  1  0.23520800  0.62577200  0.33682700  1
  C  C40  1  0.17245300  0.68702600  0.27011000  1
  C  C41  1  0.11001500  0.69332800  0.27118400  1
  C  C42  1  0.10920500  0.63736600  0.33774400  1
  C  C43  1  0.17083700  0.57298500  0.40406700  1
  C  C44  1  0.23559900  0.56907900  0.40488500  1
  C  C45  1  0.29993800  0.50805600  0.47290400  1
  C  C46  1  0.29839200  0.44953100  0.53697000  1
  C  C47  1  0.23459600  0.45244300  0.53616700  1
  C  C48  1  0.17046400  0.51354200  0.47087000  1
  C  C49  1  0.98333500  0.89197400  0.47796000  1
  C  C50  1  0.08787700  0.90192500  0.66088100  1
  C  C51  1  0.01377800  0.10500600  0.52240100  1
  C  C52  1  0.90981100  0.09285800  0.34042300  1
  C  C53  1  0.98480500  0.63001800  0.47417500  1
  C  C54  1  0.88722000  0.49074100  0.51399100  1
  C  C55  1  0.00811200  0.37147900  0.51844400  1
  C  C56  1  0.10599200  0.51131800  0.47803000  1
  C  C57  1  0.96615100  0.89877600  0.33652100  1
  C  C58  1  0.96375900  0.90176900  0.27160800  1
  C  C59  1  0.96921100  0.83842100  0.27199200  1
  C  C60  1  0.97555000  0.77214300  0.33627200  1
  C  C61  1  0.97479400  0.76844900  0.40082000  1
  C  C62  1  0.97289300  0.83222600  0.40219600  1
  C  C63  1  0.97646200  0.82948000  0.46834400  1
  C  C64  1  0.97701700  0.76531200  0.52940000  1
  C  C65  1  0.97840000  0.70248400  0.52822800  1
  C  C66  1  0.97816400  0.70238600  0.46536300  1
  C  C67  1  0.05347700  0.09631500  0.67691200  1
  C  C68  1  0.06217000  0.09498600  0.74380100  1
  C  C69  1  0.05058100  0.16020800  0.73818200  1
  C  C70  1  0.03394900  0.22696600  0.66745000  1
  C  C71  1  0.02795400  0.23031300  0.59984300  1
  C  C72  1  0.03360100  0.16424000  0.60269100  1
  C  C73  1  0.02103900  0.16751900  0.53222000  1
  C  C74  1  0.00940400  0.23396600  0.46425500  1
  C  C75  1  0.00627200  0.29818200  0.46244900  1
  C  C76  1  0.01450300  0.29817700  0.52874300  1
  O  O1  1  0.60001500  0.43758400  0.52268000  1
  O  O2  1  0.59186900  0.55025600  0.51013900  1
  O  O3  1  0.45397600  0.49554200  0.38549800  1
  O  O4  1  0.44624500  0.60828700  0.37218200  1
  O  O5  1  0.40860000  0.44548000  0.49737800  1
  O  O6  1  0.39961200  0.55874100  0.48278200  1
  O  O7  1  0.55676400  0.39013100  0.62877400  1
  O  O8  1  0.54747000  0.50319200  0.61520300  1
  O  O9  1  0.03981000  0.91663400  0.48233600  1
  O  O10  1  0.93954300  0.91332400  0.49389100  1
  O  O11  1  0.11696500  0.92939500  0.61683800  1
  O  O12  1  0.01636100  0.92613700  0.62825400  1
  O  O13  1  0.06181200  0.07920800  0.51377500  1
  O  O14  1  0.96119800  0.07591700  0.52534800  1
  O  O15  1  0.98189700  0.07413300  0.37401100  1
  O  O16  1  0.88144500  0.07095100  0.38541400  1
  O  O17  1  0.94829100  0.62741600  0.40737400  1
  O  O18  1  0.02512900  0.56933500  0.55130500  1
  O  O19  1  0.87238300  0.52630700  0.43760100  1
  O  O20  1  0.95579500  0.46178900  0.58191200  1
  O  O21  1  0.96670400  0.43227400  0.44120100  1
  O  O22  1  0.04624700  0.37457100  0.58461700  1
  O  O23  1  0.03756000  0.53846000  0.41053700  1
  O  O24  1  0.12059900  0.47717100  0.55425700  1
  O  O25  1  0.67132200  0.16892300  0.06112400  1
  O  O26  1  0.71785900  0.18587700  0.94366400  1
  O  O27  1  0.04832100  0.75522900  0.20565300  1
  O  O28  1  0.95648700  0.96768200  0.20705700  1
  O  O29  1  0.06915600  0.02897700  0.68805600  1
  O  O30  1  0.08236400  0.02833000  0.81620500  1
  O  O31  1  0.71709900  0.36944300  0.68089700  1
