# generated using pymatgen
data_ZnH10C21(NO2)3
_symmetry_space_group_name_H-M   'P 1'
_cell_length_a   10.89508200
_cell_length_b   12.36496700
_cell_length_c   15.60403000
_cell_angle_alpha   84.05438400
_cell_angle_beta   90.07088500
_cell_angle_gamma   94.75805400
_symmetry_Int_Tables_number   1
_chemical_formula_structural   ZnH10C21(NO2)3
_chemical_formula_sum   'Zn2 H20 C42 N6 O12'
_cell_volume   2083.56251131
_cell_formula_units_Z   2
loop_
 _symmetry_equiv_pos_site_id
 _symmetry_equiv_pos_as_xyz
  1  'x, y, z'
loop_
 _atom_site_type_symbol
 _atom_site_label
 _atom_site_symmetry_multiplicity
 _atom_site_fract_x
 _atom_site_fract_y
 _atom_site_fract_z
 _atom_site_occupancy
  Zn  Zn1  1  0.51522300  0.88086500  0.50603400  1
  Zn  Zn2  1  0.48808800  0.11959500  0.49133000  1
  H  H1  1  0.21058200  0.94876900  0.00725600  1
  H  H2  1  0.79279700  0.05185600  0.99008700  1
  H  H3  1  0.10915900  0.02684100  0.63512800  1
  H  H4  1  0.89414300  0.97357500  0.36222100  1
  H  H5  1  0.38647500  0.87083100  0.77793400  1
  H  H6  1  0.61687200  0.12968300  0.21943700  1
  H  H7  1  0.27218100  0.86988600  0.90765500  1
  H  H8  1  0.73118800  0.13068000  0.08972000  1
  H  H9  1  0.74931200  0.13811100  0.87420700  1
  H  H10  1  0.25401000  0.86240100  0.12310600  1
  H  H11  1  0.63933300  0.13770200  0.74325400  1
  H  H12  1  0.36400300  0.86274900  0.25406500  1
  H  H13  1  0.99202200  0.20619200  0.36188100  1
  H  H14  1  0.09075200  0.20949600  0.27739600  1
  H  H15  1  0.01127700  0.79413900  0.63563800  1
  H  H16  1  0.91254000  0.79093900  0.72010700  1
  H  H17  1  0.60262000  0.37341900  0.69344300  1
  H  H18  1  0.68931700  0.33577000  0.61378800  1
  H  H19  1  0.32180000  0.66643700  0.37894700  1
  H  H20  1  0.21612900  0.59881200  0.44820800  1
  C  C1  1  0.06002200  0.97580400  0.92366100  1
  C  C2  1  0.94333700  0.02476000  0.07369000  1
  C  C3  1  0.11555000  0.96329100  0.00407500  1
  C  C4  1  0.88782000  0.03730100  0.99327000  1
  C  C5  1  0.05660100  0.98179700  0.07962100  1
  C  C6  1  0.94675600  0.01876400  0.91772500  1
  C  C7  1  0.06546100  0.97751300  0.76918300  1
  C  C8  1  0.93787400  0.02297000  0.22817700  1
  C  C9  1  0.13944900  0.98782600  0.69562300  1
  C  C10  1  0.86386600  0.01262200  0.30173500  1
  C  C11  1  0.25562700  0.95195700  0.69892800  1
  C  C12  1  0.74768900  0.04850400  0.29843700  1
  C  C13  1  0.29721000  0.90318200  0.77507500  1
  C  C14  1  0.70613000  0.09732000  0.22229500  1
  C  C15  1  0.23167200  0.90621400  0.84986700  1
  C  C16  1  0.77168200  0.09432000  0.14750200  1
  C  C17  1  0.11963700  0.95358700  0.84854700  1
  C  C18  1  0.88371400  0.04694300  0.14881300  1
  C  C19  1  0.78535800  0.09323300  0.82566100  1
  C  C20  1  0.21798000  0.90726900  0.17166500  1
  C  C21  1  0.72342100  0.09695800  0.74898000  1
  C  C22  1  0.27992700  0.90351600  0.24834100  1
  C  C23  1  0.75850600  0.03784600  0.68477000  1
  C  C24  1  0.24485300  0.96261700  0.31256100  1
  C  C25  1  0.86949600  0.98986800  0.69191500  1
  C  C26  1  0.13384500  0.01056700  0.30544700  1
  C  C27  1  0.94278800  0.00207700  0.76512800  1
  C  C28  1  0.06055000  0.99840100  0.23222900  1
  C  C29  1  0.89048600  0.03687700  0.83718000  1
  C  C30  1  0.11286100  0.96364400  0.16016300  1
  C  C31  1  0.67177200  0.02332800  0.61383100  1
  C  C32  1  0.33160400  0.97713900  0.38348800  1
  C  C33  1  0.33703300  0.96864800  0.62358200  1
  C  C34  1  0.66626200  0.03180600  0.37378200  1
  C  C35  1  0.45403400  0.46856800  0.48217100  1
  C  C36  1  0.53262600  0.52935500  0.52874100  1
  C  C37  1  0.53487800  0.64663200  0.51996600  1
  C  C38  1  0.46185900  0.35277300  0.48273900  1
  C  C39  1  0.10383000  0.08368800  0.37005300  1
  C  C40  1  0.89948500  0.91665800  0.62736700  1
  C  C41  1  0.62367100  0.48237200  0.58895100  1
  C  C42  1  0.36032800  0.51546500  0.42423000  1
  N  N1  1  0.46835600  0.25968900  0.48370600  1
  N  N2  1  0.53472500  0.74072100  0.51383900  1
  N  N3  1  0.08206900  0.19476800  0.34426800  1
  N  N4  1  0.92123100  0.80559400  0.65323200  1
  N  N5  1  0.60906300  0.37193200  0.62682500  1
  N  N6  1  0.31049200  0.61587000  0.43673800  1
  O  O1  1  0.61532000  0.10822000  0.58218500  1
  O  O2  1  0.38800900  0.89223000  0.41516500  1
  O  O3  1  0.64586200  0.92519600  0.59005900  1
  O  O4  1  0.35746500  0.07526500  0.40729300  1
  O  O5  1  0.39145900  0.88502800  0.60124400  1
  O  O6  1  0.61186000  0.11553800  0.39609900  1
  O  O7  1  0.36033900  0.06830700  0.58629800  1
  O  O8  1  0.64300100  0.93205200  0.41105700  1
  O  O9  1  0.10333900  0.05100100  0.44650800  1
  O  O10  1  0.89997700  0.94925800  0.55089500  1
  O  O11  1  0.70867000  0.54259400  0.61231200  1
  O  O12  1  0.31705200  0.46204700  0.36833300  1
