# generated using pymatgen
data_Zn2H21C28Br(NO4)2
_symmetry_space_group_name_H-M   'P 1'
_cell_length_a   6.62577900
_cell_length_b   9.01566000
_cell_length_c   16.04731100
_cell_angle_alpha   96.12928800
_cell_angle_beta   81.48889100
_cell_angle_gamma   89.93023000
_symmetry_Int_Tables_number   1
_chemical_formula_structural   Zn2H21C28Br(NO4)2
_chemical_formula_sum   'Zn2 H21 C28 Br1 N2 O8'
_cell_volume   942.48092905
_cell_formula_units_Z   1
loop_
 _symmetry_equiv_pos_site_id
 _symmetry_equiv_pos_as_xyz
  1  'x, y, z'
loop_
 _atom_site_type_symbol
 _atom_site_label
 _atom_site_symmetry_multiplicity
 _atom_site_fract_x
 _atom_site_fract_y
 _atom_site_fract_z
 _atom_site_occupancy
  Zn  Zn1  1  0.00550800  0.16587300  0.50090100  1
  Zn  Zn2  1  0.99562900  0.83463000  0.49846000  1
  H  H1  1  0.03918300  0.99498900  0.76696800  1
  H  H2  1  0.53593200  0.06817700  0.90667300  1
  H  H3  1  0.76539300  0.07898100  0.77433200  1
  H  H4  1  0.46559200  0.93210900  0.09262200  1
  H  H5  1  0.23582300  0.92143200  0.22486100  1
  H  H6  1  0.96192000  0.00541600  0.23255900  1
  H  H7  1  0.33212000  0.11918200  0.00599600  1
  H  H8  1  0.10326200  0.09491900  0.13612000  1
  H  H9  1  0.66953400  0.88080300  0.99342500  1
  H  H10  1  0.89833300  0.90507100  0.86333700  1
  H  H11  1  0.32212200  0.41148800  0.48280900  1
  H  H12  1  0.21365200  0.38295700  0.59047900  1
  H  H13  1  0.28385800  0.65904200  0.53930700  1
  H  H14  1  0.12625700  0.33251300  0.37024900  1
  H  H15  1  0.22533500  0.57717400  0.39589700  1
  H  H16  1  0.69449300  0.35866500  0.54175300  1
  H  H17  1  0.84890800  0.43118100  0.62065900  1
  H  H18  1  0.72848700  0.65559300  0.58779100  1
  H  H19  1  0.69863900  0.58049800  0.48087200  1
  H  H20  1  0.85681700  0.37997000  0.39726600  1
  H  H21  1  0.97554100  0.61281500  0.36803100  1
  C  C1  1  0.32751800  0.02337400  0.69465800  1
  C  C2  1  0.19851800  0.01331000  0.76951900  1
  C  C3  1  0.27062700  0.02839600  0.84628500  1
  C  C4  1  0.47465200  0.05640800  0.84769700  1
  C  C5  1  0.60507900  0.06180600  0.77280400  1
  C  C6  1  0.53406600  0.04146800  0.69589600  1
  C  C7  1  0.18782300  0.06529500  0.00254900  1
  C  C8  1  0.05763300  0.05117100  0.07662600  1
  C  C9  1  0.86980900  0.98570100  0.07428800  1
  C  C10  1  0.81378400  0.93473300  0.99689300  1
  C  C11  1  0.94396300  0.94886100  0.92282100  1
  C  C12  1  0.13173900  0.01439300  0.92515400  1
  C  C13  1  0.52674500  0.94390200  0.15162400  1
  C  C14  1  0.39611100  0.93859700  0.22646300  1
  C  C15  1  0.46687900  0.95900100  0.30341400  1
  C  C16  1  0.67337600  0.97711400  0.30477500  1
  C  C17  1  0.80261400  0.98706600  0.22995500  1
  C  C18  1  0.73075000  0.97185300  0.15313200  1
  C  C19  1  0.68389000  0.02598500  0.61877100  1
  C  C20  1  0.23644200  0.01533300  0.61694900  1
  C  C21  1  0.31685800  0.97448400  0.38045700  1
  C  C22  1  0.76413400  0.98518400  0.38257500  1
  C  C23  1  0.18590500  0.43047000  0.53214600  1
  C  C24  1  0.14053400  0.59639000  0.55171400  1
  C  C25  1  0.01031600  0.40046500  0.41540900  1
  C  C26  1  0.82919400  0.42662300  0.55300400  1
  C  C27  1  0.05869000  0.56436700  0.41410400  1
  C  C28  1  0.79875200  0.58320600  0.53059700  1
  Br  Br1  1  0.02234500  0.63963800  0.66940600  1
  N  N1  1  0.01141100  0.36052900  0.50061300  1
  N  N2  1  0.99620800  0.63996200  0.49839400  1
  O  O1  1  0.75946400  0.89202400  0.59088200  1
  O  O2  1  0.76089300  0.14764200  0.58994100  1
  O  O3  1  0.17983700  0.14080500  0.59149100  1
  O  O4  1  0.17977100  0.88398200  0.58643300  1
  O  O5  1  0.24177700  0.10859200  0.40850400  1
  O  O6  1  0.24035200  0.85274700  0.40945300  1
  O  O7  1  0.82147900  0.85979300  0.40782100  1
  O  O8  1  0.82149400  0.11640000  0.41289000  1
