# generated using pymatgen
data_ZnH11C18N3O4
_symmetry_space_group_name_H-M   'P 1'
_cell_length_a   14.09334400
_cell_length_b   16.59190800
_cell_length_c   17.80711400
_cell_angle_alpha   90.00048900
_cell_angle_beta   89.99209900
_cell_angle_gamma   85.31948100
_symmetry_Int_Tables_number   1
_chemical_formula_structural   ZnH11C18N3O4
_chemical_formula_sum   'Zn2 H22 C36 N6 O8'
_cell_volume   4150.04884296
_cell_formula_units_Z   2
loop_
 _symmetry_equiv_pos_site_id
 _symmetry_equiv_pos_as_xyz
  1  'x, y, z'
loop_
 _atom_site_type_symbol
 _atom_site_label
 _atom_site_symmetry_multiplicity
 _atom_site_fract_x
 _atom_site_fract_y
 _atom_site_fract_z
 _atom_site_occupancy
  Zn  Zn1  1  0.50063500  0.40834000  0.49836000  1
  Zn  Zn2  1  0.49936500  0.59166000  0.50164000  1
  H  H1  1  0.01441700  0.41447800  0.53221600  1
  H  H2  1  0.98558200  0.58552200  0.46778400  1
  H  H3  1  0.46311000  0.38062800  0.12491400  1
  H  H4  1  0.53688900  0.61937200  0.87508600  1
  H  H5  1  0.46578100  0.38171500  0.26148600  1
  H  H6  1  0.53421800  0.61828500  0.73851400  1
  H  H7  1  0.54614800  0.62052300  0.11902500  1
  H  H8  1  0.45385100  0.37947700  0.88097500  1
  H  H9  1  0.59817700  0.12617800  0.58923500  1
  H  H10  1  0.40182300  0.87382300  0.41076500  1
  H  H11  1  0.59772600  0.27425400  0.58723900  1
  H  H12  1  0.40227300  0.72574600  0.41276100  1
  H  H13  1  0.40475400  0.28814300  0.40720200  1
  H  H14  1  0.59524500  0.71185700  0.59279800  1
  H  H15  1  0.56906800  0.68544500  0.22644500  1
  H  H16  1  0.62693900  0.62503800  0.29041500  1
  H  H17  1  0.43093100  0.31455500  0.77355500  1
  H  H18  1  0.37306100  0.37496200  0.70958500  1
  H  H19  1  0.35528300  0.17285300  0.35860300  1
  H  H20  1  0.33509600  0.10313000  0.42422400  1
  H  H21  1  0.64471700  0.82714800  0.64139700  1
  H  H22  1  0.66490400  0.89687000  0.57577600  1
  C  C1  1  0.49375100  0.49790400  0.64720700  1
  C  C2  1  0.50624900  0.50209600  0.35279300  1
  C  C3  1  0.68600000  0.48791100  0.50457500  1
  C  C4  1  0.31400000  0.51208900  0.49542500  1
  C  C5  1  0.21189700  0.51867900  0.49295400  1
  C  C6  1  0.78810200  0.48132100  0.50704600  1
  C  C7  1  0.02383500  0.53064700  0.48845400  1
  C  C8  1  0.97616500  0.46935300  0.51154600  1
  C  C9  1  0.87384500  0.47584100  0.50910500  1
  C  C10  1  0.12615500  0.52415900  0.49089500  1
  C  C11  1  0.48226000  0.43397100  0.15426700  1
  C  C12  1  0.51774000  0.56602900  0.84573300  1
  C  C13  1  0.48440500  0.43485900  0.23159900  1
  C  C14  1  0.51559500  0.56514100  0.76840100  1
  C  C15  1  0.50791500  0.50305100  0.27001400  1
  C  C16  1  0.49208400  0.49694900  0.72998500  1
  C  C17  1  0.53112300  0.57047500  0.22931300  1
  C  C18  1  0.46887600  0.42952500  0.77068700  1
  C  C19  1  0.52834000  0.56891400  0.15164600  1
  C  C20  1  0.47165900  0.43108600  0.84835400  1
  C  C21  1  0.50376300  0.50104200  0.11435800  1
  C  C22  1  0.49623600  0.49895800  0.88564200  1
  C  C23  1  0.50111300  0.50026000  0.03381800  1
  C  C24  1  0.49888700  0.49974000  0.96618200  1
  C  C25  1  0.55517200  0.16108400  0.54862800  1
  C  C26  1  0.44482800  0.83891700  0.45137200  1
  C  C27  1  0.55493100  0.24411900  0.54732900  1
  C  C28  1  0.44506900  0.75588100  0.45267100  1
  C  C29  1  0.44731800  0.25144800  0.44681000  1
  C  C30  1  0.55268200  0.74855200  0.55319000  1
  C  C31  1  0.44570500  0.16819900  0.44674600  1
  C  C32  1  0.55429400  0.83180100  0.55325400  1
  C  C33  1  0.50014500  0.12279800  0.49818800  1
  C  C34  1  0.49985400  0.87720200  0.50181200  1
  C  C35  1  0.50003200  0.03630400  0.49940000  1
  C  C36  1  0.49996700  0.96369600  0.50060000  1
  N  N1  1  0.50137900  0.28781200  0.49688200  1
  N  N2  1  0.49862000  0.71218800  0.50311800  1
  N  N3  1  0.56038500  0.64060400  0.26634300  1
  N  N4  1  0.43961500  0.35939600  0.73365700  1
  N  N5  1  0.38839100  0.12917900  0.39415600  1
  N  N6  1  0.61160900  0.87082100  0.60584400  1
  O  O1  1  0.49607000  0.42919900  0.61044300  1
  O  O2  1  0.50392900  0.57080100  0.38955700  1
  O  O3  1  0.49506200  0.56806200  0.61318400  1
  O  O4  1  0.50493800  0.43193800  0.38681600  1
  O  O5  1  0.64228000  0.42119700  0.50205800  1
  O  O6  1  0.35771900  0.57880300  0.49794200  1
  O  O7  1  0.64128500  0.56035000  0.50491200  1
  O  O8  1  0.35871400  0.43965000  0.49508800  1
