# generated using pymatgen
data_ZnH2C12(NO2)2
_symmetry_space_group_name_H-M   'P 1'
_cell_length_a   23.75711300
_cell_length_b   30.93828100
_cell_length_c   19.52194400
_cell_angle_alpha   90.00000000
_cell_angle_beta   127.46854500
_cell_angle_gamma   90.00000000
_symmetry_Int_Tables_number   1
_chemical_formula_structural   ZnH2C12(NO2)2
_chemical_formula_sum   'Zn12 H24 C144 N24 O48'
_cell_volume   11388.39196127
_cell_formula_units_Z   12
loop_
 _symmetry_equiv_pos_site_id
 _symmetry_equiv_pos_as_xyz
  1  'x, y, z'
loop_
 _atom_site_type_symbol
 _atom_site_label
 _atom_site_symmetry_multiplicity
 _atom_site_fract_x
 _atom_site_fract_y
 _atom_site_fract_z
 _atom_site_occupancy
  Zn  Zn1  1  0.71225000  0.71397400  0.93419700  1
  Zn  Zn2  1  0.28774900  0.28602600  0.06580300  1
  Zn  Zn3  1  0.28774900  0.71397400  0.06580300  1
  Zn  Zn4  1  0.71225000  0.28602600  0.93419700  1
  Zn  Zn5  1  0.21225000  0.21397400  0.93419700  1
  Zn  Zn6  1  0.78774900  0.78602600  0.06580300  1
  Zn  Zn7  1  0.78774900  0.21397400  0.06580300  1
  Zn  Zn8  1  0.21225100  0.78602600  0.93419700  1
  Zn  Zn9  1  0.94548600  0.50000000  0.51559600  1
  Zn  Zn10  1  0.05451400  0.50000000  0.48440400  1
  Zn  Zn11  1  0.44548600  0.00000000  0.51559600  1
  Zn  Zn12  1  0.55451400  0.00000000  0.48440400  1
  H  H1  1  0.56180900  0.82097600  0.75371000  1
  H  H2  1  0.43819100  0.17902400  0.24629000  1
  H  H3  1  0.43819100  0.82097800  0.24628600  1
  H  H4  1  0.56180900  0.17902200  0.75371500  1
  H  H5  1  0.06180900  0.32097700  0.75371200  1
  H  H6  1  0.93819100  0.67902300  0.24628800  1
  H  H7  1  0.93819100  0.32097600  0.24628800  1
  H  H8  1  0.06180900  0.67902300  0.75371200  1
  H  H9  1  0.80516000  0.82542800  0.88346700  1
  H  H10  1  0.19484000  0.17457200  0.11653300  1
  H  H11  1  0.19484300  0.82542400  0.11653900  1
  H  H12  1  0.80515700  0.17457500  0.88346100  1
  H  H13  1  0.30515900  0.32542700  0.88346500  1
  H  H14  1  0.69484100  0.67457300  0.11653500  1
  H  H15  1  0.69484200  0.32542600  0.11653600  1
  H  H16  1  0.30515800  0.67457400  0.88346400  1
  H  H17  1  0.70982100  0.95120700  0.69192700  1
  H  H18  1  0.29017900  0.04879300  0.30807300  1
  H  H19  1  0.29017800  0.95120200  0.30808200  1
  H  H20  1  0.70982100  0.04879800  0.69191800  1
  H  H21  1  0.20982100  0.45120500  0.69192300  1
  H  H22  1  0.79017900  0.54879500  0.30807700  1
  H  H23  1  0.79017900  0.45120500  0.30807900  1
  H  H24  1  0.20982100  0.54879500  0.69192100  1
  C  C1  1  0.69678600  0.80541900  0.87342400  1
  C  C2  1  0.30321400  0.19458100  0.12657700  1
  C  C3  1  0.30321500  0.80541900  0.12657700  1
  C  C4  1  0.69678500  0.19458100  0.87342400  1
  C  C5  1  0.19678600  0.30541900  0.87342400  1
  C  C6  1  0.80321400  0.69458100  0.12657600  1
  C  C7  1  0.80321400  0.30541900  0.12657700  1
  C  C8  1  0.19678500  0.69458100  0.87342300  1
  C  C9  1  0.63877700  0.75877600  0.99643600  1
  C  C10  1  0.36122300  0.24122400  0.00356400  1
  C  C11  1  0.36122300  0.75877600  0.00356400  1
  C  C12  1  0.63877700  0.24122400  0.99643600  1
  C  C13  1  0.13877700  0.25877600  0.99643600  1
  C  C14  1  0.86122300  0.74122400  0.00356400  1
  C  C15  1  0.86122300  0.25877600  0.00356400  1
  C  C16  1  0.13877700  0.74122400  0.99643600  1
  C  C17  1  0.57942800  0.76244700  0.99810400  1
  C  C18  1  0.42057200  0.23755300  0.00189700  1
  C  C19  1  0.42057200  0.76244700  0.00189600  1
  C  C20  1  0.57942800  0.23755300  0.99810400  1
  C  C21  1  0.07942800  0.26244700  0.99810400  1
  C  C22  1  0.92057200  0.73755300  0.00189600  1
  C  C23  1  0.92057200  0.26244700  0.00189600  1
  C  C24  1  0.07942800  0.73755300  0.99810400  1
  C  C25  1  0.52937000  0.76394200  0.99932600  1
  C  C26  1  0.47063000  0.23605800  0.00067400  1
  C  C27  1  0.47063000  0.76394200  0.00067400  1
  C  C28  1  0.52937000  0.23605800  0.99932700  1
  C  C29  1  0.02937000  0.26394200  0.99932600  1
  C  C30  1  0.97063000  0.73605800  0.00067400  1
  C  C31  1  0.97063000  0.26394200  0.00067400  1
  C  C32  1  0.02937000  0.73605800  0.99932600  1
  C  C33  1  0.78147000  0.85285800  0.84058900  1
  C  C34  1  0.21853000  0.14714200  0.15941100  1
  C  C35  1  0.21853200  0.85285400  0.15941800  1
  C  C36  1  0.78146800  0.14714600  0.84058200  1
  C  C37  1  0.28146900  0.35285700  0.84058600  1
  C  C38  1  0.71853100  0.64714300  0.15941400  1
  C  C39  1  0.71853100  0.35285600  0.15941500  1
  C  C40  1  0.28146900  0.64714400  0.84058500  1
  C  C41  1  0.82370400  0.87606500  0.82815900  1
  C  C42  1  0.17629500  0.12393500  0.17184200  1
  C  C43  1  0.17629800  0.87605900  0.17185300  1
  C  C44  1  0.82370200  0.12394100  0.82814700  1
  C  C45  1  0.32370300  0.37606300  0.82815400  1
  C  C46  1  0.67629700  0.62393700  0.17184600  1
  C  C47  1  0.67629700  0.37606200  0.17184800  1
  C  C48  1  0.32370300  0.62393800  0.82815200  1
  C  C49  1  0.79659400  0.91114400  0.77436600  1
  C  C50  1  0.20340500  0.08885600  0.22563400  1
  C  C51  1  0.20340800  0.91113700  0.22564600  1
  C  C52  1  0.79659200  0.08886300  0.77435400  1
  C  C53  1  0.29659300  0.41114100  0.77436100  1
  C  C54  1  0.70340600  0.58885900  0.22563900  1
  C  C55  1  0.70340700  0.41114000  0.22564100  1
  C  C56  1  0.29659300  0.58886000  0.77435900  1
  C  C57  1  0.72645100  0.92245600  0.73043300  1
  C  C58  1  0.27354900  0.07754400  0.26956700  1
  C  C59  1  0.27355000  0.92245100  0.26957600  1
  C  C60  1  0.72645000  0.07754900  0.73042400  1
  C  C61  1  0.22645000  0.42245400  0.73042900  1
  C  C62  1  0.77354900  0.57754600  0.26957100  1
  C  C63  1  0.77355000  0.42245300  0.26957200  1
  C  C64  1  0.22645000  0.57754700  0.73042800  1
  C  C65  1  0.68057800  0.89658800  0.73468900  1
  C  C66  1  0.31942200  0.10341200  0.26531100  1
  C  C67  1  0.31942300  0.89658500  0.26531500  1
  C  C68  1  0.68057700  0.10341500  0.73468500  1
  C  C69  1  0.18057700  0.39658600  0.73468800  1
  C  C70  1  0.81942300  0.60341400  0.26531200  1
  C  C71  1  0.81942300  0.39658600  0.26531300  1
  C  C72  1  0.18057700  0.60341400  0.73468700  1
  C  C73  1  0.70992200  0.86262000  0.79402700  1
  C  C74  1  0.29007800  0.13738000  0.20597400  1
  C  C75  1  0.29007900  0.86261800  0.20597700  1
  C  C76  1  0.70992100  0.13738200  0.79402300  1
  C  C77  1  0.20992100  0.36261900  0.79402500  1
  C  C78  1  0.79007900  0.63738100  0.20597500  1
  C  C79  1  0.79007900  0.36261900  0.20597600  1
  C  C80  1  0.20992100  0.63738100  0.79402400  1
  C  C81  1  0.66731800  0.83733100  0.80419100  1
  C  C82  1  0.33268200  0.16266900  0.19580900  1
  C  C83  1  0.33268300  0.83733100  0.19580900  1
  C  C84  1  0.66731700  0.16266900  0.80419100  1
  C  C85  1  0.16731800  0.33733100  0.80419200  1
  C  C86  1  0.83268200  0.66266900  0.19580900  1
  C  C87  1  0.83268200  0.33733100  0.19580900  1
  C  C88  1  0.16731800  0.66266900  0.80419100  1
  C  C89  1  0.59526200  0.84215700  0.74855700  1
  C  C90  1  0.40473800  0.15784300  0.25144300  1
  C  C91  1  0.40473900  0.84215800  0.25144000  1
  C  C92  1  0.59526100  0.15784200  0.74856000  1
  C  C93  1  0.09526200  0.34215800  0.74855900  1
  C  C94  1  0.90473800  0.65784200  0.25144100  1
  C  C95  1  0.90473800  0.34215800  0.25144200  1
  C  C96  1  0.09526100  0.65784200  0.74855800  1
  C  C97  1  0.56483500  0.87403600  0.68705000  1
  C  C98  1  0.43516500  0.12596400  0.31295100  1
  C  C99  1  0.43516600  0.87403600  0.31294900  1
  C  C100  1  0.56483400  0.12596400  0.68705100  1
  C  C101  1  0.06483500  0.37403600  0.68705100  1
  C  C102  1  0.93516500  0.62596400  0.31294900  1
  C  C103  1  0.93516500  0.37403600  0.31295000  1
  C  C104  1  0.06483400  0.62596400  0.68705000  1
  C  C105  1  0.60666700  0.90337000  0.68159900  1
  C  C106  1  0.39333300  0.09663000  0.31840100  1
  C  C107  1  0.39333400  0.90336900  0.31840200  1
  C  C108  1  0.60666600  0.09663100  0.68159800  1
  C  C109  1  0.10666600  0.40336900  0.68159900  1
  C  C110  1  0.89333400  0.59663000  0.31840100  1
  C  C111  1  0.89333400  0.40336900  0.31840200  1
  C  C112  1  0.10666600  0.59663100  0.68159800  1
  C  C113  1  0.07012200  0.56047400  0.61865000  1
  C  C114  1  0.92987800  0.43952600  0.38135000  1
  C  C115  1  0.92987800  0.56047400  0.38134900  1
  C  C116  1  0.07012200  0.43952600  0.61865100  1
  C  C117  1  0.57012200  0.06047400  0.61865000  1
  C  C118  1  0.42987800  0.93952600  0.38135000  1
  C  C119  1  0.42987800  0.06047400  0.38134900  1
  C  C120  1  0.57012200  0.93952600  0.61865100  1
  C  C121  1  0.89554100  0.86285800  0.86924200  1
  C  C122  1  0.10445900  0.13714200  0.13075800  1
  C  C123  1  0.10446300  0.86284900  0.13077300  1
  C  C124  1  0.89553700  0.13715100  0.86922700  1
  C  C125  1  0.39553900  0.36285400  0.86923500  1
  C  C126  1  0.60446100  0.63714600  0.13076500  1
  C  C127  1  0.60446100  0.36285300  0.13076700  1
  C  C128  1  0.39553900  0.63714700  0.86923300  1
  C  C129  1  0.84083600  0.93437400  0.76012500  1
  C  C130  1  0.15916400  0.06562600  0.23987500  1
  C  C131  1  0.15916800  0.93436400  0.23989400  1
  C  C132  1  0.84083200  0.06563600  0.76010600  1
  C  C133  1  0.34083400  0.43437000  0.76011700  1
  C  C134  1  0.65916600  0.56563000  0.23988300  1
  C  C135  1  0.65916600  0.43436900  0.23988500  1
  C  C136  1  0.34083400  0.56563100  0.76011500  1
  C  C137  1  0.48865100  0.87433400  0.62715200  1
  C  C138  1  0.51134900  0.12566600  0.37284800  1
  C  C139  1  0.51135000  0.87433500  0.37284400  1
  C  C140  1  0.48865000  0.12566500  0.62715600  1
  C  C141  1  0.98865100  0.37433500  0.62715400  1
  C  C142  1  0.01134900  0.62566500  0.37284600  1
  C  C143  1  0.01135000  0.37433400  0.37284600  1
  C  C144  1  0.98865000  0.62566600  0.62715400  1
  N  N1  1  0.95332600  0.85209800  0.90175800  1
  N  N2  1  0.04667400  0.14790200  0.09824200  1
  N  N3  1  0.04668000  0.85208800  0.09826100  1
  N  N4  1  0.95332000  0.14791200  0.90174000  1
  N  N5  1  0.45332300  0.35209400  0.90175000  1
  N  N6  1  0.54667700  0.64790600  0.09825100  1
  N  N7  1  0.54667700  0.35209200  0.09825300  1
  N  N8  1  0.45332300  0.64790800  0.90174800  1
  N  N9  1  0.87682300  0.95259500  0.74847000  1
  N  N10  1  0.12317700  0.04740500  0.25153100  1
  N  N11  1  0.12318200  0.95258200  0.25155400  1
  N  N12  1  0.87681800  0.04741800  0.74844600  1
  N  N13  1  0.37682000  0.45258900  0.74845900  1
  N  N14  1  0.62318000  0.54741100  0.25154100  1
  N  N15  1  0.62318000  0.45258800  0.25154400  1
  N  N16  1  0.37682000  0.54741200  0.74845600  1
  N  N17  1  0.42734200  0.87438400  0.57902100  1
  N  N18  1  0.57265800  0.12561600  0.42097900  1
  N  N19  1  0.57265800  0.87438600  0.42097200  1
  N  N20  1  0.42734200  0.12561400  0.57902800  1
  N  N21  1  0.92734200  0.37438500  0.57902500  1
  N  N22  1  0.07265800  0.62561500  0.42097500  1
  N  N23  1  0.07265800  0.37438500  0.42097600  1
  N  N24  1  0.92734200  0.62561500  0.57902500  1
  O  O1  1  0.67812200  0.76482400  0.85246000  1
  O  O2  1  0.32187800  0.23517600  0.14754000  1
  O  O3  1  0.32187800  0.76482400  0.14754000  1
  O  O4  1  0.67812200  0.23517600  0.85246000  1
  O  O5  1  0.17812200  0.26482400  0.85246000  1
  O  O6  1  0.82187800  0.73517600  0.14754000  1
  O  O7  1  0.82187800  0.26482400  0.14754000  1
  O  O8  1  0.17812200  0.73517600  0.85246000  1
  O  O9  1  0.73932600  0.81912500  0.95357100  1
  O  O10  1  0.26067300  0.18087500  0.04642900  1
  O  O11  1  0.26067400  0.81912500  0.04643000  1
  O  O12  1  0.73932600  0.18087500  0.95357100  1
  O  O13  1  0.23932600  0.31912500  0.95357100  1
  O  O14  1  0.76067400  0.68087500  0.04642900  1
  O  O15  1  0.76067400  0.31912500  0.04643000  1
  O  O16  1  0.23932600  0.68087500  0.95357000  1
  O  O17  1  0.63518500  0.72984600  0.94486800  1
  O  O18  1  0.36481400  0.27015400  0.05513200  1
  O  O19  1  0.36481400  0.72984600  0.05513100  1
  O  O20  1  0.63518500  0.27015400  0.94486900  1
  O  O21  1  0.13518500  0.22984600  0.94486900  1
  O  O22  1  0.86481500  0.77015400  0.05513100  1
  O  O23  1  0.86481400  0.22984600  0.05513100  1
  O  O24  1  0.13518600  0.77015400  0.94486900  1
  O  O25  1  0.69463800  0.78316300  0.04866000  1
  O  O26  1  0.30536200  0.21683700  0.95134100  1
  O  O27  1  0.30536200  0.78316300  0.95134000  1
  O  O28  1  0.69463800  0.21683700  0.04866000  1
  O  O29  1  0.19463800  0.28316300  0.04866000  1
  O  O30  1  0.80536200  0.71683700  0.95134000  1
  O  O31  1  0.80536200  0.28316300  0.95134100  1
  O  O32  1  0.19463800  0.71683700  0.04866000  1
  O  O33  1  0.01279300  0.54459100  0.60455800  1
  O  O34  1  0.98720700  0.45540900  0.39544200  1
  O  O35  1  0.98720700  0.54459100  0.39544100  1
  O  O36  1  0.01279300  0.45540900  0.60455900  1
  O  O37  1  0.51279300  0.04459100  0.60455800  1
  O  O38  1  0.48720700  0.95540900  0.39544200  1
  O  O39  1  0.48720600  0.04459000  0.39544100  1
  O  O40  1  0.51279300  0.95541000  0.60455900  1
  O  O41  1  0.09285700  0.54662200  0.57574200  1
  O  O42  1  0.90714300  0.45337800  0.42425800  1
  O  O43  1  0.90714300  0.54662200  0.42425800  1
  O  O44  1  0.09285700  0.45337800  0.57574200  1
  O  O45  1  0.59285600  0.04662200  0.57574200  1
  O  O46  1  0.40714400  0.95337800  0.42425800  1
  O  O47  1  0.40714300  0.04662200  0.42425700  1
  O  O48  1  0.59285700  0.95337800  0.57574300  1
