# generated using pymatgen
data_Fe2H11C34N3O22
_symmetry_space_group_name_H-M   'P 1'
_cell_length_a   13.48452800
_cell_length_b   14.59370600
_cell_length_c   12.99386200
_cell_angle_alpha   86.82053400
_cell_angle_beta   84.78943100
_cell_angle_gamma   113.27750200
_symmetry_Int_Tables_number   1
_chemical_formula_structural   Fe2H11C34N3O22
_chemical_formula_sum   'Fe2 H11 C34 N3 O22'
_cell_volume   2327.51317848
_cell_formula_units_Z   1
loop_
 _symmetry_equiv_pos_site_id
 _symmetry_equiv_pos_as_xyz
  1  'x, y, z'
loop_
 _atom_site_type_symbol
 _atom_site_label
 _atom_site_symmetry_multiplicity
 _atom_site_fract_x
 _atom_site_fract_y
 _atom_site_fract_z
 _atom_site_occupancy
  Fe  Fe1  1  0.52380900  0.02360200  0.21981800  1
  Fe  Fe2  1  0.50604900  0.99993500  0.76516800  1
  H  H1  1  0.18099600  0.96422000  0.21720100  1
  H  H2  1  0.00559400  0.94569800  0.17267400  1
  H  H3  1  0.14175400  0.03666500  0.85413700  1
  H  H4  1  0.97620100  0.95137600  0.82807800  1
  H  H5  1  0.90229900  0.02393500  0.13152900  1
  H  H6  1  0.47422000  0.35935400  0.31789700  1
  H  H7  1  0.50830000  0.63924500  0.67470000  1
  H  H8  1  0.49634200  0.65340200  0.34777600  1
  H  H9  1  0.58388200  0.15701600  0.46351500  1
  H  H10  1  0.44652100  0.87300400  0.52422700  1
  H  H11  1  0.59598200  0.54895200  0.53442000  1
  C  C1  1  0.17225300  0.97746300  0.13653700  1
  C  C2  1  0.07259500  0.96979700  0.11123100  1
  C  C3  1  0.06011700  0.99339700  0.00999600  1
  C  C4  1  0.14837500  0.01771600  0.93375700  1
  C  C5  1  0.24663800  0.01811000  0.95751300  1
  C  C6  1  0.26051400  0.00437700  0.06122900  1
  C  C7  1  0.92576600  0.97024700  0.88484800  1
  C  C8  1  0.83196300  0.97385200  0.85572300  1
  C  C9  1  0.75816600  0.98876100  0.92748200  1
  C  C10  1  0.78177700  0.00215300  0.02968200  1
  C  C11  1  0.88127300  0.00609800  0.05487700  1
  C  C12  1  0.95415100  0.99006600  0.98308000  1
  C  C13  1  0.70518400  0.01126000  0.11387100  1
  C  C14  1  0.48171000  0.83566600  0.33183900  1
  C  C15  1  0.36695200  0.02349500  0.09557700  1
  C  C16  1  0.52043700  0.19888600  0.29147400  1
  C  C17  1  0.48256300  0.81152700  0.70242600  1
  C  C18  1  0.65417200  0.98151200  0.89450000  1
  C  C19  1  0.54446200  0.18859500  0.65755200  1
  C  C20  1  0.32948300  0.02424300  0.87156700  1
  C  C21  1  0.53493600  0.25712800  0.38109200  1
  C  C22  1  0.49792100  0.33220300  0.38659100  1
  C  C23  1  0.49050900  0.37260700  0.47928500  1
  C  C24  1  0.51441000  0.33309400  0.56942100  1
  C  C25  1  0.54632200  0.25318900  0.56480200  1
  C  C26  1  0.56180600  0.22023000  0.46909900  1
  C  C27  1  0.45271400  0.45450400  0.48109800  1
  C  C28  1  0.51907700  0.54281900  0.50991100  1
  C  C29  1  0.49318800  0.67361800  0.60537000  1
  C  C30  1  0.47090200  0.75774400  0.60983400  1
  C  C31  1  0.45749500  0.80385300  0.52026000  1
  C  C32  1  0.47059200  0.76955400  0.42529500  1
  C  C33  1  0.48551300  0.68126300  0.42147300  1
  C  C34  1  0.49466900  0.63221000  0.51240800  1
  N  N1  1  0.34535000  0.43576000  0.45526400  1
  N  N2  1  0.80920900  0.95425600  0.75223100  1
  N  N3  1  0.49847800  0.36975500  0.66645400  1
  O  O1  1  0.62266400  0.03284300  0.09366400  1
  O  O2  1  0.48034100  0.80465300  0.23889100  1
  O  O3  1  0.71853100  0.99540200  0.21103300  1
  O  O4  1  0.50314000  0.93010400  0.34400000  1
  O  O5  1  0.37241200  0.97281200  0.17986800  1
  O  O6  1  0.45366800  0.10096500  0.05255000  1
  O  O7  1  0.59281400  0.16254500  0.26333500  1
  O  O8  1  0.42176300  0.15648100  0.26595000  1
  O  O9  1  0.42421300  0.86467000  0.71768300  1
  O  O10  1  0.57241600  0.83323400  0.74490100  1
  O  O11  1  0.65450600  0.03432900  0.80907900  1
  O  O12  1  0.56223900  0.91298100  0.94143300  1
  O  O13  1  0.31628600  0.04384100  0.77522800  1
  O  O14  1  0.54023300  0.09891300  0.64261600  1
  O  O15  1  0.40853300  0.99683400  0.88998400  1
  O  O16  1  0.53067900  0.21173400  0.75234200  1
  O  O17  1  0.28938000  0.35102500  0.42040500  1
  O  O18  1  0.29455600  0.49027500  0.48725500  1
  O  O19  1  0.82084000  0.02868500  0.68553800  1
  O  O20  1  0.81489600  0.87439600  0.71745800  1
  O  O21  1  0.40488700  0.37121100  0.69833800  1
  O  O22  1  0.58088100  0.41213000  0.71744600  1
