# generated using pymatgen
data_CuH15C17N5O4
_symmetry_space_group_name_H-M   'P 1'
_cell_length_a   15.06228700
_cell_length_b   13.73462000
_cell_length_c   10.86613600
_cell_angle_alpha   90.00000000
_cell_angle_beta   89.99957900
_cell_angle_gamma   90.00000000
_symmetry_Int_Tables_number   1
_chemical_formula_structural   CuH15C17N5O4
_chemical_formula_sum   'Cu2 H30 C34 N10 O8'
_cell_volume   2247.92958432
_cell_formula_units_Z   2
loop_
 _symmetry_equiv_pos_site_id
 _symmetry_equiv_pos_as_xyz
  1  'x, y, z'
loop_
 _atom_site_type_symbol
 _atom_site_label
 _atom_site_symmetry_multiplicity
 _atom_site_fract_x
 _atom_site_fract_y
 _atom_site_fract_z
 _atom_site_occupancy
  Cu  Cu1  1  0.50020600  0.59586800  0.49972900  1
  Cu  Cu2  1  0.50023100  0.40294000  0.49994500  1
  H  H1  1  0.50151700  0.34404600  0.11079300  1
  H  H2  1  0.49734400  0.34499100  0.88897400  1
  H  H3  1  0.44389600  0.72253500  0.87982100  1
  H  H4  1  0.55568600  0.72314200  0.11965700  1
  H  H5  1  0.05851500  0.64064900  0.57838900  1
  H  H6  1  0.94073900  0.64245500  0.42446200  1
  H  H7  1  0.21916000  0.64188100  0.58351100  1
  H  H8  1  0.77967000  0.64121200  0.41714500  1
  H  H9  1  0.22187100  0.35332300  0.43257900  1
  H  H10  1  0.77728400  0.35323200  0.56444900  1
  H  H11  1  0.06178000  0.35330800  0.42767000  1
  H  H12  1  0.93827700  0.35294300  0.56864300  1
  H  H13  1  0.36148900  0.93122600  0.46391900  1
  H  H14  1  0.63835700  0.92937500  0.53765300  1
  H  H15  1  0.33369900  0.77387300  0.33663600  1
  H  H16  1  0.29676900  0.76561400  0.48145000  1
  H  H17  1  0.66225100  0.77168500  0.66454000  1
  H  H18  1  0.70423900  0.76806300  0.52092300  1
  H  H19  1  0.63700100  0.68795200  0.92974800  1
  H  H20  1  0.59334600  0.80049800  0.90803000  1
  H  H21  1  0.36165500  0.69129700  0.07067400  1
  H  H22  1  0.40914800  0.80143800  0.09003200  1
  H  H23  1  0.52536300  0.00675700  0.73444800  1
  H  H24  1  0.63277400  0.03054100  0.68988700  1
  H  H25  1  0.47300600  0.00488700  0.26863000  1
  H  H26  1  0.36456900  0.03516000  0.30805200  1
  H  H27  1  0.56834400  0.23742400  0.76806200  1
  H  H28  1  0.65715000  0.23451200  0.67504500  1
  H  H29  1  0.43138500  0.23792200  0.23344000  1
  H  H30  1  0.34097800  0.23669000  0.32706400  1
  C  C1  1  0.33080500  0.49883700  0.50563200  1
  C  C2  1  0.66957600  0.49903400  0.49388200  1
  C  C3  1  0.49751500  0.49993100  0.26497700  1
  C  C4  1  0.50290400  0.49991300  0.73466600  1
  C  C5  1  0.49752500  0.58399400  0.06128900  1
  C  C6  1  0.50193700  0.58403200  0.93854200  1
  C  C7  1  0.49786300  0.49982700  0.12984400  1
  C  C8  1  0.50208100  0.50006400  0.86993100  1
  C  C9  1  0.50019200  0.41323200  0.06397100  1
  C  C10  1  0.49941700  0.41371400  0.93588800  1
  C  C11  1  0.50241300  0.69176500  0.92798300  1
  C  C12  1  0.49745800  0.69175300  0.07134200  1
  C  C13  1  0.09430300  0.57790600  0.54451200  1
  C  C14  1  0.90553700  0.57886800  0.45679900  1
  C  C15  1  0.18586000  0.57823400  0.54771500  1
  C  C16  1  0.81398600  0.57853500  0.45304300  1
  C  C17  1  0.23315700  0.49812200  0.50709100  1
  C  C18  1  0.76694100  0.49834200  0.49320400  1
  C  C19  1  0.18734100  0.41705200  0.46570700  1
  C  C20  1  0.81258600  0.41706900  0.53316800  1
  C  C21  1  0.09579500  0.41663600  0.46346300  1
  C  C22  1  0.90405900  0.41669300  0.53500900  1
  C  C23  1  0.04866500  0.49743200  0.50205700  1
  C  C24  1  0.95118400  0.49785500  0.49824100  1
  C  C25  1  0.53832900  0.10641100  0.59589300  1
  C  C26  1  0.46136800  0.10655600  0.40452100  1
  C  C27  1  0.54197700  0.20713200  0.59023600  1
  C  C28  1  0.45750900  0.20716900  0.41021600  1
  C  C29  1  0.49968100  0.05378800  0.50023400  1
  C  C30  1  0.42376600  0.89359100  0.47637200  1
  C  C31  1  0.57591600  0.89320400  0.52216700  1
  C  C32  1  0.42626300  0.79322200  0.46685300  1
  C  C33  1  0.57385100  0.79312900  0.53052300  1
  C  C34  1  0.49990200  0.94562100  0.49942400  1
  N  N1  1  0.50016200  0.25692000  0.49981100  1
  N  N2  1  0.49982600  0.74206400  0.50040500  1
  N  N3  1  0.34866900  0.74554500  0.42326900  1
  N  N4  1  0.65106300  0.74569300  0.57569500  1
  N  N5  1  0.58758700  0.72707000  0.88392200  1
  N  N6  1  0.41287800  0.72833100  0.11535900  1
  N  N7  1  0.57010600  0.06000100  0.70519200  1
  N  N8  1  0.42941200  0.06003500  0.29551700  1
  N  N9  1  0.59154500  0.25799400  0.68154500  1
  N  N10  1  0.40744200  0.25808700  0.31970900  1
  O  O1  1  0.37303800  0.58054000  0.52953900  1
  O  O2  1  0.62745500  0.58098500  0.46983200  1
  O  O3  1  0.37214000  0.41735400  0.47885200  1
  O  O4  1  0.62827800  0.41756400  0.52078000  1
  O  O5  1  0.47925100  0.58173400  0.32317200  1
  O  O6  1  0.52138900  0.58121500  0.67618700  1
  O  O7  1  0.51546300  0.41779600  0.32235400  1
  O  O8  1  0.48481100  0.41774600  0.67742800  1
