# generated using pymatgen
data_Cu3H36C48(NO2)8
_symmetry_space_group_name_H-M   'P 1'
_cell_length_a   28.80701600
_cell_length_b   28.80700800
_cell_length_c   38.27537900
_cell_angle_alpha   90.00000000
_cell_angle_beta   90.00000000
_cell_angle_gamma   90.00000000
_symmetry_Int_Tables_number   1
_chemical_formula_structural   Cu3H36C48(NO2)8
_chemical_formula_sum   'Cu12 H144 C192 N32 O64'
_cell_volume   31762.59132844
_cell_formula_units_Z   4
loop_
 _symmetry_equiv_pos_site_id
 _symmetry_equiv_pos_as_xyz
  1  'x, y, z'
loop_
 _atom_site_type_symbol
 _atom_site_label
 _atom_site_symmetry_multiplicity
 _atom_site_fract_x
 _atom_site_fract_y
 _atom_site_fract_z
 _atom_site_occupancy
  Cu  Cu1  1  0.54483700  0.00056500  0.00002500  1
  Cu  Cu2  1  0.00056500  0.54483700  0.99996800  1
  Cu  Cu3  1  0.45434000  0.00057800  0.99996800  1
  Cu  Cu4  1  0.00058000  0.45434000  0.00002500  1
  Cu  Cu5  1  0.04474800  0.50048900  0.50002800  1
  Cu  Cu6  1  0.50048800  0.04474800  0.49996500  1
  Cu  Cu7  1  0.95429100  0.50050200  0.49996700  1
  Cu  Cu8  1  0.50050400  0.95429100  0.50002700  1
  Cu  Cu9  1  0.50058700  0.50054800  0.03485900  1
  Cu  Cu10  1  0.50054900  0.50058700  0.96513500  1
  Cu  Cu11  1  0.00051100  0.00047300  0.53485900  1
  Cu  Cu12  1  0.00047400  0.00051100  0.46513600  1
  H  H1  1  0.43915200  0.95844500  0.10838300  1
  H  H2  1  0.04244900  0.43930500  0.10852300  1
  H  H3  1  0.55994900  0.04262900  0.10842200  1
  H  H4  1  0.95828100  0.56011400  0.10828400  1
  H  H5  1  0.56010900  0.95827200  0.89170900  1
  H  H6  1  0.95846300  0.43913900  0.89161000  1
  H  H7  1  0.43931100  0.04245500  0.89147100  1
  H  H8  1  0.04261200  0.55996100  0.89157000  1
  H  H9  1  0.94263500  0.45353800  0.60826800  1
  H  H10  1  0.54722900  0.94280800  0.60841000  1
  H  H11  1  0.05630200  0.54741700  0.60831600  1
  H  H12  1  0.45337200  0.05649300  0.60817200  1
  H  H13  1  0.05648600  0.45336300  0.39182200  1
  H  H14  1  0.45356800  0.94261000  0.39172500  1
  H  H15  1  0.94281600  0.54723800  0.39158400  1
  H  H16  1  0.54738700  0.05632700  0.39167700  1
  H  H17  1  0.37895000  0.98897300  0.15261000  1
  H  H18  1  0.36357100  0.96146100  0.19306000  1
  H  H19  1  0.37552500  0.91491300  0.12132500  1
  H  H20  1  0.32528200  0.91959600  0.14805300  1
  H  H21  1  0.43463800  0.87214000  0.13640900  1
  H  H22  1  0.43172600  0.83381100  0.17318200  1
  H  H23  1  0.48396200  0.90102100  0.18390300  1
  H  H24  1  0.43613900  0.89802200  0.21436900  1
  H  H25  1  0.01162000  0.37908000  0.15258600  1
  H  H26  1  0.03882800  0.36365700  0.19314200  1
  H  H27  1  0.08591800  0.37569000  0.12161600  1
  H  H28  1  0.08102800  0.32541600  0.14828800  1
  H  H29  1  0.12857900  0.43478300  0.13692500  1
  H  H30  1  0.16662800  0.43182300  0.17386100  1
  H  H31  1  0.09934300  0.48405000  0.18433100  1
  H  H32  1  0.10210200  0.43618500  0.21477200  1
  H  H33  1  0.62035400  0.01174700  0.15230800  1
  H  H34  1  0.63594200  0.03889200  0.19285200  1
  H  H35  1  0.62361100  0.08609500  0.12139600  1
  H  H36  1  0.67399700  0.08116400  0.14794600  1
  H  H37  1  0.56458100  0.12872900  0.13688300  1
  H  H38  1  0.56769300  0.16671900  0.17384600  1
  H  H39  1  0.51551100  0.09941400  0.18437700  1
  H  H40  1  0.56350200  0.10212600  0.21470800  1
  H  H41  1  0.98888800  0.62048700  0.15233400  1
  H  H42  1  0.96144500  0.63604100  0.19277200  1
  H  H43  1  0.91477800  0.62380600  0.12110800  1
  H  H44  1  0.91952000  0.67415700  0.14771300  1
  H  H45  1  0.87201100  0.56476900  0.13636900  1
  H  H46  1  0.83374200  0.56784400  0.17317000  1
  H  H47  1  0.90095400  0.51563100  0.18395200  1
  H  H48  1  0.89801900  0.56358100  0.21430800  1
  H  H49  1  0.62048600  0.98886900  0.84766000  1
  H  H50  1  0.63603600  0.96142400  0.80722200  1
  H  H51  1  0.62379300  0.91475800  0.87888600  1
  H  H52  1  0.67414600  0.91949400  0.85228100  1
  H  H53  1  0.56475100  0.87200000  0.86362400  1
  H  H54  1  0.56782100  0.83373100  0.82682200  1
  H  H55  1  0.51561700  0.90095100  0.81604100  1
  H  H56  1  0.56356700  0.89800900  0.78568500  1
  H  H57  1  0.98901100  0.37894700  0.84738300  1
  H  H58  1  0.96150400  0.36355900  0.80693300  1
  H  H59  1  0.91495200  0.37549700  0.87866800  1
  H  H60  1  0.91965100  0.32525600  0.85194000  1
  H  H61  1  0.87216100  0.43459700  0.86358400  1
  H  H62  1  0.83383200  0.43167400  0.82681100  1
  H  H63  1  0.90102500  0.48393100  0.81609000  1
  H  H64  1  0.89804100  0.43610700  0.78562400  1
  H  H65  1  0.37908200  0.01163600  0.84740800  1
  H  H66  1  0.36366200  0.03884600  0.80685200  1
  H  H67  1  0.37570400  0.08593600  0.87837800  1
  H  H68  1  0.32542800  0.08105200  0.85170600  1
  H  H69  1  0.43480200  0.12858800  0.86306800  1
  H  H70  1  0.43184800  0.16663700  0.82613100  1
  H  H71  1  0.48406500  0.09934300  0.81566200  1
  H  H72  1  0.43620000  0.10210900  0.78522100  1
  H  H73  1  0.01170800  0.62035700  0.84768500  1
  H  H74  1  0.03884800  0.63595400  0.80714100  1
  H  H75  1  0.08605500  0.62363800  0.87859700  1
  H  H76  1  0.08110800  0.67402200  0.85204700  1
  H  H77  1  0.12870900  0.56462200  0.86311000  1
  H  H78  1  0.16669800  0.56774500  0.82614700  1
  H  H79  1  0.09940900  0.51554200  0.81561600  1
  H  H80  1  0.10210600  0.56353500  0.78528400  1
  H  H81  1  0.90030100  0.50878600  0.68654200  1
  H  H82  1  0.88724500  0.46198400  0.71640100  1
  H  H83  1  0.85822400  0.46972100  0.63927300  1
  H  H84  1  0.82201500  0.47473600  0.67712100  1
  H  H85  1  0.88485900  0.40268000  0.62210200  1
  H  H86  1  0.87829400  0.35173900  0.64785800  1
  H  H87  1  0.95876200  0.38666900  0.65140200  1
  H  H88  1  0.92993300  0.37717600  0.69236300  1
  H  H89  1  0.49151800  0.90047100  0.68647200  1
  H  H90  1  0.53812900  0.88737900  0.71649000  1
  H  H91  1  0.53085900  0.85841000  0.63932600  1
  H  H92  1  0.52559900  0.82218000  0.67714300  1
  H  H93  1  0.59801300  0.88503300  0.62239700  1
  H  H94  1  0.64879300  0.87843500  0.64832900  1
  H  H95  1  0.61386500  0.95891200  0.65177600  1
  H  H96  1  0.62310300  0.93005800  0.69276000  1
  H  H97  1  0.09898100  0.49162600  0.68616000  1
  H  H98  1  0.11221200  0.53816400  0.71620700  1
  H  H99  1  0.14079300  0.53109700  0.63895100  1
  H  H100  1  0.17721400  0.52576100  0.67665700  1
  H  H101  1  0.11405900  0.59827900  0.62218900  1
  H  H102  1  0.12076600  0.64900000  0.64816900  1
  H  H103  1  0.04032100  0.61402300  0.65179100  1
  H  H104  1  0.06936800  0.62319300  0.69270700  1
  H  H105  1  0.50872300  0.09914300  0.68623200  1
  H  H106  1  0.46199900  0.11236000  0.71611900  1
  H  H107  1  0.46955200  0.14099200  0.63889900  1
  H  H108  1  0.47466000  0.17738800  0.67663700  1
  H  H109  1  0.40247000  0.11428100  0.62189100  1
  H  H110  1  0.35158900  0.12097900  0.64769600  1
  H  H111  1  0.38652700  0.04052600  0.65141300  1
  H  H112  1  0.37711500  0.06955100  0.69230600  1
  H  H113  1  0.09914700  0.50870600  0.31376400  1
  H  H114  1  0.11235600  0.46198000  0.28387600  1
  H  H115  1  0.14098800  0.46952700  0.36109700  1
  H  H116  1  0.17738500  0.47462800  0.32335900  1
  H  H117  1  0.11426400  0.40244900  0.37810300  1
  H  H118  1  0.12095400  0.35156800  0.35229800  1
  H  H119  1  0.04050700  0.38652000  0.34858100  1
  H  H120  1  0.06953100  0.37710300  0.30768700  1
  H  H121  1  0.50884200  0.90031000  0.31344700  1
  H  H122  1  0.46204600  0.88722700  0.28359000  1
  H  H123  1  0.46980500  0.85820800  0.36071700  1
  H  H124  1  0.47484100  0.82200400  0.32286800  1
  H  H125  1  0.40274900  0.88480100  0.37789000  1
  H  H126  1  0.35181000  0.87820500  0.35213500  1
  H  H127  1  0.38669100  0.95869500  0.34859200  1
  H  H128  1  0.37721400  0.92986200  0.30763100  1
  H  H129  1  0.90047000  0.49153400  0.31352300  1
  H  H130  1  0.88738500  0.53814700  0.28350400  1
  H  H131  1  0.85841600  0.53088300  0.36066900  1
  H  H132  1  0.82218400  0.52562900  0.32285200  1
  H  H133  1  0.88505100  0.59803300  0.37759600  1
  H  H134  1  0.87846200  0.64881400  0.35166400  1
  H  H135  1  0.95893300  0.61387100  0.34821700  1
  H  H136  1  0.93008000  0.62311300  0.30723300  1
  H  H137  1  0.49157000  0.09897200  0.31382800  1
  H  H138  1  0.53810200  0.11223100  0.28378300  1
  H  H139  1  0.53101200  0.14081000  0.36103900  1
  H  H140  1  0.52565600  0.17722700  0.32333100  1
  H  H141  1  0.59821000  0.11412000  0.37780400  1
  H  H142  1  0.64892800  0.12085700  0.35182500  1
  H  H143  1  0.61400000  0.04039000  0.34820400  1
  H  H144  1  0.62315500  0.06944100  0.30728800  1
  C  C1  1  0.49957500  0.91272900  0.00005200  1
  C  C2  1  0.08841600  0.49960200  0.00005200  1
  C  C3  1  0.49960200  0.08841500  0.99994200  1
  C  C4  1  0.91273000  0.49957300  0.99994200  1
  C  C5  1  0.99950600  0.41267800  0.50005300  1
  C  C6  1  0.58831500  0.99953500  0.50005100  1
  C  C7  1  0.99953200  0.58831500  0.49994300  1
  C  C8  1  0.41267800  0.99950300  0.49994100  1
  C  C9  1  0.49952600  0.00062200  0.06624000  1
  C  C10  1  0.00047900  0.49965800  0.06624100  1
  C  C11  1  0.49965800  0.00047800  0.93375300  1
  C  C12  1  0.00062300  0.49952600  0.93375300  1
  C  C13  1  0.99945100  0.50054900  0.56620200  1
  C  C14  1  0.50040400  0.99959400  0.56620100  1
  C  C15  1  0.99959500  0.50040400  0.43379300  1
  C  C16  1  0.50054900  0.99945100  0.43379100  1
  C  C17  1  0.46519000  0.97748700  0.12258700  1
  C  C18  1  0.02332500  0.46534400  0.12266400  1
  C  C19  1  0.53396300  0.02348700  0.12260400  1
  C  C20  1  0.97733400  0.53412300  0.12252900  1
  C  C21  1  0.53412100  0.97732800  0.87746500  1
  C  C22  1  0.97749700  0.46518300  0.87740600  1
  C  C23  1  0.46534800  0.02332800  0.87733000  1
  C  C24  1  0.02347700  0.53397000  0.87738900  1
  C  C25  1  0.96766500  0.47388200  0.62249100  1
  C  C26  1  0.52682200  0.96784900  0.62257100  1
  C  C27  1  0.03130600  0.52700300  0.62251800  1
  C  C28  1  0.47371100  0.03149900  0.62243600  1
  C  C29  1  0.03149600  0.47370600  0.37755800  1
  C  C30  1  0.47389800  0.96765200  0.37750200  1
  C  C31  1  0.96785400  0.52682600  0.37742300  1
  C  C32  1  0.52698700  0.03132000  0.37747500  1
  C  C33  1  0.46504900  0.97709100  0.15868700  1
  C  C34  1  0.02346600  0.46517700  0.15876500  1
  C  C35  1  0.53428000  0.02357700  0.15870200  1
  C  C36  1  0.97699200  0.53441500  0.15862500  1
  C  C37  1  0.53441200  0.97698600  0.84136800  1
  C  C38  1  0.97710200  0.46504200  0.84130600  1
  C  C39  1  0.46518100  0.02347000  0.84122900  1
  C  C40  1  0.02356600  0.53428700  0.84129100  1
  C  C41  1  0.96821800  0.47290500  0.65858100  1
  C  C42  1  0.52759300  0.96839400  0.65866400  1
  C  C43  1  0.03090100  0.52774600  0.65860900  1
  C  C44  1  0.47276500  0.03108800  0.65852400  1
  C  C45  1  0.03108400  0.47276000  0.34147000  1
  C  C46  1  0.47292100  0.96820400  0.34141200  1
  C  C47  1  0.96839900  0.52759800  0.34133000  1
  C  C48  1  0.52772900  0.03091600  0.34138400  1
  C  C49  1  0.49971800  0.00024500  0.17691500  1
  C  C50  1  0.00018000  0.49983000  0.17691500  1
  C  C51  1  0.49983000  0.00017900  0.82307800  1
  C  C52  1  0.00024400  0.49971800  0.82307800  1
  C  C53  1  0.99960100  0.50026300  0.67656900  1
  C  C54  1  0.50013600  0.99977500  0.67656800  1
  C  C55  1  0.99977600  0.50013500  0.32342500  1
  C  C56  1  0.50026200  0.99960100  0.32342400  1
  C  C57  1  0.49954200  0.00055200  0.10451000  1
  C  C58  1  0.00038200  0.49970600  0.10451100  1
  C  C59  1  0.49970600  0.00038100  0.89548300  1
  C  C60  1  0.00055200  0.49954200  0.89548300  1
  C  C61  1  0.99945500  0.50049600  0.60444000  1
  C  C62  1  0.50031200  0.99964400  0.60443900  1
  C  C63  1  0.99964400  0.50031200  0.39555500  1
  C  C64  1  0.50049600  0.99945600  0.39555300  1
  C  C65  1  0.50011300  0.99971600  0.28521800  1
  C  C66  1  0.99986500  0.50005400  0.28521900  1
  C  C67  1  0.50005500  0.99986400  0.71477400  1
  C  C68  1  0.99971500  0.50011300  0.71477500  1
  C  C69  1  0.00004000  0.49985200  0.78462200  1
  C  C70  1  0.49990700  0.00007300  0.78462100  1
  C  C71  1  0.00007400  0.49990600  0.21537200  1
  C  C72  1  0.49985200  0.00004000  0.21537100  1
  C  C73  1  0.49958200  0.86294400  0.00006200  1
  C  C74  1  0.13820300  0.49962500  0.00006200  1
  C  C75  1  0.49962400  0.13820300  0.99993100  1
  C  C76  1  0.86294500  0.49958000  0.99993100  1
  C  C77  1  0.99951400  0.36288900  0.50006300  1
  C  C78  1  0.63810700  0.99955800  0.50006100  1
  C  C79  1  0.99955400  0.63810600  0.49993300  1
  C  C80  1  0.36288900  0.99951000  0.49993100  1
  C  C81  1  0.49962400  0.82112400  0.00006600  1
  C  C82  1  0.18002500  0.49967700  0.00006600  1
  C  C83  1  0.49967600  0.18002400  0.99992800  1
  C  C84  1  0.82112500  0.49962100  0.99992800  1
  C  C85  1  0.99955500  0.32106700  0.50006600  1
  C  C86  1  0.67993000  0.99960900  0.50006500  1
  C  C87  1  0.99960400  0.67993000  0.49993000  1
  C  C88  1  0.32106700  0.99955000  0.49992900  1
  C  C89  1  0.49972700  0.77211900  0.00006500  1
  C  C90  1  0.22903200  0.49978800  0.00006400  1
  C  C91  1  0.49978600  0.22903100  0.99992900  1
  C  C92  1  0.77212000  0.49972500  0.99992900  1
  C  C93  1  0.99965700  0.27205800  0.50006400  1
  C  C94  1  0.72894100  0.99971900  0.50006300  1
  C  C95  1  0.99971400  0.72894100  0.49993100  1
  C  C96  1  0.27205800  0.99965200  0.49993100  1
  C  C97  1  0.49987600  0.73029500  0.00006000  1
  C  C98  1  0.27085700  0.49993800  0.00006000  1
  C  C99  1  0.49993700  0.27085600  0.99993400  1
  C  C100  1  0.73029600  0.49987400  0.99993400  1
  C  C101  1  0.99980500  0.23023200  0.50005900  1
  C  C102  1  0.77076900  0.99986800  0.50005800  1
  C  C103  1  0.99986300  0.77076800  0.49993600  1
  C  C104  1  0.23023200  0.99980000  0.49993600  1
  C  C105  1  0.50013700  0.68129000  0.00005000  1
  C  C106  1  0.31986500  0.50019400  0.00005000  1
  C  C107  1  0.50019300  0.31986400  0.99994400  1
  C  C108  1  0.68129000  0.50013500  0.99994400  1
  C  C109  1  0.00006400  0.18122300  0.50005000  1
  C  C110  1  0.81978000  0.00012100  0.50004900  1
  C  C111  1  0.00011700  0.81978000  0.49994600  1
  C  C112  1  0.18122300  0.00005900  0.49994500  1
  C  C113  1  0.50044600  0.63946900  0.00004000  1
  C  C114  1  0.36168700  0.50049100  0.00003900  1
  C  C115  1  0.50049000  0.36168600  0.99995400  1
  C  C116  1  0.63946900  0.50044400  0.99995400  1
  C  C117  1  0.00037100  0.13939900  0.50003900  1
  C  C118  1  0.86160500  0.00041700  0.50003900  1
  C  C119  1  0.00041400  0.86160400  0.49995600  1
  C  C120  1  0.13940000  0.00036800  0.49995600  1
  C  C121  1  0.41147800  0.50095500  0.00002500  1
  C  C122  1  0.50095500  0.41147700  0.99996900  1
  C  C123  1  0.58968000  0.50093200  0.99997000  1
  C  C124  1  0.50093400  0.58967900  0.00002400  1
  C  C125  1  0.91139900  0.00088000  0.50002500  1
  C  C126  1  0.00087800  0.91139900  0.49997100  1
  C  C127  1  0.08960700  0.00085500  0.49997100  1
  C  C128  1  0.00085800  0.08960700  0.50002400  1
  C  C129  1  0.38338800  0.95705300  0.16844700  1
  C  C130  1  0.36355800  0.91569300  0.14880100  1
  C  C131  1  0.42228300  0.86894700  0.16373600  1
  C  C132  1  0.44581000  0.90443300  0.18674200  1
  C  C133  1  0.04342100  0.38350100  0.16856100  1
  C  C134  1  0.08492800  0.36369000  0.14907900  1
  C  C135  1  0.13156400  0.42239500  0.16425700  1
  C  C136  1  0.09590400  0.44589500  0.18712500  1
  C  C137  1  0.61599700  0.04352300  0.16832200  1
  C  C138  1  0.63572600  0.08506100  0.14883100  1
  C  C139  1  0.57708300  0.13167100  0.16418800  1
  C  C140  1  0.55367800  0.09597300  0.18707900  1
  C  C141  1  0.95699200  0.61612400  0.16821000  1
  C  C142  1  0.91560700  0.63588600  0.14855500  1
  C  C143  1  0.86886600  0.57723700  0.16367000  1
  C  C144  1  0.90438200  0.55379400  0.18669800  1
  C  C145  1  0.61611800  0.95697400  0.83178400  1
  C  C146  1  0.63587400  0.91558600  0.85143900  1
  C  C147  1  0.57721800  0.86885300  0.83632300  1
  C  C148  1  0.55378100  0.90437300  0.81329500  1
  C  C149  1  0.95709000  0.38337500  0.83154500  1
  C  C150  1  0.91573600  0.36353100  0.85119200  1
  C  C151  1  0.86897100  0.42224200  0.83625700  1
  C  C152  1  0.90445000  0.44578000  0.81325100  1
  C  C153  1  0.38350700  0.04343700  0.83143300  1
  C  C154  1  0.36370300  0.08494600  0.85091400  1
  C  C155  1  0.42241400  0.13157400  0.83573600  1
  C  C156  1  0.44590900  0.09591000  0.81286800  1
  C  C157  1  0.04348600  0.61601100  0.83167100  1
  C  C158  1  0.08501700  0.63575200  0.85116200  1
  C  C159  1  0.13164600  0.57712400  0.83580500  1
  C  C160  1  0.09595600  0.55370800  0.81291400  1
  C  C161  1  0.89452400  0.47084500  0.68874200  1
  C  C162  1  0.85336800  0.45745700  0.66648400  1
  C  C163  1  0.88383200  0.38977500  0.64933200  1
  C  C164  1  0.92953900  0.39824600  0.66812000  1
  C  C165  1  0.52944200  0.89468000  0.68880300  1
  C  C166  1  0.54295400  0.85353300  0.66657800  1
  C  C167  1  0.61075000  0.88398500  0.64967200  1
  C  C168  1  0.60217900  0.92968400  0.66844500  1
  C  C169  1  0.10477200  0.52954700  0.68853000  1
  C  C170  1  0.14580100  0.54312800  0.66620500  1
  C  C171  1  0.11523800  0.61095200  0.64947700  1
  C  C172  1  0.06963600  0.60231900  0.66836700  1
  C  C173  1  0.47078900  0.10493800  0.68846900  1
  C  C174  1  0.45735300  0.14598500  0.66611300  1
  C  C175  1  0.38962800  0.11544400  0.64913500  1
  C  C176  1  0.39813700  0.06982800  0.66803900  1
  C  C177  1  0.10493500  0.47077000  0.31152600  1
  C  C178  1  0.14597900  0.45732700  0.33388300  1
  C  C179  1  0.11542500  0.38960800  0.35085900  1
  C  C180  1  0.06981100  0.39812500  0.33195500  1
  C  C181  1  0.47090400  0.89451100  0.31124800  1
  C  C182  1  0.45754300  0.85334500  0.33350500  1
  C  C183  1  0.38984300  0.88376600  0.35066100  1
  C  C184  1  0.39828500  0.92948000  0.33187400  1
  C  C185  1  0.89468500  0.52945900  0.31119100  1
  C  C186  1  0.85354100  0.54297800  0.33341700  1
  C  C187  1  0.88400500  0.61077000  0.35032200  1
  C  C188  1  0.92970200  0.60219000  0.33154800  1
  C  C189  1  0.52948700  0.10478600  0.31146100  1
  C  C190  1  0.54304100  0.14582500  0.33378400  1
  C  C191  1  0.61088300  0.11530500  0.35051600  1
  C  C192  1  0.60227900  0.06969600  0.33162700  1
  N  N1  1  0.54022200  0.99808400  0.23300600  1
  N  N2  1  0.00190100  0.54024800  0.23305200  1
  N  N3  1  0.45961200  0.00181800  0.23318500  1
  N  N4  1  0.99814200  0.45963900  0.23314000  1
  N  N5  1  0.45963900  0.99814700  0.76685300  1
  N  N6  1  0.99806700  0.54022100  0.76698800  1
  N  N7  1  0.54024900  0.00189300  0.76694200  1
  N  N8  1  0.00183400  0.45961200  0.76680900  1
  N  N9  1  0.99808000  0.54038400  0.73248100  1
  N  N10  1  0.45967800  0.99821700  0.73234500  1
  N  N11  1  0.00150300  0.45970800  0.73230100  1
  N  N12  1  0.54035600  0.00161900  0.73243500  1
  N  N13  1  0.00162700  0.54035500  0.26755800  1
  N  N14  1  0.54038500  0.99809700  0.26751200  1
  N  N15  1  0.99821200  0.45967800  0.26764800  1
  N  N16  1  0.45970700  0.00148700  0.26769200  1
  N  N17  1  0.43169200  0.95053300  0.17704100  1
  N  N18  1  0.04987900  0.43179500  0.17721300  1
  N  N19  1  0.56773900  0.04996500  0.17709100  1
  N  N20  1  0.95047000  0.56785700  0.17692200  1
  N  N21  1  0.56785100  0.95045900  0.82307200  1
  N  N22  1  0.95055400  0.43167700  0.82295100  1
  N  N23  1  0.43180200  0.04988700  0.82278100  1
  N  N24  1  0.04994400  0.56775400  0.82290200  1
  N  N25  1  0.93535300  0.44638800  0.67744900  1
  N  N26  1  0.55398300  0.93550800  0.67761200  1
  N  N27  1  0.06387700  0.55410200  0.67749400  1
  N  N28  1  0.44629700  0.06405500  0.67732900  1
  N  N29  1  0.06404700  0.44628600  0.32266500  1
  N  N30  1  0.44642300  0.93532400  0.32254300  1
  N  N31  1  0.93551800  0.55399300  0.32238200  1
  N  N32  1  0.55406600  0.06390700  0.32249900  1
  O  O1  1  0.53774600  0.93438600  0.01005800  1
  O  O2  1  0.06674600  0.53779000  0.01000900  1
  O  O3  1  0.46140800  0.06678000  0.00992600  1
  O  O4  1  0.93437700  0.46140900  0.00997400  1
  O  O5  1  0.46141000  0.93437500  0.99001900  1
  O  O6  1  0.93438700  0.53774500  0.98993600  1
  O  O7  1  0.53778900  0.06674600  0.98998400  1
  O  O8  1  0.06678100  0.46140800  0.99006800  1
  O  O9  1  0.03764500  0.43433700  0.51015300  1
  O  O10  1  0.56664300  0.03769100  0.51009900  1
  O  O11  1  0.96136900  0.56667800  0.51001800  1
  O  O12  1  0.43432600  0.96137200  0.51006800  1
  O  O13  1  0.96137400  0.43432500  0.48992500  1
  O  O14  1  0.43433500  0.03764300  0.48984100  1
  O  O15  1  0.03768900  0.56664400  0.48989400  1
  O  O16  1  0.56667900  0.96137100  0.48997600  1
  O  O17  1  0.53768700  0.01380700  0.04984100  1
  O  O18  1  0.98732000  0.53778900  0.04979200  1
  O  O19  1  0.46138500  0.98744200  0.04980900  1
  O  O20  1  0.01370800  0.46149500  0.04985900  1
  O  O21  1  0.46149600  0.01370700  0.95013400  1
  O  O22  1  0.01380700  0.53768600  0.95015200  1
  O  O23  1  0.53779000  0.98731900  0.95020200  1
  O  O24  1  0.98744400  0.46138400  0.95018400  1
  O  O25  1  0.03758300  0.51386900  0.54982300  1
  O  O26  1  0.48710700  0.03769400  0.54976900  1
  O  O27  1  0.96134200  0.48722900  0.54978800  1
  O  O28  1  0.51377000  0.96146100  0.54983900  1
  O  O29  1  0.96146100  0.51376900  0.45015400  1
  O  O30  1  0.51386700  0.03758400  0.45017100  1
  O  O31  1  0.03769500  0.48710700  0.45022500  1
  O  O32  1  0.48723100  0.96134100  0.45020500  1
  O  O33  1  0.43302900  0.49882500  0.03019000  1
  O  O34  1  0.49884500  0.43299600  0.03014800  1
  O  O35  1  0.56812900  0.49881100  0.03007800  1
  O  O36  1  0.49885800  0.56809600  0.03012200  1
  O  O37  1  0.56809700  0.49885700  0.96987200  1
  O  O38  1  0.49882500  0.43302900  0.96980400  1
  O  O39  1  0.43299700  0.49884500  0.96984600  1
  O  O40  1  0.49881200  0.56812900  0.96991600  1
  O  O41  1  0.93295200  0.99875000  0.53018900  1
  O  O42  1  0.99876800  0.93292000  0.53014900  1
  O  O43  1  0.06805300  0.99873500  0.53007900  1
  O  O44  1  0.99878200  0.06802100  0.53012200  1
  O  O45  1  0.06802100  0.99878000  0.46987400  1
  O  O46  1  0.99874800  0.93295200  0.46980600  1
  O  O47  1  0.93292000  0.99876900  0.46984600  1
  O  O48  1  0.99873700  0.06805300  0.46991600  1
  O  O49  1  0.37417700  0.87417900  0.16591500  1
  O  O50  1  0.12631200  0.37428600  0.16637900  1
  O  O51  1  0.62520000  0.12641700  0.16619200  1
  O  O52  1  0.87411600  0.62535000  0.16573100  1
  O  O53  1  0.62533300  0.87409700  0.83426200  1
  O  O54  1  0.87421800  0.37413700  0.83407800  1
  O  O55  1  0.37430500  0.12632900  0.83361400  1
  O  O56  1  0.12637800  0.62524000  0.83380100  1
  O  O57  1  0.84687400  0.40944500  0.66777500  1
  O  O58  1  0.59095400  0.84702200  0.66803400  1
  O  O59  1  0.15229900  0.59112800  0.66770900  1
  O  O60  1  0.40934500  0.15249000  0.66744900  1
  O  O61  1  0.15247500  0.40931800  0.33254600  1
  O  O62  1  0.40953500  0.84682100  0.33221600  1
  O  O63  1  0.84703900  0.59098000  0.33196000  1
  O  O64  1  0.59103700  0.15235300  0.33228300  1
