# generated using pymatgen
data_CuH8C18(NO2)3
_symmetry_space_group_name_H-M   'P 1'
_cell_length_a   16.04036100
_cell_length_b   14.61668600
_cell_length_c   19.24168500
_cell_angle_alpha   90.00000000
_cell_angle_beta   89.99520100
_cell_angle_gamma   90.00000000
_symmetry_Int_Tables_number   1
_chemical_formula_structural   CuH8C18(NO2)3
_chemical_formula_sum   'Cu2 H16 C36 N6 O12'
_cell_volume   4511.34618611
_cell_formula_units_Z   2
loop_
 _symmetry_equiv_pos_site_id
 _symmetry_equiv_pos_as_xyz
  1  'x, y, z'
loop_
 _atom_site_type_symbol
 _atom_site_label
 _atom_site_symmetry_multiplicity
 _atom_site_fract_x
 _atom_site_fract_y
 _atom_site_fract_z
 _atom_site_occupancy
  Cu  Cu1  1  0.50079600  0.59153200  0.50003000  1
  Cu  Cu2  1  0.50079500  0.40846900  0.49996500  1
  H  H1  1  0.49968900  0.64623000  0.28091900  1
  H  H2  1  0.49973400  0.35377000  0.71907700  1
  H  H3  1  0.49968400  0.64660500  0.71920300  1
  H  H4  1  0.49963400  0.35339500  0.28079300  1
  H  H5  1  0.49895800  0.64644900  0.15543300  1
  H  H6  1  0.49899200  0.35355100  0.84456300  1
  H  H7  1  0.49894200  0.64664500  0.84468200  1
  H  H8  1  0.49890300  0.35335500  0.15531400  1
  H  H9  1  0.59349100  0.08412000  0.57927200  1
  H  H10  1  0.40805800  0.91588000  0.42072600  1
  H  H11  1  0.40805100  0.08419000  0.42077700  1
  H  H12  1  0.59349800  0.91581000  0.57922200  1
  H  H13  1  0.09168900  0.67876700  0.55003300  1
  H  H14  1  0.90993700  0.32123100  0.44996300  1
  H  H15  1  0.90993800  0.67885200  0.45013200  1
  H  H16  1  0.09168900  0.32115100  0.54986300  1
  C  C1  1  0.34081800  0.50000200  0.50001800  1
  C  C2  1  0.66080400  0.49999900  0.49997700  1
  C  C3  1  0.50027000  0.49974100  0.36637000  1
  C  C4  1  0.50030900  0.50025900  0.63362500  1
  C  C5  1  0.49942000  0.58143900  0.25389400  1
  C  C6  1  0.49946400  0.41856200  0.74610200  1
  C  C7  1  0.49943500  0.58177200  0.74617100  1
  C  C8  1  0.49938800  0.41822800  0.25382500  1
  C  C9  1  0.49903200  0.58151200  0.18223900  1
  C  C10  1  0.49906900  0.41848800  0.81775700  1
  C  C11  1  0.49904200  0.58174500  0.81782400  1
  C  C12  1  0.49900200  0.41825600  0.18217200  1
  C  C13  1  0.49884600  0.49990900  0.14586300  1
  C  C14  1  0.49888000  0.50009100  0.85413300  1
  C  C15  1  0.49959400  0.49980700  0.29014000  1
  C  C16  1  0.49964000  0.50019400  0.70985600  1
  C  C17  1  0.49869000  0.50004300  0.93043900  1
  C  C18  1  0.49867200  0.49995800  0.06955700  1
  C  C19  1  0.95782500  0.58170600  0.49995900  1
  C  C20  1  0.04379800  0.41829500  0.50003600  1
  C  C21  1  0.04379700  0.58170600  0.50011300  1
  C  C22  1  0.95782600  0.41829400  0.49988200  1
  C  C23  1  0.91483700  0.50000000  0.49989500  1
  C  C24  1  0.08678600  0.50000100  0.50010000  1
  C  C25  1  0.82536700  0.49999900  0.49994100  1
  C  C26  1  0.17625600  0.50000100  0.50005500  1
  C  C27  1  0.25137500  0.50000200  0.50003500  1
  C  C28  1  0.75024800  0.49999900  0.49996000  1
  C  C29  1  0.55275600  0.95281400  0.54441100  1
  C  C30  1  0.44879200  0.04718700  0.45558900  1
  C  C31  1  0.44879800  0.95285200  0.45555900  1
  C  C32  1  0.55275000  0.04714800  0.54444100  1
  C  C33  1  0.50078100  0.90567200  0.49996900  1
  C  C34  1  0.50076700  0.09432800  0.50003000  1
  C  C35  1  0.50078100  0.80751200  0.49994900  1
  C  C36  1  0.50077300  0.19248900  0.50004700  1
  N  N1  1  0.49866200  0.42046100  0.03431800  1
  N  N2  1  0.49867300  0.57953900  0.96567800  1
  N  N3  1  0.49867200  0.42050300  0.96562000  1
  N  N4  1  0.49866400  0.57949700  0.03437600  1
  N  N5  1  0.50078000  0.27164000  0.50004800  1
  N  N6  1  0.50078300  0.72836000  0.49994800  1
  O  O1  1  0.37963600  0.57876100  0.50246700  1
  O  O2  1  0.62193400  0.42140800  0.49748000  1
  O  O3  1  0.62193600  0.57859000  0.50248600  1
  O  O4  1  0.37963500  0.42124200  0.49755700  1
  O  O5  1  0.49816400  0.57833200  0.39905300  1
  O  O6  1  0.49819300  0.42166900  0.60094300  1
  O  O7  1  0.49813700  0.57890200  0.60104200  1
  O  O8  1  0.49810500  0.42109800  0.39895400  1
  O  O9  1  0.08636900  0.66265500  0.50025100  1
  O  O10  1  0.91525400  0.33734600  0.49974400  1
  O  O11  1  0.91525200  0.66265400  0.49989800  1
  O  O12  1  0.08637000  0.33734700  0.50009700  1
