# generated using pymatgen
data_Zn2H11C31N11O8
_symmetry_space_group_name_H-M   'P 1'
_cell_length_a   15.95626700
_cell_length_b   11.13589100
_cell_length_c   10.01547300
_cell_angle_alpha   89.99739400
_cell_angle_beta   89.97527300
_cell_angle_gamma   89.99822700
_symmetry_Int_Tables_number   1
_chemical_formula_structural   Zn2H11C31N11O8
_chemical_formula_sum   'Zn2 H11 C31 N11 O8'
_cell_volume   1779.62168719
_cell_formula_units_Z   1
loop_
 _symmetry_equiv_pos_site_id
 _symmetry_equiv_pos_as_xyz
  1  'x, y, z'
loop_
 _atom_site_type_symbol
 _atom_site_label
 _atom_site_symmetry_multiplicity
 _atom_site_fract_x
 _atom_site_fract_y
 _atom_site_fract_z
 _atom_site_occupancy
  Zn  Zn1  1  0.50204300  0.49827300  0.65236500  1
  Zn  Zn2  1  0.49742400  0.50009900  0.34808600  1
  H  H1  1  0.07641000  0.35237200  0.35751300  1
  H  H2  1  0.93134400  0.47835600  0.27899800  1
  H  H3  1  0.06128300  0.65895300  0.62005000  1
  H  H4  1  0.07854200  0.68683000  0.44610200  1
  H  H5  1  0.07140900  0.45946500  0.71513800  1
  H  H6  1  0.93515700  0.49532100  0.71242400  1
  H  H7  1  0.49938800  0.88668400  0.29869300  1
  H  H8  1  0.49572500  0.90582000  0.60447400  1
  H  H9  1  0.49432200  0.10788100  0.29553400  1
  H  H10  1  0.50630000  0.09422800  0.60066300  1
  H  H11  1  0.43992700  0.47744100  0.10101300  1
  C  C1  1  0.50075000  0.26438200  0.49746000  1
  C  C2  1  0.33606400  0.49744300  0.50783900  1
  C  C3  1  0.49858700  0.73403000  0.50313800  1
  C  C4  1  0.66342400  0.50019600  0.49283600  1
  C  C5  1  0.04479400  0.42436500  0.62060000  1
  C  C6  1  0.04980600  0.44336300  0.37207900  1
  C  C7  1  0.95509500  0.43568000  0.37142100  1
  C  C8  1  0.75334800  0.50015000  0.49079500  1
  C  C9  1  0.07897400  0.49735600  0.50414700  1
  C  C10  1  0.95040800  0.43865500  0.62495000  1
  C  C11  1  0.92051900  0.49951500  0.49578300  1
  C  C12  1  0.95295100  0.62899800  0.49646700  1
  C  C13  1  0.04712400  0.62597300  0.51803500  1
  C  C14  1  0.82886300  0.49991700  0.49193100  1
  C  C15  1  0.17062500  0.49707400  0.50842200  1
  C  C16  1  0.24613900  0.49707800  0.50978800  1
  C  C17  1  0.49855900  0.93167400  0.39458900  1
  C  C18  1  0.49765200  0.86561500  0.50655800  1
  C  C19  1  0.49778700  0.06479400  0.39237600  1
  C  C20  1  0.50179200  0.13292100  0.50222600  1
  C  C21  1  0.53505400  0.57914300  0.93022800  1
  C  C22  1  0.54706500  0.56188600  0.07557100  1
  C  C23  1  0.90901400  0.32318600  0.64921000  1
  C  C24  1  0.93438000  0.69015600  0.37038800  1
  C  C25  1  0.56442200  0.69115500  0.87643000  1
  C  C26  1  0.51198600  0.38021900  0.90285300  1
  C  C27  1  0.61261600  0.63081300  0.13737300  1
  C  C28  1  0.06772800  0.29741400  0.60890100  1
  C  C29  1  0.07808100  0.51735200  0.25989600  1
  C  C30  1  0.92924400  0.30969200  0.36363000  1
  C  C31  1  0.91341100  0.69856700  0.60353400  1
  N  N1  1  0.50704800  0.49591300  0.85214000  1
  N  N2  1  0.49398400  0.50410200  0.14832400  1
  N  N3  1  0.87610500  0.23227800  0.66889000  1
  N  N4  1  0.91969200  0.73870300  0.27096000  1
  N  N5  1  0.58869700  0.78174000  0.83503100  1
  N  N6  1  0.51616200  0.28360000  0.94486400  1
  N  N7  1  0.66542400  0.68700400  0.18600700  1
  N  N8  1  0.08606600  0.19720000  0.59978700  1
  N  N9  1  0.10045400  0.57572100  0.17119300  1
  N  N10  1  0.90886400  0.21016100  0.35667400  1
  N  N11  1  0.88215000  0.75360800  0.68794600  1
  O  O1  1  0.50251100  0.32006300  0.61258100  1
  O  O2  1  0.49874900  0.32057800  0.38199700  1
  O  O3  1  0.37649900  0.49599100  0.62196700  1
  O  O4  1  0.37339100  0.49948000  0.39120200  1
  O  O5  1  0.49998200  0.67750300  0.61805500  1
  O  O6  1  0.49807900  0.67859600  0.38749200  1
  O  O7  1  0.62610100  0.49947100  0.60945600  1
  O  O8  1  0.62296500  0.50031400  0.37876100  1
