# generated using pymatgen
data_CuH20C37NO4
_symmetry_space_group_name_H-M   'P 1'
_cell_length_a   16.03670900
_cell_length_b   14.62209600
_cell_length_c   14.94648100
_cell_angle_alpha   90.00000000
_cell_angle_beta   89.99981000
_cell_angle_gamma   90.00000000
_symmetry_Int_Tables_number   1
_chemical_formula_structural   CuH20C37NO4
_chemical_formula_sum   'Cu2 H40 C74 N2 O8'
_cell_volume   3504.80479153
_cell_formula_units_Z   2
loop_
 _symmetry_equiv_pos_site_id
 _symmetry_equiv_pos_as_xyz
  1  'x, y, z'
loop_
 _atom_site_type_symbol
 _atom_site_label
 _atom_site_symmetry_multiplicity
 _atom_site_fract_x
 _atom_site_fract_y
 _atom_site_fract_z
 _atom_site_occupancy
  Cu  Cu1  1  0.49970800  0.58859300  0.49965100  1
  Cu  Cu2  1  0.49970400  0.40544100  0.49964300  1
  H  H1  1  0.63251500  0.49898700  0.77818700  1
  H  H2  1  0.36787500  0.49881400  0.22088800  1
  H  H3  1  0.36924400  0.49481200  0.77531600  1
  H  H4  1  0.63116600  0.49504900  0.22406700  1
  H  H5  1  0.29370700  0.50145700  0.08357800  1
  H  H6  1  0.70675200  0.50166900  0.91565000  1
  H  H7  1  0.07638900  0.64247000  0.50795300  1
  H  H8  1  0.92298800  0.35130700  0.49700000  1
  H  H9  1  0.92297500  0.64246800  0.50765200  1
  H  H10  1  0.07642200  0.35131500  0.49717900  1
  H  H11  1  0.29026300  0.63886900  0.85258500  1
  H  H12  1  0.15208800  0.64739700  0.78226500  1
  H  H13  1  0.05162900  0.52199900  0.80233000  1
  H  H14  1  0.08926900  0.38829700  0.89361900  1
  H  H15  1  0.22760800  0.37898700  0.96337900  1
  H  H16  1  0.71009300  0.63905900  0.14666900  1
  H  H17  1  0.84834400  0.64781000  0.21678500  1
  H  H18  1  0.94894300  0.52256700  0.19658100  1
  H  H19  1  0.91135300  0.38878600  0.10538300  1
  H  H20  1  0.77294900  0.37926900  0.03580300  1
  H  H21  1  0.68580600  0.14592800  0.51269900  1
  H  H22  1  0.77649300  0.23208900  0.61485700  1
  H  H23  1  0.74965800  0.22959000  0.77686000  1
  H  H24  1  0.63173400  0.14110500  0.83660400  1
  H  H25  1  0.54035100  0.05563400  0.73461600  1
  H  H26  1  0.48884000  0.84772500  0.30018400  1
  H  H27  1  0.39424000  0.76117700  0.20250700  1
  H  H28  1  0.24308200  0.76386500  0.23012200  1
  H  H29  1  0.18659500  0.85276900  0.35596300  1
  H  H30  1  0.28102700  0.93848900  0.45448500  1
  H  H31  1  0.31362300  0.14576700  0.48662500  1
  H  H32  1  0.22287000  0.23184400  0.38446400  1
  H  H33  1  0.24975800  0.22944000  0.22246900  1
  H  H34  1  0.36779800  0.14113300  0.16273600  1
  H  H35  1  0.45923600  0.05573400  0.26472700  1
  H  H36  1  0.51074200  0.84763300  0.69911000  1
  H  H37  1  0.60538000  0.76100700  0.79667700  1
  H  H38  1  0.75652900  0.76373200  0.76900800  1
  H  H39  1  0.81297000  0.85275800  0.64322500  1
  H  H40  1  0.71849900  0.93855700  0.54481200  1
  C  C1  1  0.33968700  0.49701300  0.50026100  1
  C  C2  1  0.65969800  0.49700000  0.49980400  1
  C  C3  1  0.49956100  0.49706400  0.32799900  1
  C  C4  1  0.50005400  0.49705500  0.67125200  1
  C  C5  1  0.57435100  0.49898500  0.81473600  1
  C  C6  1  0.42606900  0.49889200  0.18439500  1
  C  C7  1  0.50020500  0.49741700  0.76872500  1
  C  C8  1  0.50012700  0.49743700  0.23052100  1
  C  C9  1  0.42572400  0.49780600  0.81438200  1
  C  C10  1  0.57469900  0.49793700  0.18496800  1
  C  C11  1  0.42471600  0.50110600  0.90718400  1
  C  C12  1  0.57574700  0.50119500  0.09211200  1
  C  C13  1  0.49975500  0.50079600  0.95334900  1
  C  C14  1  0.50072700  0.50079800  0.04589100  1
  C  C15  1  0.57412800  0.49990400  0.90692100  1
  C  C16  1  0.42633700  0.49982300  0.09226400  1
  C  C17  1  0.35011200  0.50258600  0.95467500  1
  C  C18  1  0.65034300  0.50273100  0.04458100  1
  C  C19  1  0.35172100  0.50053900  0.04677600  1
  C  C20  1  0.64873700  0.50069100  0.95244700  1
  C  C21  1  0.95669800  0.57849900  0.50547900  1
  C  C22  1  0.04269000  0.41527100  0.49963200  1
  C  C23  1  0.04267400  0.57850000  0.50566100  1
  C  C24  1  0.95670800  0.41526800  0.49949900  1
  C  C25  1  0.91372800  0.49688900  0.50232800  1
  C  C26  1  0.08565700  0.49689300  0.50265900  1
  C  C27  1  0.82427400  0.49692200  0.50163000  1
  C  C28  1  0.17511100  0.49693600  0.50213200  1
  C  C29  1  0.25023500  0.49698400  0.50141600  1
  C  C30  1  0.74915000  0.49696700  0.50087700  1
  C  C31  1  0.55220100  0.94964900  0.55691400  1
  C  C32  1  0.44674800  0.04434200  0.44303200  1
  C  C33  1  0.44732600  0.94964500  0.44242000  1
  C  C34  1  0.55277500  0.04434900  0.55629800  1
  C  C35  1  0.49976100  0.90268900  0.49967000  1
  C  C36  1  0.49975800  0.09132000  0.49966500  1
  C  C37  1  0.49975500  0.80446300  0.49967300  1
  C  C38  1  0.49974500  0.18956100  0.49966300  1
  C  C39  1  0.26859700  0.50724300  0.91060600  1
  C  C40  1  0.24659800  0.58318600  0.86086400  1
  C  C41  1  0.16891000  0.58822000  0.82166900  1
  C  C42  1  0.11255000  0.51801300  0.83303200  1
  C  C43  1  0.13367800  0.44305900  0.88416000  1
  C  C44  1  0.21137300  0.43792900  0.92335000  1
  C  C45  1  0.73185700  0.50746000  0.08863400  1
  C  C46  1  0.75381200  0.58343200  0.13835100  1
  C  C47  1  0.83154400  0.58859400  0.17742600  1
  C  C48  1  0.88798200  0.51847500  0.16598400  1
  C  C49  1  0.86688400  0.44347800  0.11490500  1
  C  C50  1  0.78915000  0.43822900  0.07582200  1
  C  C51  1  0.60722100  0.09537000  0.61714900  1
  C  C52  1  0.67359800  0.14503100  0.58381900  1
  C  C53  1  0.72464500  0.19322000  0.64113500  1
  C  C54  1  0.70963100  0.19179600  0.73193000  1
  C  C55  1  0.64355000  0.14216000  0.76541300  1
  C  C56  1  0.59238900  0.09404300  0.70814700  1
  C  C57  1  0.39096300  0.89858600  0.38362600  1
  C  C58  1  0.42247100  0.84869800  0.31277900  1
  C  C59  1  0.36940200  0.80029800  0.25779100  1
  C  C60  1  0.28467900  0.80180700  0.27325500  1
  C  C61  1  0.25302300  0.85168200  0.34376700  1
  C  C62  1  0.30605000  0.89995200  0.39891800  1
  C  C63  1  0.39229200  0.09535000  0.38218300  1
  C  C64  1  0.32585600  0.14491700  0.41550900  1
  C  C65  1  0.27477100  0.19305700  0.35819100  1
  C  C66  1  0.28981400  0.19168400  0.26740100  1
  C  C67  1  0.35596100  0.14214900  0.23392300  1
  C  C68  1  0.40715400  0.09407600  0.29119100  1
  C  C69  1  0.60858900  0.89858500  0.61567800  1
  C  C70  1  0.57710800  0.84863200  0.68649700  1
  C  C71  1  0.63019800  0.80018500  0.74142200  1
  C  C72  1  0.71491600  0.80171400  0.72592700  1
  C  C73  1  0.74654500  0.85165800  0.65544900  1
  C  C74  1  0.69349700  0.89997500  0.60036000  1
  N  N1  1  0.49973500  0.26867400  0.49965900  1
  N  N2  1  0.49974500  0.72535600  0.49967500  1
  O  O1  1  0.37854200  0.57562400  0.50271600  1
  O  O2  1  0.62089200  0.41825600  0.50237200  1
  O  O3  1  0.62089900  0.57576100  0.50228700  1
  O  O4  1  0.37853900  0.41840800  0.50262300  1
  O  O5  1  0.50213700  0.57564300  0.36965300  1
  O  O6  1  0.50245800  0.41823700  0.62968100  1
  O  O7  1  0.50255300  0.57579900  0.62965800  1
  O  O8  1  0.50221700  0.41841200  0.36962100  1
