# generated using pymatgen
data_CoH10C16NO4
_symmetry_space_group_name_H-M   'P 1'
_cell_length_a   16.20049400
_cell_length_b   8.61742900
_cell_length_c   10.95106200
_cell_angle_alpha   90.00000000
_cell_angle_beta   93.63027500
_cell_angle_gamma   90.00000000
_symmetry_Int_Tables_number   1
_chemical_formula_structural   CoH10C16NO4
_chemical_formula_sum   'Co2 H20 C32 N2 O8'
_cell_volume   1525.77285157
_cell_formula_units_Z   2
loop_
 _symmetry_equiv_pos_site_id
 _symmetry_equiv_pos_as_xyz
  1  'x, y, z'
loop_
 _atom_site_type_symbol
 _atom_site_label
 _atom_site_symmetry_multiplicity
 _atom_site_fract_x
 _atom_site_fract_y
 _atom_site_fract_z
 _atom_site_occupancy
  Co  Co1  1  0.08224900  0.99845600  0.01337100  1
  Co  Co2  1  0.91761500  0.99945900  0.98664700  1
  H  H1  1  0.21957100  0.98189200  0.83682200  1
  H  H2  1  0.78030000  0.01618100  0.16311800  1
  H  H3  1  0.77431600  0.99034600  0.77968100  1
  H  H4  1  0.22555900  0.00693900  0.22030100  1
  H  H5  1  0.49445900  0.04405400  0.86414100  1
  H  H6  1  0.50539800  0.95534100  0.13583900  1
  H  H7  1  0.37733400  0.00136100  0.23164800  1
  H  H8  1  0.62253500  0.99646300  0.76828800  1
  H  H9  1  0.63120000  0.02687600  0.15885000  1
  H  H10  1  0.36871300  0.97173200  0.84108300  1
  H  H11  1  0.05735400  0.85351300  0.40478500  1
  H  H12  1  0.91036000  0.21476400  0.53214600  1
  H  H13  1  0.94243600  0.85351100  0.59548400  1
  H  H14  1  0.09125700  0.21630200  0.46774800  1
  H  H15  1  0.05359100  0.86334800  0.60574100  1
  H  H16  1  0.00676300  0.11424300  0.38768500  1
  H  H17  1  0.94621400  0.86367700  0.39462300  1
  H  H18  1  0.99533200  0.11400700  0.61212700  1
  H  H19  1  0.97129200  0.49681000  0.08559300  1
  H  H20  1  0.02796000  0.49668400  0.91456500  1
  C  C1  1  0.00552200  0.77782600  0.83071100  1
  C  C2  1  0.99510200  0.21921000  0.17041200  1
  C  C3  1  0.99355900  0.77808100  0.16940400  1
  C  C4  1  0.00555000  0.21889900  0.82949500  1
  C  C5  1  0.25488000  0.98789900  0.92381400  1
  C  C6  1  0.74498800  0.01015000  0.07613000  1
  C  C7  1  0.33998300  0.98428600  0.92660900  1
  C  C8  1  0.65989300  0.01412100  0.07332000  1
  C  C9  1  0.38551300  0.99097500  0.03754400  1
  C  C10  1  0.61435100  0.00765900  0.96238100  1
  C  C11  1  0.34348800  0.99792500  0.14339100  1
  C  C12  1  0.65637500  0.00007800  0.85654800  1
  C  C13  1  0.25803200  0.00129900  0.13716700  1
  C  C14  1  0.74183500  0.99634700  0.86279500  1
  C  C15  1  0.47670800  0.98518100  0.04729900  1
  C  C16  1  0.52315700  0.01407100  0.95265800  1
  C  C17  1  0.98148100  0.49793100  0.18330500  1
  C  C18  1  0.01811100  0.49776300  0.81681200  1
  C  C19  1  0.98982000  0.63714800  0.24336700  1
  C  C20  1  0.00839000  0.35995800  0.75513900  1
  C  C21  1  0.00920000  0.63689200  0.75675500  1
  C  C22  1  0.99235300  0.36023600  0.24484300  1
  C  C23  1  0.99595600  0.64044100  0.36955500  1
  C  C24  1  0.99733100  0.36209600  0.62858100  1
  C  C25  1  0.00370500  0.64027500  0.63057200  1
  C  C26  1  0.00363900  0.36236400  0.37137600  1
  C  C27  1  0.00014600  0.79465300  0.43063700  1
  C  C28  1  0.97769400  0.21800700  0.55765400  1
  C  C29  1  0.99960900  0.79455000  0.56960900  1
  C  C30  1  0.02391500  0.21846500  0.44220700  1
  C  C31  1  0.99907300  0.50212200  0.43351700  1
  C  C32  1  0.00136100  0.50202100  0.56653400  1
  N  N1  1  0.21518000  0.99684800  0.02788200  1
  N  N2  1  0.78468500  0.00103600  0.97208100  1
  O  O1  1  0.07414500  0.83234300  0.88398000  1
  O  O2  1  0.92639700  0.16857100  0.11415300  1
  O  O3  1  0.92504400  0.83327100  0.11615200  1
  O  O4  1  0.07414700  0.16759600  0.88573700  1
  O  O5  1  0.06684400  0.16410500  0.14122600  1
  O  O6  1  0.93348000  0.83004100  0.86176100  1
  O  O7  1  0.93368300  0.16463900  0.85879200  1
  O  O8  1  0.06570900  0.82950600  0.13826900  1
