# generated using pymatgen
data_Zn3H25C37O13
_symmetry_space_group_name_H-M   'P 1'
_cell_length_a   19.08669500
_cell_length_b   18.84982600
_cell_length_c   18.86430200
_cell_angle_alpha   109.11837300
_cell_angle_beta   110.07160000
_cell_angle_gamma   109.43425400
_symmetry_Int_Tables_number   1
_chemical_formula_structural   Zn3H25C37O13
_chemical_formula_sum   'Zn6 H50 C74 O26'
_cell_volume   5210.74463545
_cell_formula_units_Z   2
loop_
 _symmetry_equiv_pos_site_id
 _symmetry_equiv_pos_as_xyz
  1  'x, y, z'
loop_
 _atom_site_type_symbol
 _atom_site_label
 _atom_site_symmetry_multiplicity
 _atom_site_fract_x
 _atom_site_fract_y
 _atom_site_fract_z
 _atom_site_occupancy
  Zn  Zn1  1  0.49172000  0.41872100  0.41482200  1
  Zn  Zn2  1  0.50042200  0.55975500  0.55882900  1
  Zn  Zn3  1  0.92704400  0.42070500  0.98146300  1
  Zn  Zn4  1  0.06343900  0.56274000  0.98370200  1
  Zn  Zn5  1  0.06294500  0.98939900  0.55659300  1
  Zn  Zn6  1  0.92633900  0.98782800  0.41311000  1
  H  H1  1  0.72471600  0.41533700  0.58845800  1
  H  H2  1  0.63511000  0.34999300  0.59315200  1
  H  H3  1  0.72067800  0.35244100  0.71283500  1
  H  H4  1  0.88709900  0.56354200  0.75185800  1
  H  H5  1  0.64769800  0.53047400  0.76532000  1
  H  H6  1  0.60858700  0.41564800  0.70970900  1
  H  H7  1  0.71671100  0.44386400  0.83230200  1
  H  H8  1  0.77057600  0.55900800  0.87236400  1
  H  H9  1  0.76391300  0.62414600  0.75886400  1
  H  H10  1  0.88281200  0.62727500  0.84320300  1
  H  H11  1  0.35894500  0.37748900  0.62622200  1
  H  H12  1  0.24778200  0.26403700  0.62617900  1
  H  H13  1  0.14793000  0.04425700  0.30969200  1
  H  H14  1  0.07893900  0.09456600  0.28415700  1
  H  H15  1  0.26095400  0.15306700  0.30970900  1
  H  H16  1  0.19226700  0.20374600  0.28493400  1
  H  H17  1  0.36890900  0.63272700  0.36728600  1
  H  H18  1  0.25843000  0.63318700  0.25171700  1
  H  H19  1  0.06313100  0.29703900  0.11262400  1
  H  H20  1  0.12412300  0.30068500  0.05232600  1
  H  H21  1  0.17511400  0.29722100  0.22414500  1
  H  H22  1  0.23570400  0.29958900  0.16338800  1
  H  H23  1  0.74927400  0.76296700  0.62326800  1
  H  H24  1  0.86123100  0.87362500  0.62192100  1
  H  H25  1  0.67618700  0.71016800  0.28050300  1
  H  H26  1  0.74674500  0.66001000  0.29759100  1
  H  H27  1  0.56856400  0.59782600  0.28265800  1
  H  H28  1  0.63867700  0.54710100  0.29867100  1
  H  H29  1  0.11882100  0.39217700  0.81722400  1
  H  H30  1  0.11833700  0.27777300  0.70634100  1
  H  H31  1  0.79451300  0.06665900  0.59299900  1
  H  H32  1  0.85297200  0.04220800  0.67657100  1
  H  H33  1  0.79573700  0.17888000  0.70473400  1
  H  H34  1  0.85320000  0.15335100  0.78788300  1
  H  H35  1  0.00553400  0.76116800  0.11529900  1
  H  H36  1  0.00426700  0.87124600  0.22845500  1
  H  H37  1  0.04494600  0.71529000  0.41252600  1
  H  H38  1  0.92376100  0.66228400  0.34864000  1
  H  H39  1  0.03955900  0.60325100  0.29662000  1
  H  H40  1  0.91829900  0.54963700  0.23338600  1
  H  H41  1  0.90550400  0.32502600  0.60938000  1
  H  H42  1  0.85497600  0.18286300  0.49327000  1
  H  H43  1  0.70611800  0.06517800  0.42226300  1
  H  H44  1  0.60777600  0.09084700  0.46970500  1
  H  H45  1  0.65575000  0.23118400  0.58552900  1
  H  H46  1  0.87518000  0.64742600  0.57540400  1
  H  H47  1  0.99498000  0.78770900  0.62778000  1
  H  H48  1  0.06101400  0.90772600  0.77553400  1
  H  H49  1  0.00554300  0.88627100  0.87105900  1
  H  H50  1  0.88594000  0.74788400  0.82098700  1
  C  C1  1  0.37823700  0.36939400  0.48804200  1
  C  C2  1  0.61696900  0.48732900  0.60496400  1
  C  C3  1  0.61387700  0.60912300  0.48569600  1
  C  C4  1  0.37563900  0.49139800  0.36891500  1
  C  C5  1  0.69881000  0.41015700  0.63187200  1
  C  C6  1  0.75931800  0.40346400  0.70355000  1
  C  C7  1  0.77270400  0.57359000  0.71896700  1
  C  C8  1  0.66470700  0.48083200  0.73969300  1
  C  C9  1  0.68817800  0.48783000  0.67194800  1
  C  C10  1  0.80665800  0.48881900  0.78945000  1
  C  C11  1  0.84451000  0.56728900  0.77881200  1
  C  C12  1  0.74064000  0.49426100  0.81518600  1
  C  C13  1  0.24903900  0.22554800  0.41625000  1
  C  C14  1  0.31225400  0.30374800  0.48979100  1
  C  C15  1  0.31036800  0.31745800  0.56595400  1
  C  C16  1  0.24756300  0.25295400  0.56611500  1
  C  C17  1  0.18347600  0.17594200  0.48936900  1
  C  C18  1  0.18689900  0.16625000  0.41571600  1
  C  C19  1  0.14361600  0.10390000  0.32162800  1
  C  C20  1  0.21637000  0.17387700  0.32198700  1
  C  C21  1  0.23931200  0.41947200  0.23066100  1
  C  C22  1  0.30917500  0.49403000  0.30379200  1
  C  C23  1  0.31471000  0.57179200  0.31140200  1
  C  C24  1  0.25239200  0.57206000  0.24549100  1
  C  C25  1  0.18176600  0.49450800  0.17351900  1
  C  C26  1  0.17796700  0.41968200  0.17039500  1
  C  C27  1  0.12587900  0.32387000  0.11539100  1
  C  C28  1  0.19775400  0.32357300  0.18673900  1
  C  C29  1  0.68136400  0.66647300  0.41068100  1
  C  C30  1  0.68062700  0.67551300  0.48551700  1
  C  C31  1  0.74599000  0.75230700  0.56203900  1
  C  C32  1  0.80985000  0.81507300  0.56143100  1
  C  C33  1  0.80666300  0.80388500  0.48376100  1
  C  C34  1  0.73966400  0.72822600  0.40961200  1
  C  C35  1  0.70308100  0.67917200  0.31427400  1
  C  C36  1  0.63397500  0.60684100  0.31536000  1
  C  C37  1  0.99596500  0.37267000  0.86319600  1
  C  C38  1  0.87578900  0.49116100  0.86047200  1
  C  C39  1  0.99464300  0.61066400  0.10197000  1
  C  C40  1  0.11443800  0.49243400  0.10456800  1
  C  C41  1  0.99480300  0.10904500  0.60338900  1
  C  C42  1  0.11634400  0.10822300  0.48761500  1
  C  C43  1  0.99461800  0.86837600  0.36614100  1
  C  C44  1  0.87309100  0.86916600  0.48236100  1
  C  C45  1  0.93031400  0.22274400  0.74619700  1
  C  C46  1  0.99657800  0.30719500  0.79591900  1
  C  C47  1  0.06441600  0.32691800  0.77982700  1
  C  C48  1  0.06444200  0.26208800  0.71715900  1
  C  C49  1  0.99547300  0.17783000  0.66811400  1
  C  C50  1  0.92933400  0.16195700  0.68487700  1
  C  C51  1  0.84573800  0.09152300  0.65986400  1
  C  C52  1  0.84633800  0.16317500  0.73156300  1
  C  C53  1  0.98889000  0.66849000  0.23681100  1
  C  C54  1  0.99413900  0.67640900  0.16885800  1
  C  C55  1  0.00151200  0.75161900  0.16753900  1
  C  C56  1  0.00064200  0.81397100  0.23158600  1
  C  C57  1  0.99740800  0.80413300  0.30027700  1
  C  C58  1  0.99284900  0.73011500  0.30035200  1
  C  C59  1  0.98539900  0.68253300  0.34869000  1
  C  C60  1  0.98173500  0.61037400  0.27441500  1
  C  C61  1  0.81752800  0.37789400  0.67729500  1
  C  C62  1  0.78458900  0.29043500  0.60636800  1
  C  C63  1  0.83964600  0.27474200  0.57953700  1
  C  C64  1  0.81142200  0.19425200  0.51360500  1
  C  C65  1  0.72808800  0.12833400  0.47381300  1
  C  C66  1  0.67306400  0.14280800  0.50044700  1
  C  C67  1  0.70086900  0.22320100  0.56634200  1
  C  C68  1  0.79769200  0.59994200  0.65983400  1
  C  C69  1  0.87127400  0.68579600  0.69408500  1
  C  C70  1  0.90288100  0.69893000  0.64070300  1
  C  C71  1  0.97090900  0.77822900  0.67003400  1
  C  C72  1  0.00788800  0.84547900  0.75273700  1
  C  C73  1  0.97679800  0.83334900  0.80621200  1
  C  C74  1  0.90890000  0.75411200  0.77733200  1
  O  O1  1  0.40078400  0.34334100  0.43045600  1
  O  O2  1  0.41167100  0.45146700  0.54381700  1
  O  O3  1  0.58275200  0.43276300  0.52204600  1
  O  O4  1  0.59336200  0.54375000  0.63226400  1
  O  O5  1  0.58009300  0.52703800  0.42939900  1
  O  O6  1  0.59168400  0.63505900  0.54356600  1
  O  O7  1  0.39839900  0.43429900  0.34131200  1
  O  O8  1  0.40993800  0.54629000  0.45166600  1
  O  O9  1  0.94426700  0.34604100  0.89141600  1
  O  O10  1  0.04662900  0.45490600  0.89207400  1
  O  O11  1  0.85304400  0.43655400  0.88802400  1
  O  O12  1  0.95649500  0.54716000  0.89163900  1
  O  O13  1  0.94549900  0.52853000  0.07477800  1
  O  O14  1  0.04457700  0.63728800  0.07207200  1
  O  O15  1  0.03397800  0.43479700  0.07202800  1
  O  O16  1  0.13741200  0.54843900  0.07862800  1
  O  O17  1  0.04943500  0.08348100  0.63087500  1
  O  O18  1  0.94116700  0.07752700  0.52085400  1
  O  O19  1  0.14011200  0.08202500  0.54344500  1
  O  O20  1  0.03547300  0.07755400  0.43113500  1
  O  O21  1  0.04690200  0.89838300  0.44879000  1
  O  O22  1  0.94148600  0.89541600  0.33886600  1
  O  O23  1  0.95383700  0.90107000  0.53979400  1
  O  O24  1  0.84927400  0.89396800  0.42516800  1
  O  O25  1  0.89386800  0.43067000  0.71382100  1
  O  O26  1  0.75861200  0.54891300  0.58194200  1
