# generated using pymatgen
data_ZnH22C27NO4
_symmetry_space_group_name_H-M   'P 1'
_cell_length_a   9.65570400
_cell_length_b   17.17232100
_cell_length_c   17.19902700
_cell_angle_alpha   90.24822500
_cell_angle_beta   86.23617100
_cell_angle_gamma   93.77147000
_symmetry_Int_Tables_number   1
_chemical_formula_structural   ZnH22C27NO4
_chemical_formula_sum   'Zn2 H44 C54 N2 O8'
_cell_volume   2839.47160779
_cell_formula_units_Z   2
loop_
 _symmetry_equiv_pos_site_id
 _symmetry_equiv_pos_as_xyz
  1  'x, y, z'
loop_
 _atom_site_type_symbol
 _atom_site_label
 _atom_site_symmetry_multiplicity
 _atom_site_fract_x
 _atom_site_fract_y
 _atom_site_fract_z
 _atom_site_occupancy
  Zn  Zn1  1  0.34595400  0.48722300  0.48974900  1
  Zn  Zn2  1  0.65407300  0.51375100  0.50982900  1
  H  H1  1  0.69443700  0.25887900  0.54468200  1
  H  H2  1  0.30559000  0.74209200  0.45489900  1
  H  H3  1  0.61751100  0.74200600  0.61913900  1
  H  H4  1  0.38251600  0.25897000  0.38044100  1
  H  H5  1  0.55144200  0.00832600  0.58199900  1
  H  H6  1  0.44858100  0.99264600  0.41758100  1
  H  H7  1  0.36343400  0.11684100  0.38112100  1
  H  H8  1  0.63658900  0.88413400  0.61845800  1
  H  H9  1  0.32179100  0.88400500  0.45480100  1
  H  H10  1  0.67823100  0.11696900  0.54477800  1
  H  H11  1  0.62743500  0.41908200  0.74156100  1
  H  H12  1  0.37259300  0.58189500  0.25801700  1
  H  H13  1  0.75616100  0.47108700  0.25190100  1
  H  H14  1  0.24386100  0.52988500  0.74767700  1
  H  H15  1  0.65790000  0.49419600  0.98816800  1
  H  H16  1  0.34212500  0.50677900  0.01141000  1
  H  H17  1  0.24685100  0.54084300  0.88924400  1
  H  H18  1  0.75317100  0.46012900  0.11033400  1
  H  H19  1  0.36910500  0.57182400  0.11887400  1
  H  H20  1  0.63092200  0.42915400  0.88070400  1
  H  H21  1  0.66870800  0.78877300  0.35419700  1
  H  H22  1  0.33132800  0.21219900  0.64537900  1
  H  H23  1  0.63953500  0.66547100  0.29629600  1
  H  H24  1  0.36051500  0.33550200  0.70327400  1
  H  H25  1  0.82020200  0.58177000  0.32471800  1
  H  H26  1  0.17982900  0.41919700  0.67486000  1
  H  H27  1  0.83192500  0.81331700  0.45448500  1
  H  H28  1  0.16809800  0.18765200  0.54509800  1
  H  H29  1  0.00730200  0.51007700  0.35820500  1
  H  H30  1  0.99272700  0.49089200  0.64137300  1
  H  H31  1  0.10745700  0.68858900  0.65240500  1
  H  H32  1  0.12584400  0.79167200  0.62878100  1
  H  H33  1  0.00686900  0.75681900  0.70855200  1
  H  H34  1  0.87818600  0.78541400  0.59463800  1
  H  H35  1  0.86377900  0.68204900  0.61484800  1
  H  H36  1  0.07497800  0.67225800  0.51339000  1
  H  H37  1  0.05271900  0.77069900  0.48998200  1
  H  H38  1  0.87417900  0.20928200  0.37080900  1
  H  H39  1  0.89255100  0.31236400  0.34717900  1
  H  H40  1  0.99314500  0.24413400  0.29103400  1
  H  H41  1  0.13623400  0.31891500  0.38473000  1
  H  H42  1  0.12183800  0.21555200  0.40494700  1
  H  H43  1  0.94730100  0.23027200  0.50960400  1
  H  H44  1  0.92504700  0.32871200  0.48619100  1
  C  C1  1  0.44662400  0.47140300  0.64904200  1
  C  C2  1  0.55340100  0.52957200  0.35053600  1
  C  C3  1  0.52984100  0.35234100  0.47209200  1
  C  C4  1  0.47018500  0.64863200  0.52748600  1
  C  C5  1  0.54026700  0.26834600  0.46219400  1
  C  C6  1  0.45975800  0.73262800  0.53738400  1
  C  C7  1  0.62472200  0.22782900  0.50689200  1
  C  C8  1  0.37530100  0.77314400  0.49268600  1
  C  C9  1  0.61218300  0.14718400  0.50842700  1
  C  C10  1  0.38784000  0.85379000  0.49115200  1
  C  C11  1  0.51528200  0.10670400  0.46473200  1
  C  C12  1  0.48474100  0.89427000  0.53484700  1
  C  C13  1  0.43809100  0.14760400  0.41627100  1
  C  C14  1  0.56193200  0.85337000  0.58330800  1
  C  C15  1  0.44874700  0.22788600  0.41600400  1
  C  C16  1  0.55127700  0.77308800  0.58357500  1
  C  C17  1  0.48988700  0.02125300  0.46806900  1
  C  C18  1  0.51013500  0.97972000  0.53151000  1
  C  C19  1  0.43388900  0.47189500  0.73483700  1
  C  C20  1  0.56613700  0.52908000  0.26474100  1
  C  C21  1  0.54286900  0.44582800  0.77355500  1
  C  C22  1  0.45715700  0.55514900  0.22602200  1
  C  C23  1  0.54566800  0.45272900  0.85313100  1
  C  C24  1  0.45435800  0.54824700  0.14644700  1
  C  C25  1  0.44051300  0.48813800  0.89547700  1
  C  C26  1  0.55951100  0.51283700  0.10410000  1
  C  C27  1  0.32988400  0.51301800  0.85698700  1
  C  C28  1  0.67013900  0.48795500  0.14259100  1
  C  C29  1  0.32697500  0.50579000  0.77697400  1
  C  C30  1  0.67304800  0.49518300  0.22260400  1
  C  C31  1  0.44154400  0.49938000  0.98053800  1
  C  C32  1  0.55848100  0.50159500  0.01904000  1
  C  C33  1  0.69745200  0.66716800  0.34764600  1
  C  C34  1  0.30258600  0.33380300  0.65192800  1
  C  C35  1  0.75894800  0.60150600  0.37466100  1
  C  C36  1  0.24108400  0.39946400  0.62491600  1
  C  C37  1  0.85438500  0.61824200  0.43231700  1
  C  C38  1  0.14564400  0.38272800  0.56726100  1
  C  C39  1  0.88248800  0.69436600  0.45956600  1
  C  C40  1  0.11753800  0.30660300  0.54001500  1
  C  C41  1  0.81088800  0.75442900  0.43389300  1
  C  C42  1  0.18913800  0.24654000  0.56568800  1
  C  C43  1  0.71898800  0.74064000  0.37801800  1
  C  C44  1  0.28104400  0.26033100  0.62155900  1
  C  C45  1  0.00226100  0.50531100  0.42094800  1
  C  C46  1  0.99776700  0.49565800  0.57863000  1
  C  C47  1  0.07468700  0.44615200  0.53266500  1
  C  C48  1  0.92534200  0.55481700  0.46691200  1
  C  C49  1  0.99640400  0.71621900  0.51249000  1
  C  C50  1  0.93588000  0.73169400  0.59444900  1
  C  C51  1  0.05185000  0.74289200  0.64953200  1
  C  C52  1  0.00361900  0.28475000  0.48709200  1
  C  C53  1  0.06413900  0.26926900  0.40513400  1
  C  C54  1  0.94816600  0.25806300  0.35005400  1
  N  N1  1  0.07538500  0.45209700  0.45449300  1
  N  N2  1  0.92464300  0.54887200  0.54508500  1
  O  O1  1  0.33776000  0.46343500  0.60543900  1
  O  O2  1  0.66226600  0.53753800  0.39413900  1
  O  O3  1  0.57290800  0.48962000  0.61919200  1
  O  O4  1  0.42711700  0.51135500  0.38038600  1
  O  O5  1  0.40473400  0.37714500  0.47313000  1
  O  O6  1  0.59529200  0.62383000  0.52644700  1
  O  O7  1  0.64105100  0.39820100  0.48403400  1
  O  O8  1  0.35897400  0.60277200  0.51554500  1
