# generated using pymatgen
data_ZnH18C29NO4
_symmetry_space_group_name_H-M   'P 1'
_cell_length_a   8.51476500
_cell_length_b   13.03699200
_cell_length_c   17.44692800
_cell_angle_alpha   90.61539400
_cell_angle_beta   93.32054300
_cell_angle_gamma   86.47614200
_symmetry_Int_Tables_number   1
_chemical_formula_structural   ZnH18C29NO4
_chemical_formula_sum   'Zn2 H36 C58 N2 O8'
_cell_volume   1929.77249679
_cell_formula_units_Z   2
loop_
 _symmetry_equiv_pos_site_id
 _symmetry_equiv_pos_as_xyz
  1  'x, y, z'
loop_
 _atom_site_type_symbol
 _atom_site_label
 _atom_site_symmetry_multiplicity
 _atom_site_fract_x
 _atom_site_fract_y
 _atom_site_fract_z
 _atom_site_occupancy
  Zn  Zn1  1  0.48339100  0.49238300  0.91391500  1
  Zn  Zn2  1  0.49788600  0.51086500  0.08449400  1
  H  H1  1  0.99966100  0.57266900  0.96995400  1
  H  H2  1  0.98152500  0.43058800  0.02844300  1
  H  H3  1  0.70043200  0.83190500  0.01177800  1
  H  H4  1  0.28083600  0.17136900  0.98665800  1
  H  H5  1  0.66835600  0.98394400  0.98609200  1
  H  H6  1  0.31292000  0.01930300  0.01228800  1
  H  H7  1  0.63879200  0.16433400  0.99612600  1
  H  H8  1  0.34247200  0.83889800  0.00227300  1
  H  H9  1  0.48243700  0.64619900  0.81185700  1
  H  H10  1  0.49247300  0.35742000  0.18631500  1
  H  H11  1  0.49803700  0.74204300  0.70094100  1
  H  H12  1  0.48041500  0.26147700  0.29715100  1
  H  H13  1  0.47310700  0.23721400  0.67826900  1
  H  H14  1  0.53334300  0.76399000  0.32118200  1
  H  H15  1  0.54723700  0.84726800  0.44300500  1
  H  H16  1  0.48063100  0.15202700  0.55720600  1
  H  H17  1  0.47157900  0.32466400  0.80140400  1
  H  H18  1  0.52011200  0.67787400  0.19751700  1
  H  H19  1  0.45350200  0.88390200  0.63331400  1
  H  H20  1  0.55039300  0.93573300  0.55604200  1
  H  H21  1  0.73721700  0.78743100  0.66715800  1
  H  H22  1  0.83491400  0.96926200  0.57650300  1
  H  H23  1  0.83327800  0.83897800  0.53851700  1
  H  H24  1  0.95724500  0.86755100  0.62266300  1
  H  H25  1  0.66955600  0.02054000  0.68320400  1
  H  H26  1  0.82226600  0.94480500  0.73738300  1
  H  H27  1  0.61747900  0.92239600  0.74809900  1
  H  H28  1  0.39541700  0.13162900  0.35940100  1
  H  H29  1  0.46891200  0.06458700  0.44363600  1
  H  H30  1  0.69884700  0.17704400  0.35097500  1
  H  H31  1  0.73347600  0.98304400  0.44814500  1
  H  H32  1  0.76738700  0.11128500  0.48448500  1
  H  H33  1  0.88716900  0.05444700  0.41102800  1
  H  H34  1  0.58052000  0.96094700  0.32445000  1
  H  H35  1  0.75358900  0.00851300  0.28466400  1
  H  H36  1  0.56069200  0.06680200  0.25769900  1
  C  C1  1  0.11558900  0.71002700  0.98790600  1
  C  C2  1  0.86565000  0.29320800  0.01051100  1
  C  C3  1  0.98507700  0.65400300  0.97988500  1
  C  C4  1  0.99613800  0.34925400  0.01851900  1
  C  C5  1  0.83897800  0.69871800  0.99158500  1
  C  C6  1  0.14224700  0.30455800  0.00681700  1
  C  C7  1  0.81803600  0.80300100  0.00118900  1
  C  C8  1  0.16322200  0.20026800  0.99723100  1
  C  C9  1  0.94516900  0.86457000  0.99756900  1
  C  C10  1  0.03610100  0.13868300  0.00084600  1
  C  C11  1  0.09580800  0.81643600  0.99567700  1
  C  C12  1  0.88545500  0.18680500  0.00273800  1
  C  C13  1  0.92493800  0.97236800  0.99790100  1
  C  C14  1  0.05634000  0.03088200  0.00050900  1
  C  C15  1  0.20569800  0.98025500  0.00490400  1
  C  C16  1  0.77557800  0.02298900  0.99349400  1
  C  C17  1  0.22462400  0.87488200  0.00104000  1
  C  C18  1  0.75664500  0.12835700  0.99736500  1
  C  C19  1  0.27382000  0.36967900  0.00296800  1
  C  C20  1  0.70738000  0.63362300  0.99543400  1
  C  C21  1  0.26785900  0.64985100  0.99167100  1
  C  C22  1  0.71336400  0.35335600  0.00673800  1
  C  C23  1  0.48062100  0.57631400  0.77806600  1
  C  C24  1  0.49819200  0.42703900  0.22022500  1
  C  C25  1  0.47433100  0.39723500  0.77226300  1
  C  C26  1  0.51449400  0.60541300  0.22647500  1
  C  C27  1  0.49905100  0.67433900  0.66496700  1
  C  C28  1  0.48904000  0.32831800  0.33363500  1
  C  C29  1  0.48777600  0.58100500  0.69965400  1
  C  C30  1  0.49771400  0.42183600  0.29887800  1
  C  C31  1  0.48703700  0.49239900  0.65675300  1
  C  C32  1  0.50621900  0.50981700  0.34211200  1
  C  C33  1  0.47909400  0.39974200  0.69304800  1
  C  C34  1  0.51533400  0.60239600  0.30588500  1
  C  C35  1  0.47840800  0.31028300  0.65012000  1
  C  C36  1  0.52491900  0.69114800  0.34919000  1
  C  C37  1  0.53304100  0.77232300  0.55065300  1
  C  C38  1  0.48896300  0.22762100  0.44937200  1
  C  C39  1  0.51294300  0.67950000  0.58639100  1
  C  C40  1  0.49159600  0.32184400  0.41292500  1
  C  C41  1  0.50618200  0.59021700  0.54289800  1
  C  C42  1  0.49595700  0.41128300  0.45633100  1
  C  C43  1  0.53524200  0.77533800  0.47156200  1
  C  C44  1  0.48399900  0.22475200  0.52836400  1
  C  C45  1  0.52340800  0.68678800  0.42829600  1
  C  C46  1  0.48420600  0.31425000  0.57117300  1
  C  C47  1  0.49437800  0.49674900  0.57819000  1
  C  C48  1  0.50428400  0.50501400  0.42089700  1
  C  C49  1  0.49167400  0.40739700  0.53518200  1
  C  C50  1  0.51160300  0.59399100  0.46410100  1
  C  C51  1  0.55299300  0.86965100  0.59559100  1
  C  C52  1  0.71025100  0.86465200  0.64233700  1
  C  C53  1  0.84220100  0.88668500  0.59141600  1
  C  C54  1  0.70444500  0.94334400  0.70690800  1
  C  C55  1  0.49131100  0.12855200  0.40520500  1
  C  C56  1  0.65125800  0.10598300  0.37171300  1
  C  C57  1  0.76731300  0.06060400  0.43303100  1
  C  C58  1  0.63541000  0.03053500  0.30536600  1
  N  N1  1  0.47565400  0.48539600  0.81335300  1
  N  N2  1  0.50579300  0.51781300  0.18506400  1
  O  O1  1  0.32824500  0.41086300  0.06703500  1
  O  O2  1  0.65290200  0.59247100  0.93137500  1
  O  O3  1  0.32269500  0.39076200  0.93529500  1
  O  O4  1  0.65858100  0.61248000  0.06310200  1
  O  O5  1  0.31264800  0.60397200  0.92835400  1
  O  O6  1  0.66851200  0.39921200  0.07003000  1
  O  O7  1  0.32994300  0.62350200  0.06001200  1
  O  O8  1  0.65133900  0.37976200  0.93842000  1
