# generated using pymatgen
data_ZnH15C16NO4
_symmetry_space_group_name_H-M   'P 1'
_cell_length_a   13.16314000
_cell_length_b   10.94809500
_cell_length_c   9.79167000
_cell_angle_alpha   90.00405300
_cell_angle_beta   95.39625400
_cell_angle_gamma   90.00831000
_symmetry_Int_Tables_number   1
_chemical_formula_structural   ZnH15C16NO4
_chemical_formula_sum   'Zn2 H30 C32 N2 O8'
_cell_volume   1404.83655391
_cell_formula_units_Z   2
loop_
 _symmetry_equiv_pos_site_id
 _symmetry_equiv_pos_as_xyz
  1  'x, y, z'
loop_
 _atom_site_type_symbol
 _atom_site_label
 _atom_site_symmetry_multiplicity
 _atom_site_fract_x
 _atom_site_fract_y
 _atom_site_fract_z
 _atom_site_occupancy
  Zn  Zn1  1  0.50110800  0.49758100  0.64225200  1
  Zn  Zn2  1  0.49245200  0.49473000  0.33029500  1
  H  H1  1  0.80542300  0.65433500  0.64684900  1
  H  H2  1  0.18542000  0.34995300  0.30938000  1
  H  H3  1  0.00722500  0.31711900  0.29016700  1
  H  H4  1  0.98371700  0.68510800  0.67133500  1
  H  H5  1  0.51052300  0.10932400  0.27307200  1
  H  H6  1  0.48679900  0.88272100  0.70130400  1
  H  H7  1  0.50694500  0.88870900  0.26752500  1
  H  H8  1  0.48851100  0.10354600  0.70604400  1
  H  H9  1  0.60300300  0.62286800  0.14451900  1
  H  H10  1  0.38741700  0.37377600  0.82699100  1
  H  H11  1  0.94044000  0.18521100  0.44703600  1
  H  H12  1  0.83574500  0.20707900  0.55084800  1
  H  H13  1  0.81747500  0.12023600  0.39382500  1
  H  H14  1  0.73943300  0.31372100  0.35945400  1
  H  H15  1  0.84237300  0.31093300  0.25831500  1
  H  H16  1  0.11446200  0.61095300  0.81928800  1
  H  H17  1  0.23250700  0.53859900  0.78798600  1
  H  H18  1  0.23141700  0.69759800  0.83693200  1
  H  H19  1  0.24916500  0.68857000  0.59400400  1
  H  H20  1  0.12918600  0.74784800  0.61427100  1
  H  H21  1  0.76358600  0.60572400  0.04968200  1
  H  H22  1  0.76169300  0.51607800  0.89416400  1
  H  H23  1  0.80909600  0.67138600  0.89845100  1
  H  H24  1  0.63827400  0.66437000  0.77729900  1
  H  H25  1  0.63497100  0.74724100  0.93388100  1
  H  H26  1  0.34198400  0.19066400  0.92922400  1
  H  H27  1  0.45608300  0.18700700  0.04786700  1
  H  H28  1  0.33477300  0.13775000  0.10211700  1
  H  H29  1  0.35371200  0.33214900  0.19644500  1
  H  H30  1  0.27374400  0.36014000  0.04127600  1
  C  C1  1  0.49835600  0.25697100  0.49098900  1
  C  C2  1  0.49549500  0.73529400  0.48175900  1
  C  C3  1  0.29707000  0.49600400  0.47089400  1
  C  C4  1  0.69639400  0.49602100  0.50155000  1
  C  C5  1  0.80810800  0.50376600  0.51042900  1
  C  C6  1  0.18516500  0.48897300  0.46139200  1
  C  C7  1  0.03633000  0.38503300  0.36309000  1
  C  C8  1  0.95605700  0.61221600  0.60419100  1
  C  C9  1  0.13947400  0.40491400  0.37150100  1
  C  C10  1  0.85263300  0.59423800  0.59241000  1
  C  C11  1  0.12513600  0.56086500  0.53975400  1
  C  C12  1  0.86911200  0.42710100  0.43874500  1
  C  C13  1  0.01898500  0.54148600  0.52992600  1
  C  C14  1  0.97455600  0.45035900  0.44429300  1
  C  C15  1  0.50412600  0.06066800  0.36760000  1
  C  C16  1  0.49173300  0.93142900  0.60619400  1
  C  C17  1  0.50243500  0.93479300  0.36436000  1
  C  C18  1  0.49283000  0.05740200  0.60920300  1
  C  C19  1  0.49610900  0.86931900  0.48365600  1
  C  C20  1  0.49867200  0.12287400  0.48971000  1
  C  C21  1  0.55563200  0.56567900  0.07481900  1
  C  C22  1  0.43690000  0.42774500  0.89745300  1
  C  C23  1  0.56680700  0.57065100  0.93606900  1
  C  C24  1  0.42805800  0.41967800  0.03669500  1
  C  C25  1  0.82334200  0.31522600  0.36600900  1
  C  C26  1  0.85713400  0.19997900  0.44425700  1
  C  C27  1  0.17413300  0.66244700  0.62697900  1
  C  C28  1  0.18870800  0.62493300  0.77711400  1
  C  C29  1  0.64538800  0.65540600  0.88944800  1
  C  C30  1  0.75164700  0.60889800  0.93618800  1
  C  C31  1  0.35134300  0.33266500  0.08423200  1
  C  C32  1  0.37267000  0.20377700  0.03758200  1
  N  N1  1  0.50614800  0.50159400  0.84744000  1
  N  N2  1  0.48731400  0.49066400  0.12507800  1
  O  O1  1  0.50059400  0.31480200  0.60894700  1
  O  O2  1  0.49296300  0.67753100  0.36363000  1
  O  O3  1  0.49522800  0.31364000  0.37275800  1
  O  O4  1  0.49844100  0.67863800  0.59986200  1
  O  O5  1  0.34817700  0.49551500  0.59260900  1
  O  O6  1  0.64537300  0.49719400  0.37975900  1
  O  O7  1  0.34152700  0.49521600  0.35638800  1
  O  O8  1  0.65206100  0.49731700  0.61626000  1
