# generated using pymatgen
data_Cu3H27C42ClO12
_symmetry_space_group_name_H-M   'P 1'
_cell_length_a   43.53294700
_cell_length_b   30.08366900
_cell_length_c   29.87337300
_cell_angle_alpha   90.00000000
_cell_angle_beta   132.99878100
_cell_angle_gamma   90.00000000
_symmetry_Int_Tables_number   1
_chemical_formula_structural   Cu3H27C42ClO12
_chemical_formula_sum   'Cu12 H108 C168 Cl4 O48'
_cell_volume   28613.38320693
_cell_formula_units_Z   4
loop_
 _symmetry_equiv_pos_site_id
 _symmetry_equiv_pos_as_xyz
  1  'x, y, z'
loop_
 _atom_site_type_symbol
 _atom_site_label
 _atom_site_symmetry_multiplicity
 _atom_site_fract_x
 _atom_site_fract_y
 _atom_site_fract_z
 _atom_site_occupancy
  Cu  Cu1  1  0.50000000  0.95535000  0.50000000  1
  Cu  Cu2  1  0.00000000  0.45535000  0.50000000  1
  Cu  Cu3  1  0.50000000  0.04221100  0.50000000  1
  Cu  Cu4  1  0.00000000  0.54221100  0.50000000  1
  Cu  Cu5  1  0.99935300  0.00042300  0.04394400  1
  Cu  Cu6  1  0.00064700  0.00042300  0.95605600  1
  Cu  Cu7  1  0.49935300  0.50042300  0.04394400  1
  Cu  Cu8  1  0.50064700  0.50042300  0.95605600  1
  Cu  Cu9  1  0.45913000  0.00042800  0.95690100  1
  Cu  Cu10  1  0.54087000  0.00042800  0.04309900  1
  Cu  Cu11  1  0.95913000  0.50042800  0.95690100  1
  Cu  Cu12  1  0.04087000  0.50042800  0.04309900  1
  H  H1  1  0.21255700  0.95514200  0.27086200  1
  H  H2  1  0.78744300  0.95514200  0.72913800  1
  H  H3  1  0.71255700  0.45514200  0.27086200  1
  H  H4  1  0.28744300  0.45514200  0.72913800  1
  H  H5  1  0.28308900  0.96184500  0.34628200  1
  H  H6  1  0.71691100  0.96184500  0.65371800  1
  H  H7  1  0.78308900  0.46184500  0.34628200  1
  H  H8  1  0.21691100  0.46184500  0.65371800  1
  H  H9  1  0.28413300  0.07070200  0.28837600  1
  H  H10  1  0.71586700  0.07070200  0.71162400  1
  H  H11  1  0.78413300  0.57070200  0.28837600  1
  H  H12  1  0.21586700  0.57070200  0.71162400  1
  H  H13  1  0.28730100  0.04431500  0.34570700  1
  H  H14  1  0.71269900  0.04431500  0.65429200  1
  H  H15  1  0.78730100  0.54431500  0.34570700  1
  H  H16  1  0.21269900  0.54431500  0.65429200  1
  H  H17  1  0.21667700  0.03764800  0.27918500  1
  H  H18  1  0.78332300  0.03764800  0.72081500  1
  H  H19  1  0.71667700  0.53764800  0.27918500  1
  H  H20  1  0.28332300  0.53764800  0.72081500  1
  H  H21  1  0.21349700  0.07066200  0.22566200  1
  H  H22  1  0.78650300  0.07066200  0.77433800  1
  H  H23  1  0.71349700  0.57066200  0.22566200  1
  H  H24  1  0.28650300  0.57066200  0.77433800  1
  H  H25  1  0.28441400  0.96557500  0.22319800  1
  H  H26  1  0.71558600  0.96557500  0.77680200  1
  H  H27  1  0.78441400  0.46557500  0.22319800  1
  H  H28  1  0.21558600  0.46557500  0.77680200  1
  H  H29  1  0.28853300  0.02530100  0.22326200  1
  H  H30  1  0.71146700  0.02530100  0.77673800  1
  H  H31  1  0.78853300  0.52530100  0.22326200  1
  H  H32  1  0.21146700  0.52530100  0.77673800  1
  H  H33  1  0.21394700  0.97322500  0.14843600  1
  H  H34  1  0.78605300  0.97322500  0.85156400  1
  H  H35  1  0.71394700  0.47322500  0.14843600  1
  H  H36  1  0.28605300  0.47322500  0.85156400  1
  H  H37  1  0.28734100  0.92845300  0.30048700  1
  H  H38  1  0.71265900  0.92845300  0.69951300  1
  H  H39  1  0.78734100  0.42845300  0.30048700  1
  H  H40  1  0.21265900  0.42845300  0.69951300  1
  H  H41  1  0.21687600  0.92834900  0.22126500  1
  H  H42  1  0.78312400  0.92834900  0.77873500  1
  H  H43  1  0.71687600  0.42834900  0.22126500  1
  H  H44  1  0.28312400  0.42834900  0.77873500  1
  H  H45  1  0.21798400  0.03298100  0.15611800  1
  H  H46  1  0.78201600  0.03298100  0.84388200  1
  H  H47  1  0.71798400  0.53298100  0.15611800  1
  H  H48  1  0.28201600  0.53298100  0.84388200  1
  H  H49  1  0.51470200  0.06921200  0.73391300  1
  H  H50  1  0.48529700  0.06921200  0.26608700  1
  H  H51  1  0.01470200  0.56921200  0.73391300  1
  H  H52  1  0.98529700  0.56921200  0.26608700  1
  H  H53  1  0.51342200  0.06902400  0.65190400  1
  H  H54  1  0.48657800  0.06902400  0.34809600  1
  H  H55  1  0.01342200  0.56902400  0.65190400  1
  H  H56  1  0.98657800  0.56902400  0.34809600  1
  H  H57  1  0.49234800  0.92840500  0.63169800  1
  H  H58  1  0.50765200  0.92840500  0.36830200  1
  H  H59  1  0.99234800  0.42840500  0.63169800  1
  H  H60  1  0.00765200  0.42840500  0.36830200  1
  H  H61  1  0.49547500  0.92840500  0.71564100  1
  H  H62  1  0.50452500  0.92840500  0.28435800  1
  H  H63  1  0.99547500  0.42840500  0.71564100  1
  H  H64  1  0.00452500  0.42840500  0.28435800  1
  H  H65  1  0.45517100  0.95295800  0.73643000  1
  H  H66  1  0.54482900  0.95295800  0.26356900  1
  H  H67  1  0.95517100  0.45295800  0.73643000  1
  H  H68  1  0.04482900  0.45295800  0.26356900  1
  H  H69  1  0.45601800  0.95370600  0.81781700  1
  H  H70  1  0.54398200  0.95370600  0.18218300  1
  H  H71  1  0.95601800  0.45370600  0.81781700  1
  H  H72  1  0.04398200  0.45370600  0.18218300  1
  H  H73  1  0.55673300  0.04584300  0.83509400  1
  H  H74  1  0.44326700  0.04584300  0.16490600  1
  H  H75  1  0.05673300  0.54584300  0.83509400  1
  H  H76  1  0.94326700  0.54584300  0.16490600  1
  H  H77  1  0.98924900  0.77978600  0.91874400  1
  H  H78  1  0.01075100  0.77978600  0.08125500  1
  H  H79  1  0.48924900  0.27978600  0.91874400  1
  H  H80  1  0.51075100  0.27978600  0.08125500  1
  H  H81  1  0.98922800  0.86044100  0.91859200  1
  H  H82  1  0.01077200  0.86044100  0.08140800  1
  H  H83  1  0.48922800  0.36044100  0.91859200  1
  H  H84  1  0.51077200  0.36044100  0.08140800  1
  H  H85  1  0.55458300  0.21978900  0.09580900  1
  H  H86  1  0.44541700  0.21978900  0.90419000  1
  H  H87  1  0.05458300  0.71978900  0.09580900  1
  H  H88  1  0.94541700  0.71978900  0.90419000  1
  H  H89  1  0.55467100  0.13912300  0.09598000  1
  H  H90  1  0.44532900  0.13912300  0.90402000  1
  H  H91  1  0.05467100  0.63912300  0.09598000  1
  H  H92  1  0.94532900  0.63912300  0.90402000  1
  H  H93  1  0.01881100  0.22104700  0.95006500  1
  H  H94  1  0.98118900  0.22104700  0.04993400  1
  H  H95  1  0.51881100  0.72104700  0.95006500  1
  H  H96  1  0.48118900  0.72104700  0.04993400  1
  H  H97  1  0.01885300  0.14039100  0.94998600  1
  H  H98  1  0.98114600  0.14039100  0.05001300  1
  H  H99  1  0.51885300  0.64039100  0.94998600  1
  H  H100  1  0.48114600  0.64039100  0.05001300  1
  H  H101  1  0.44107800  0.78105400  0.97562400  1
  H  H102  1  0.55892200  0.78105400  0.02437600  1
  H  H103  1  0.94107800  0.28105400  0.97562400  1
  H  H104  1  0.05892200  0.28105400  0.02437600  1
  H  H105  1  0.44098200  0.86171100  0.97561000  1
  H  H106  1  0.55901700  0.86171100  0.02439000  1
  H  H107  1  0.94098200  0.36171100  0.97561000  1
  H  H108  1  0.05901700  0.36171100  0.02439000  1
  C  C1  1  0.50146900  0.99875400  0.58609700  1
  C  C2  1  0.49853100  0.99875400  0.41390300  1
  C  C3  1  0.00146900  0.49875400  0.58609700  1
  C  C4  1  0.99853100  0.49875400  0.41390300  1
  C  C5  1  0.42025600  0.99881700  0.42210100  1
  C  C6  1  0.57974400  0.99881700  0.57789900  1
  C  C7  1  0.92025600  0.49881700  0.42210100  1
  C  C8  1  0.07974400  0.49881700  0.57789900  1
  C  C9  1  0.27389400  0.95934200  0.30143000  1
  C  C10  1  0.72610600  0.95934200  0.69857000  1
  C  C11  1  0.77389400  0.45934200  0.30143000  1
  C  C12  1  0.22610600  0.45934200  0.69857000  1
  C  C13  1  0.27424300  0.04140000  0.29844700  1
  C  C14  1  0.72575700  0.04140000  0.70155300  1
  C  C15  1  0.77424300  0.54140000  0.29844700  1
  C  C16  1  0.22575700  0.54140000  0.70155300  1
  C  C17  1  0.22663100  0.03988200  0.25357900  1
  C  C18  1  0.77336900  0.03988200  0.74642100  1
  C  C19  1  0.72663100  0.53988200  0.25357900  1
  C  C20  1  0.27336900  0.53988200  0.74642100  1
  C  C21  1  0.12621300  0.00020100  0.12718600  1
  C  C22  1  0.87378700  0.00020100  0.87281400  1
  C  C23  1  0.62621300  0.50020100  0.12718600  1
  C  C24  1  0.37378700  0.50020100  0.87281400  1
  C  C25  1  0.29051200  0.99934800  0.29262100  1
  C  C26  1  0.70948800  0.99934800  0.70737900  1
  C  C27  1  0.79051200  0.49934800  0.29262100  1
  C  C28  1  0.20948800  0.49934800  0.70737900  1
  C  C29  1  0.22634200  0.95780000  0.25058200  1
  C  C30  1  0.77365800  0.95780000  0.74941800  1
  C  C31  1  0.72634200  0.45780000  0.25058200  1
  C  C32  1  0.27365800  0.45780000  0.74941800  1
  C  C33  1  0.21054600  0.99968700  0.21218100  1
  C  C34  1  0.78945400  0.99968700  0.78781900  1
  C  C35  1  0.71054600  0.49968700  0.21218100  1
  C  C36  1  0.28945400  0.49968700  0.78781900  1
  C  C37  1  0.22725700  0.00117100  0.18127000  1
  C  C38  1  0.77274300  0.00117100  0.81873000  1
  C  C39  1  0.72725700  0.50117100  0.18127000  1
  C  C40  1  0.27274300  0.50117100  0.81873000  1
  C  C41  1  0.27480700  0.99750300  0.22911600  1
  C  C42  1  0.72519300  0.99750300  0.77088400  1
  C  C43  1  0.77480700  0.49750300  0.22911600  1
  C  C44  1  0.22519300  0.49750300  0.77088400  1
  C  C45  1  0.16425200  0.99991800  0.16556500  1
  C  C46  1  0.83574700  0.99991800  0.83443400  1
  C  C47  1  0.66425200  0.49991800  0.16556500  1
  C  C48  1  0.33574700  0.49991800  0.83443400  1
  C  C49  1  0.33680600  0.99916200  0.33910300  1
  C  C50  1  0.66319300  0.99916200  0.66089700  1
  C  C51  1  0.83680600  0.49916200  0.33910300  1
  C  C52  1  0.16319300  0.49916200  0.66089700  1
  C  C53  1  0.37485000  0.99901300  0.37708500  1
  C  C54  1  0.62515000  0.99901300  0.62291500  1
  C  C55  1  0.87485000  0.49901300  0.37708500  1
  C  C56  1  0.12515000  0.49901300  0.62291500  1
  C  C57  1  0.51065400  0.03795600  0.71261800  1
  C  C58  1  0.48934600  0.03795600  0.28738200  1
  C  C59  1  0.01065400  0.53795600  0.71261800  1
  C  C60  1  0.98934600  0.53795600  0.28738200  1
  C  C61  1  0.50952400  0.03789600  0.66557500  1
  C  C62  1  0.49047600  0.03789600  0.33442500  1
  C  C63  1  0.00952400  0.53789600  0.66557500  1
  C  C64  1  0.99047600  0.53789600  0.33442500  1
  C  C65  1  0.50270800  0.99870600  0.63597100  1
  C  C66  1  0.49729200  0.99870600  0.36402900  1
  C  C67  1  0.00270800  0.49870600  0.63597100  1
  C  C68  1  0.99729200  0.49870600  0.36402900  1
  C  C69  1  0.49727200  0.95953000  0.65384900  1
  C  C70  1  0.50272800  0.95953000  0.34615100  1
  C  C71  1  0.99727200  0.45953000  0.65384900  1
  C  C72  1  0.00272800  0.45953000  0.34615100  1
  C  C73  1  0.49876200  0.95956300  0.70126900  1
  C  C74  1  0.50123800  0.95956300  0.29873100  1
  C  C75  1  0.99876200  0.45956300  0.70126900  1
  C  C76  1  0.00123800  0.45956300  0.29873100  1
  C  C77  1  0.50537300  0.99878800  0.73074500  1
  C  C78  1  0.49462700  0.99878800  0.26925500  1
  C  C79  1  0.00537300  0.49878800  0.73074500  1
  C  C80  1  0.99462700  0.49878800  0.26925500  1
  C  C81  1  0.47816800  0.97330700  0.77622900  1
  C  C82  1  0.52183200  0.97330700  0.22377100  1
  C  C83  1  0.97816800  0.47330700  0.77622900  1
  C  C84  1  0.02183200  0.47330700  0.22377100  1
  C  C85  1  0.47824500  0.97436300  0.82219500  1
  C  C86  1  0.52175500  0.97436300  0.17780500  1
  C  C87  1  0.97824500  0.47436300  0.82219500  1
  C  C88  1  0.02175500  0.47436300  0.17780500  1
  C  C89  1  0.50628300  0.00108300  0.87288100  1
  C  C90  1  0.49371700  0.00108300  0.12711900  1
  C  C91  1  0.00628300  0.50108300  0.87288100  1
  C  C92  1  0.99371700  0.50108300  0.12711900  1
  C  C93  1  0.53443900  0.02723300  0.87695500  1
  C  C94  1  0.46556100  0.02723300  0.12304500  1
  C  C95  1  0.03443900  0.52723300  0.87695500  1
  C  C96  1  0.96556100  0.52723300  0.12304500  1
  C  C97  1  0.53427600  0.02575400  0.83082200  1
  C  C98  1  0.46572400  0.02575400  0.16917700  1
  C  C99  1  0.03427600  0.52575400  0.83082200  1
  C  C100  1  0.96572400  0.52575400  0.16917700  1
  C  C101  1  0.50618200  0.99901900  0.78034500  1
  C  C102  1  0.49381800  0.99901900  0.21965500  1
  C  C103  1  0.00618200  0.49901900  0.78034500  1
  C  C104  1  0.99381800  0.49901900  0.21965500  1
  C  C105  1  0.00000000  0.91498500  0.00000000  1
  C  C106  1  0.50000000  0.41498500  0.00000000  1
  C  C107  1  0.08081200  0.00067800  0.08131100  1
  C  C108  1  0.91918800  0.00067800  0.91868900  1
  C  C109  1  0.58081200  0.50067800  0.08131100  1
  C  C110  1  0.41918800  0.50067800  0.91868900  1
  C  C111  1  0.00000000  0.08585500  0.00000000  1
  C  C112  1  0.50000000  0.58585500  0.00000000  1
  C  C113  1  0.50000000  0.08462100  0.00000000  1
  C  C114  1  0.00000000  0.58462100  0.00000000  1
  C  C115  1  0.50434100  0.00123100  0.91979300  1
  C  C116  1  0.49565900  0.00123100  0.08020700  1
  C  C117  1  0.00434100  0.50123100  0.91979300  1
  C  C118  1  0.99565900  0.50123100  0.08020700  1
  C  C119  1  0.50000000  0.91623600  0.00000000  1
  C  C120  1  0.00000000  0.41623600  0.00000000  1
  C  C121  1  0.99364500  0.79730600  0.95434400  1
  C  C122  1  0.00635500  0.79730600  0.04565600  1
  C  C123  1  0.49364500  0.29730600  0.95434400  1
  C  C124  1  0.50635500  0.29730600  0.04565600  1
  C  C125  1  0.99404400  0.84312000  0.95464100  1
  C  C126  1  0.00595600  0.84312000  0.04535800  1
  C  C127  1  0.49404400  0.34312000  0.95464100  1
  C  C128  1  0.50595600  0.34312000  0.04535800  1
  C  C129  1  0.00000000  0.86628400  0.00000000  1
  C  C130  1  0.50000000  0.36628400  0.00000000  1
  C  C131  1  0.00000000  0.77415100  0.00000000  1
  C  C132  1  0.50000000  0.27415100  0.00000000  1
  C  C133  1  0.53027100  0.20226900  0.05359600  1
  C  C134  1  0.46972900  0.20226900  0.94640400  1
  C  C135  1  0.03027100  0.70226900  0.05359600  1
  C  C136  1  0.96972900  0.70226900  0.94640400  1
  C  C137  1  0.53053200  0.15645700  0.05351300  1
  C  C138  1  0.46946800  0.15645700  0.94648700  1
  C  C139  1  0.03053200  0.65645700  0.05351300  1
  C  C140  1  0.96946800  0.65645700  0.94648700  1
  C  C141  1  0.50000000  0.13330400  0.00000000  1
  C  C142  1  0.00000000  0.63330400  0.00000000  1
  C  C143  1  0.50000000  0.22542300  0.00000000  1
  C  C144  1  0.00000000  0.72542300  0.00000000  1
  C  C145  1  0.01084600  0.20353000  0.97257000  1
  C  C146  1  0.98915300  0.20353000  0.02743000  1
  C  C147  1  0.51084600  0.70353000  0.97257000  1
  C  C148  1  0.48915300  0.70353000  0.02743000  1
  C  C149  1  0.01046800  0.15771600  0.97204600  1
  C  C150  1  0.98953200  0.15771600  0.02795400  1
  C  C151  1  0.51046800  0.65771600  0.97204600  1
  C  C152  1  0.48953200  0.65771600  0.02795400  1
  C  C153  1  0.00000000  0.13455400  0.00000000  1
  C  C154  1  0.50000000  0.63455400  0.00000000  1
  C  C155  1  0.00000000  0.22668600  0.00000000  1
  C  C156  1  0.50000000  0.72668600  0.00000000  1
  C  C157  1  0.46727300  0.79857100  0.98689200  1
  C  C158  1  0.53272700  0.79857100  0.01310700  1
  C  C159  1  0.96727300  0.29857100  0.98689200  1
  C  C160  1  0.03272700  0.29857100  0.01310700  1
  C  C161  1  0.46705600  0.84438400  0.98631000  1
  C  C162  1  0.53294400  0.84438400  0.01369000  1
  C  C163  1  0.96705600  0.34438400  0.98631000  1
  C  C164  1  0.03294400  0.34438400  0.01369000  1
  C  C165  1  0.50000000  0.86754300  0.00000000  1
  C  C166  1  0.00000000  0.36754300  0.00000000  1
  C  C167  1  0.50000000  0.77541500  0.00000000  1
  C  C168  1  0.00000000  0.27541500  0.00000000  1
  Cl  Cl1  1  0.56912800  0.06503500  0.93674300  1
  Cl  Cl2  1  0.43087200  0.06503500  0.06325700  1
  Cl  Cl3  1  0.06912800  0.56503500  0.93674300  1
  Cl  Cl4  1  0.93087200  0.56503500  0.06325700  1
  O  O1  1  0.48949500  0.96210500  0.55358300  1
  O  O2  1  0.51050500  0.96210500  0.44641700  1
  O  O3  1  0.98949500  0.46210500  0.55358300  1
  O  O4  1  0.01050500  0.46210500  0.44641700  1
  O  O5  1  0.51256900  0.03545900  0.57611200  1
  O  O6  1  0.48743100  0.03545900  0.42388800  1
  O  O7  1  0.01256900  0.53545900  0.57611200  1
  O  O8  1  0.98743100  0.53545900  0.42388800  1
  O  O9  1  0.43985400  0.96211100  0.42902100  1
  O  O10  1  0.56014600  0.96211100  0.57097900  1
  O  O11  1  0.93985400  0.46211100  0.42902100  1
  O  O12  1  0.06014600  0.46211100  0.57097900  1
  O  O13  1  0.44024400  0.03546700  0.45401300  1
  O  O14  1  0.55975500  0.03546700  0.54598700  1
  O  O15  1  0.94024400  0.53546700  0.45401300  1
  O  O16  1  0.05975500  0.53546700  0.54598700  1
  O  O17  1  0.99817100  0.93579100  0.03676900  1
  O  O18  1  0.00182900  0.93579100  0.96323100  1
  O  O19  1  0.49817100  0.43579100  0.03676900  1
  O  O20  1  0.50182900  0.43579100  0.96323100  1
  O  O21  1  0.06052000  0.99922400  0.09938900  1
  O  O22  1  0.93948000  0.99922400  0.90061100  1
  O  O23  1  0.56052000  0.49922400  0.09938900  1
  O  O24  1  0.43948000  0.49922400  0.90061100  1
  O  O25  1  0.06166000  0.99827900  0.02343100  1
  O  O26  1  0.93834000  0.99827900  0.97656900  1
  O  O27  1  0.56166000  0.49827900  0.02343100  1
  O  O28  1  0.43834000  0.49827900  0.97656900  1
  O  O29  1  0.99725100  0.06501300  0.03570000  1
  O  O30  1  0.00274900  0.06501300  0.96430000  1
  O  O31  1  0.49725100  0.56501300  0.03570000  1
  O  O32  1  0.50274900  0.56501300  0.96430000  1
  O  O33  1  0.46623800  0.06374500  0.95160400  1
  O  O34  1  0.53376200  0.06374500  0.04839600  1
  O  O35  1  0.96623800  0.56374500  0.95160400  1
  O  O36  1  0.03376200  0.56374500  0.04839600  1
  O  O37  1  0.46901000  0.98782700  0.90349500  1
  O  O38  1  0.53099000  0.98782700  0.09650500  1
  O  O39  1  0.96901000  0.48782700  0.90349500  1
  O  O40  1  0.03099000  0.48782700  0.09650500  1
  O  O41  1  0.53785600  0.01317600  0.97614800  1
  O  O42  1  0.46214400  0.01317600  0.02385200  1
  O  O43  1  0.03785600  0.51317600  0.97614800  1
  O  O44  1  0.96214400  0.51317600  0.02385200  1
  O  O45  1  0.46485900  0.93711000  0.97573700  1
  O  O46  1  0.53514100  0.93711000  0.02426300  1
  O  O47  1  0.96485900  0.43711000  0.97573700  1
  O  O48  1  0.03514100  0.43711000  0.02426300  1
