# generated using pymatgen
data_ZnH8C18INO4
_symmetry_space_group_name_H-M   'P 1'
_cell_length_a   12.58220900
_cell_length_b   13.73353900
_cell_length_c   14.11411700
_cell_angle_alpha   91.29582300
_cell_angle_beta   97.54052300
_cell_angle_gamma   93.35463200
_symmetry_Int_Tables_number   1
_chemical_formula_structural   ZnH8C18INO4
_chemical_formula_sum   'Zn2 H16 C36 I2 N2 O8'
_cell_volume   2412.52999154
_cell_formula_units_Z   2
loop_
 _symmetry_equiv_pos_site_id
 _symmetry_equiv_pos_as_xyz
  1  'x, y, z'
loop_
 _atom_site_type_symbol
 _atom_site_label
 _atom_site_symmetry_multiplicity
 _atom_site_fract_x
 _atom_site_fract_y
 _atom_site_fract_z
 _atom_site_occupancy
  Zn  Zn1  1  0.61597200  0.47888700  0.51513200  1
  Zn  Zn2  1  0.37867400  0.51645800  0.47290600  1
  H  H1  1  0.26060700  0.22904200  0.53199000  1
  H  H2  1  0.26940500  0.89903500  0.58250000  1
  H  H3  1  0.21812300  0.05913200  0.56153700  1
  H  H4  1  0.57067900  0.16361800  0.47491700  1
  H  H5  1  0.72874700  0.75997500  0.44885100  1
  H  H6  1  0.66917400  0.05570600  0.44580400  1
  H  H7  1  0.78356000  0.92831600  0.42571500  1
  H  H8  1  0.39250900  0.77591900  0.57301000  1
  H  H9  1  0.73992300  0.35553000  0.64838200  1
  H  H10  1  0.10827500  0.33937400  0.66268400  1
  H  H11  1  0.92741800  0.31806900  0.68761400  1
  H  H12  1  0.81712100  0.54861800  0.44071500  1
  H  H13  1  0.26461100  0.63798600  0.34205900  1
  H  H14  1  0.93625400  0.61354200  0.37041300  1
  H  H15  1  0.08080200  0.68263300  0.29517100  1
  H  H16  1  0.24623600  0.41279100  0.58209300  1
  C  C1  1  0.54607400  0.68625700  0.49542200  1
  C  C2  1  0.50863900  0.48626500  0.31054200  1
  C  C3  1  0.44864300  0.30960300  0.49380400  1
  C  C4  1  0.48627600  0.50948200  0.67756000  1
  C  C5  1  0.47783400  0.51156100  0.77799800  1
  C  C6  1  0.45745800  0.51100400  0.96210000  1
  C  C7  1  0.53751300  0.48524500  0.02601800  1
  C  C8  1  0.52554400  0.48441500  0.12600500  1
  C  C9  1  0.46939100  0.51172800  0.86210300  1
  C  C10  1  0.51708100  0.48443500  0.21010300  1
  C  C11  1  0.29561800  0.08038900  0.54068500  1
  C  C12  1  0.41986800  0.20531900  0.50175100  1
  C  C13  1  0.67547100  0.81573100  0.46343900  1
  C  C14  1  0.70653700  0.91085500  0.44929500  1
  C  C15  1  0.63933100  0.98389000  0.46160300  1
  C  C16  1  0.53967700  0.96352600  0.49215500  1
  C  C17  1  0.50949900  0.86642700  0.50940000  1
  C  C18  1  0.46912200  0.03741300  0.50519700  1
  C  C19  1  0.36989900  0.01176100  0.53286400  1
  C  C20  1  0.34450100  0.91758900  0.55586700  1
  C  C21  1  0.41456200  0.84638400  0.54731300  1
  C  C22  1  0.49411900  0.13644800  0.49222900  1
  C  C23  1  0.31951600  0.17649700  0.52351800  1
  C  C24  1  0.57641700  0.79162300  0.49128700  1
  C  C25  1  0.90565800  0.36953300  0.63262700  1
  C  C26  1  0.20064600  0.60532100  0.37717100  1
  C  C27  1  0.09737300  0.63060900  0.35072100  1
  C  C28  1  0.01500100  0.59024500  0.39467200  1
  C  C29  1  0.03618400  0.52338600  0.46622300  1
  C  C30  1  0.14256800  0.49958500  0.49078700  1
  C  C31  1  0.95486300  0.47961200  0.51399200  1
  C  C32  1  0.98265500  0.41374600  0.58448400  1
  C  C33  1  0.08724400  0.39102300  0.60769600  1
  C  C34  1  0.16608700  0.43334400  0.56141200  1
  C  C35  1  0.84628700  0.49877700  0.49422900  1
  C  C36  1  0.80041700  0.39054200  0.61072800  1
  I  I1  1  0.68377100  0.44733500  0.98186700  1
  I  I2  1  0.31119000  0.54887600  0.00625600  1
  N  N1  1  0.77245500  0.45422500  0.54250800  1
  N  N2  1  0.22271700  0.54074500  0.44614200  1
  O  O1  1  0.62400000  0.62651100  0.51111400  1
  O  O2  1  0.44458500  0.65490500  0.47666300  1
  O  O3  1  0.59573700  0.47482900  0.37028100  1
  O  O4  1  0.41552000  0.50313000  0.33789000  1
  O  O5  1  0.55039400  0.34020300  0.50953400  1
  O  O6  1  0.37069800  0.36887300  0.47736000  1
  O  O7  1  0.57891300  0.49153200  0.65011600  1
  O  O8  1  0.39974900  0.52228800  0.61779200  1
