# generated using pymatgen
data_CuH13C20NO6
_symmetry_space_group_name_H-M   'P 1'
_cell_length_a   13.90293000
_cell_length_b   16.26262500
_cell_length_c   17.68846900
_cell_angle_alpha   89.97549900
_cell_angle_beta   89.99206700
_cell_angle_gamma   85.31507900
_symmetry_Int_Tables_number   1
_chemical_formula_structural   CuH13C20NO6
_chemical_formula_sum   'Cu2 H26 C40 N2 O12'
_cell_volume   3985.96740701
_cell_formula_units_Z   2
loop_
 _symmetry_equiv_pos_site_id
 _symmetry_equiv_pos_as_xyz
  1  'x, y, z'
loop_
 _atom_site_type_symbol
 _atom_site_label
 _atom_site_symmetry_multiplicity
 _atom_site_fract_x
 _atom_site_fract_y
 _atom_site_fract_z
 _atom_site_occupancy
  Cu  Cu1  1  0.49682400  0.41823100  0.49763000  1
  Cu  Cu2  1  0.50557100  0.58202800  0.50090400  1
  H  H1  1  0.02364400  0.40638000  0.49911000  1
  H  H2  1  0.97877800  0.59375500  0.49924300  1
  H  H3  1  0.49985700  0.37302700  0.26412300  1
  H  H4  1  0.48327800  0.62749400  0.73456600  1
  H  H5  1  0.50331200  0.63508500  0.25935000  1
  H  H6  1  0.51409200  0.36444300  0.73894700  1
  H  H7  1  0.50289100  0.63190900  0.12119500  1
  H  H8  1  0.51409200  0.36739500  0.87711300  1
  H  H9  1  0.38301300  0.13745900  0.41829100  1
  H  H10  1  0.60918400  0.86392100  0.58723400  1
  H  H11  1  0.59713000  0.28427500  0.57890600  1
  H  H12  1  0.40539200  0.71564700  0.41921200  1
  H  H13  1  0.60239400  0.13400200  0.58485000  1
  H  H14  1  0.39570000  0.86615500  0.41614100  1
  H  H15  1  0.56410900  0.34000100  0.07496800  1
  H  H16  1  0.43372400  0.35023700  0.07510300  1
  H  H17  1  0.56168500  0.25008300  0.15217600  1
  H  H18  1  0.54683900  0.65603900  0.92351100  1
  H  H19  1  0.41703800  0.65464000  0.92393100  1
  H  H20  1  0.53573300  0.74579200  0.84558800  1
  H  H21  1  0.37276400  0.26949700  0.33938700  1
  H  H22  1  0.36079200  0.36259800  0.39192500  1
  H  H23  1  0.25374800  0.30744200  0.46686200  1
  H  H24  1  0.71167800  0.72436600  0.59333700  1
  H  H25  1  0.64266700  0.63796100  0.60541900  1
  H  H26  1  0.67533700  0.74501000  0.70276400  1
  C  C1  1  0.50027400  0.49629500  0.64463700  1
  C  C2  1  0.50182100  0.50393700  0.35387700  1
  C  C3  1  0.68617500  0.47939500  0.49905200  1
  C  C4  1  0.31623000  0.52086500  0.49946700  1
  C  C5  1  0.21275400  0.53012200  0.49934900  1
  C  C6  1  0.78965700  0.47009700  0.49910500  1
  C  C7  1  0.02232800  0.53534100  0.49920600  1
  C  C8  1  0.98009600  0.46479900  0.49914400  1
  C  C9  1  0.87655900  0.46632900  0.49912700  1
  C  C10  1  0.12585800  0.53383900  0.49927100  1
  C  C11  1  0.50033400  0.42793300  0.15415200  1
  C  C12  1  0.49097600  0.57227800  0.84448100  1
  C  C13  1  0.50060100  0.42963400  0.23244000  1
  C  C14  1  0.49072600  0.57067600  0.76619500  1
  C  C15  1  0.50171000  0.50380500  0.27086800  1
  C  C16  1  0.49932400  0.49629400  0.72764600  1
  C  C17  1  0.50251000  0.57653600  0.23058600  1
  C  C18  1  0.50730100  0.42318500  0.76780900  1
  C  C19  1  0.50228200  0.57493500  0.15262700  1
  C  C20  1  0.50747700  0.42465600  0.84577200  1
  C  C21  1  0.50121000  0.50104800  0.11451000  1
  C  C22  1  0.49960100  0.49879600  0.88401000  1
  C  C23  1  0.50079000  0.50041900  0.03332200  1
  C  C24  1  0.50031300  0.49933700  0.96519600  1
  C  C25  1  0.43035400  0.16990800  0.45404000  1
  C  C26  1  0.56402300  0.83112100  0.54995500  1
  C  C27  1  0.42807400  0.25475300  0.45096000  1
  C  C28  1  0.56879000  0.74613000  0.55142800  1
  C  C29  1  0.54942500  0.25255200  0.54298800  1
  C  C30  1  0.45127900  0.74764800  0.45643300  1
  C  C31  1  0.55270300  0.16757800  0.54672400  1
  C  C32  1  0.44528300  0.83277900  0.45448100  1
  C  C33  1  0.49310600  0.12590000  0.50133000  1
  C  C34  1  0.50235500  0.87482700  0.50165800  1
  C  C35  1  0.49617800  0.03749400  0.50194400  1
  C  C36  1  0.49835700  0.96327300  0.50147400  1
  C  C37  1  0.49901300  0.34850400  0.11130500  1
  C  C38  1  0.48212400  0.65199200  0.88744300  1
  C  C39  1  0.35741600  0.29579200  0.39638000  1
  C  C40  1  0.63874300  0.70541200  0.60668700  1
  N  N1  1  0.48943100  0.29577900  0.49454800  1
  N  N2  1  0.51311300  0.70447700  0.50357500  1
  O  O1  1  0.50050700  0.42616900  0.60783200  1
  O  O2  1  0.50183200  0.57397500  0.39070500  1
  O  O3  1  0.50092800  0.56751300  0.61034700  1
  O  O4  1  0.50154900  0.43283400  0.38821500  1
  O  O5  1  0.63766200  0.41364000  0.50055900  1
  O  O6  1  0.36472800  0.58665500  0.49799500  1
  O  O7  1  0.64481400  0.55441600  0.49767100  1
  O  O8  1  0.35758000  0.44582900  0.50076500  1
  O  O9  1  0.49839400  0.28134500  0.16025600  1
  O  O10  1  0.47459300  0.71949800  0.83859000  1
  O  O11  1  0.26414000  0.27962300  0.41742400  1
  O  O12  1  0.61362900  0.73199800  0.67950400  1
