# generated using pymatgen
data_ZnH7C19N3O4
_symmetry_space_group_name_H-M   'P 1'
_cell_length_a   8.59838900
_cell_length_b   10.79761100
_cell_length_c   13.45161000
_cell_angle_alpha   90.00000000
_cell_angle_beta   90.00000000
_cell_angle_gamma   90.00000000
_symmetry_Int_Tables_number   1
_chemical_formula_structural   ZnH7C19N3O4
_chemical_formula_sum   'Zn2 H14 C38 N6 O8'
_cell_volume   1248.87517799
_cell_formula_units_Z   2
loop_
 _symmetry_equiv_pos_site_id
 _symmetry_equiv_pos_as_xyz
  1  'x, y, z'
loop_
 _atom_site_type_symbol
 _atom_site_label
 _atom_site_symmetry_multiplicity
 _atom_site_fract_x
 _atom_site_fract_y
 _atom_site_fract_z
 _atom_site_occupancy
  Zn  Zn1  1  0.50384700  0.50472700  0.11059200  1
  Zn  Zn2  1  0.49615300  0.49527300  0.88940800  1
  H  H1  1  0.61608900  0.88955600  0.96896900  1
  H  H2  1  0.38391100  0.11044500  0.03103100  1
  H  H3  1  0.61738100  0.11437500  0.97038000  1
  H  H4  1  0.38261900  0.88562500  0.02962000  1
  H  H5  1  0.99968600  0.58654900  0.97021800  1
  H  H6  1  0.00031400  0.41345200  0.02978200  1
  H  H7  1  0.39218400  0.21320700  0.57489600  1
  H  H8  1  0.60781600  0.78679400  0.42510400  1
  H  H9  1  0.59710800  0.78422200  0.58765300  1
  H  H10  1  0.40289200  0.21577800  0.41234700  1
  H  H11  1  0.39926900  0.78766200  0.42033900  1
  H  H12  1  0.60073100  0.21233800  0.57966100  1
  H  H13  1  0.61148900  0.21812200  0.41715100  1
  H  H14  1  0.38851100  0.78187800  0.58284900  1
  C  C1  1  0.99939900  0.68341100  0.98453900  1
  C  C2  1  0.00060100  0.31658900  0.01546100  1
  C  C3  1  0.85989800  0.74449100  0.98907400  1
  C  C4  1  0.14010200  0.25550900  0.01092500  1
  C  C5  1  0.86179300  0.25671700  0.00117200  1
  C  C6  1  0.13820700  0.74328300  0.99882800  1
  C  C7  1  0.86011700  0.87255000  0.99113900  1
  C  C8  1  0.13988300  0.12745000  0.00886100  1
  C  C9  1  0.86166600  0.12891600  0.99315500  1
  C  C10  1  0.13833400  0.87108400  0.00684500  1
  C  C11  1  0.72360900  0.93772400  0.98076200  1
  C  C12  1  0.27639100  0.06227600  0.01923800  1
  C  C13  1  0.72453200  0.06514400  0.98080000  1
  C  C14  1  0.27546800  0.93485600  0.01920000  1
  C  C15  1  0.49099000  0.60279000  0.70974300  1
  C  C16  1  0.50901000  0.39721000  0.29025700  1
  C  C17  1  0.49239100  0.38685400  0.70732900  1
  C  C18  1  0.50760900  0.61314600  0.29267100  1
  C  C19  1  0.99966400  0.93585800  0.99917700  1
  C  C20  1  0.00033600  0.06414200  0.00082300  1
  C  C21  1  0.49780200  0.49851900  0.55383200  1
  C  C22  1  0.50219800  0.50148100  0.44616800  1
  C  C23  1  0.49814700  0.26518100  0.55318300  1
  C  C24  1  0.50185300  0.73481900  0.44681700  1
  C  C25  1  0.49515900  0.73181600  0.55963900  1
  C  C26  1  0.50484100  0.26818400  0.44036000  1
  C  C27  1  0.49602600  0.38741700  0.60446600  1
  C  C28  1  0.50397400  0.61258300  0.39553400  1
  C  C29  1  0.49462900  0.60701600  0.60724100  1
  C  C30  1  0.50537100  0.39298400  0.39275900  1
  C  C31  1  0.72018800  0.33315700  0.99927700  1
  C  C32  1  0.27981200  0.66684300  0.00072300  1
  C  C33  1  0.71804000  0.66850700  0.99361800  1
  C  C34  1  0.28196000  0.33149300  0.00638200  1
  C  C35  1  0.48986700  0.27066000  0.75903600  1
  C  C36  1  0.51013300  0.72934000  0.24096400  1
  C  C37  1  0.48683500  0.71754100  0.76337600  1
  C  C38  1  0.51316500  0.28245900  0.23662400  1
  N  N1  1  0.49095800  0.49373800  0.75888400  1
  N  N2  1  0.50904200  0.50626200  0.24111600  1
  N  N3  1  0.48739100  0.17675200  0.80037400  1
  N  N4  1  0.51260900  0.82324800  0.19962600  1
  N  N5  1  0.48294900  0.81035500  0.80621900  1
  N  N6  1  0.51705100  0.18964500  0.19378100  1
  O  O1  1  0.66309500  0.36793600  0.91287200  1
  O  O2  1  0.33690500  0.63206400  0.08712800  1
  O  O3  1  0.32908500  0.62131800  0.91597100  1
  O  O4  1  0.67091500  0.37868200  0.08402900  1
  O  O5  1  0.66761900  0.63283300  0.08152100  1
  O  O6  1  0.33238100  0.36716700  0.91847900  1
  O  O7  1  0.33671800  0.37704200  0.08969700  1
  O  O8  1  0.66328200  0.62295800  0.91030300  1
