# generated using pymatgen
data_ZnH5C15N(OF)4
_symmetry_space_group_name_H-M   'P 1'
_cell_length_a   8.58532900
_cell_length_b   10.71880600
_cell_length_c   14.17188200
_cell_angle_alpha   90.00000000
_cell_angle_beta   90.00000000
_cell_angle_gamma   90.00000000
_symmetry_Int_Tables_number   1
_chemical_formula_structural   ZnH5C15N(OF)4
_chemical_formula_sum   'Zn2 H10 C30 N2 O8 F8'
_cell_volume   1304.16001494
_cell_formula_units_Z   2
loop_
 _symmetry_equiv_pos_site_id
 _symmetry_equiv_pos_as_xyz
  1  'x, y, z'
loop_
 _atom_site_type_symbol
 _atom_site_label
 _atom_site_symmetry_multiplicity
 _atom_site_fract_x
 _atom_site_fract_y
 _atom_site_fract_z
 _atom_site_occupancy
  Zn  Zn1  1  0.49641500  0.51690200  0.10446300  1
  Zn  Zn2  1  0.50503100  0.48296100  0.89618500  1
  H  H1  1  0.61798600  0.88168400  0.02649900  1
  H  H2  1  0.61647900  0.10666000  0.04192700  1
  H  H3  1  0.38499500  0.89318200  0.95893000  1
  H  H4  1  0.38348100  0.11817000  0.97435600  1
  H  H5  1  0.00277900  0.58290300  0.95714000  1
  H  H6  1  0.99858100  0.41700000  0.04336700  1
  H  H7  1  0.32224500  0.34840200  0.57953800  1
  H  H8  1  0.27614600  0.42184400  0.43147000  1
  H  H9  1  0.31363100  0.65013500  0.42709700  1
  H  H10  1  0.28195000  0.57653500  0.57648400  1
  C  C1  1  0.00242700  0.68196500  0.96863200  1
  C  C2  1  0.99897400  0.31792200  0.03196700  1
  C  C3  1  0.86361000  0.74212700  0.98474700  1
  C  C4  1  0.85976900  0.25524100  0.02677700  1
  C  C5  1  0.86294600  0.86963400  0.99996600  1
  C  C6  1  0.86066800  0.12665700  0.01836700  1
  C  C7  1  0.72551800  0.93194400  0.01792400  1
  C  C8  1  0.72419100  0.05989900  0.02587000  1
  C  C9  1  0.14165100  0.74461400  0.97388700  1
  C  C10  1  0.13780500  0.25776200  0.01591200  1
  C  C11  1  0.14077300  0.87319100  0.98237600  1
  C  C12  1  0.13849400  0.13023300  0.00077900  1
  C  C13  1  0.00119800  0.93571300  0.99523100  1
  C  C14  1  0.00024800  0.06414200  0.00552300  1
  C  C15  1  0.27726300  0.93994800  0.97493800  1
  C  C16  1  0.27593500  0.06791000  0.98288300  1
  C  C17  1  0.71751000  0.33037600  0.01828600  1
  C  C18  1  0.72276400  0.66562700  0.99025600  1
  C  C19  1  0.28388300  0.66944100  0.98236500  1
  C  C20  1  0.27863400  0.33428000  0.01039300  1
  C  C21  1  0.40158600  0.40046600  0.44079600  1
  C  C22  1  0.43331700  0.37186200  0.54373600  1
  C  C23  1  0.40610700  0.59878600  0.56297800  1
  C  C24  1  0.42806500  0.62754600  0.45913600  1
  C  C25  1  0.49719600  0.51335800  0.41181600  1
  C  C26  1  0.50536300  0.48652600  0.58884200  1
  C  C27  1  0.66923900  0.50509400  0.55096300  1
  C  C28  1  0.66444800  0.49586400  0.44443700  1
  C  C29  1  0.50939500  0.47291900  0.69155700  1
  C  C30  1  0.49297200  0.52694500  0.30910100  1
  N  N1  1  0.51115800  0.46637200  0.77304500  1
  N  N2  1  0.49096600  0.53348500  0.22761500  1
  O  O1  1  0.66728000  0.35632800  0.93284400  1
  O  O2  1  0.66302300  0.38546700  0.09407900  1
  O  O3  1  0.66483900  0.64110000  0.07394600  1
  O  O4  1  0.67338700  0.61173000  0.91273400  1
  O  O5  1  0.33417200  0.64353700  0.06780000  1
  O  O6  1  0.33841700  0.61439200  0.90656700  1
  O  O7  1  0.33661000  0.35876200  0.92670800  1
  O  O8  1  0.32805500  0.38813900  0.08791500  1
  F  F1  1  0.52653500  0.72860000  0.44874900  1
  F  F2  1  0.44812700  0.70112200  0.61661000  1
  F  F3  1  0.53367100  0.27148800  0.55072700  1
  F  F4  1  0.43989900  0.29846800  0.38579600  1
  F  F5  1  0.71823500  0.37999400  0.41675500  1
  F  F6  1  0.76772000  0.41466800  0.58670500  1
  F  F7  1  0.72425100  0.62129700  0.57690300  1
  F  F8  1  0.75876900  0.58683300  0.40550100  1
