# generated using pymatgen
data_ZnH12C26INO4
_symmetry_space_group_name_H-M   'P 1'
_cell_length_a   13.89474500
_cell_length_b   15.08855400
_cell_length_c   16.03338700
_cell_angle_alpha   89.98940600
_cell_angle_beta   72.50906800
_cell_angle_gamma   90.00523800
_symmetry_Int_Tables_number   1
_chemical_formula_structural   ZnH12C26INO4
_chemical_formula_sum   'Zn2 H24 C52 I2 N2 O8'
_cell_volume   3206.00822756
_cell_formula_units_Z   2
loop_
 _symmetry_equiv_pos_site_id
 _symmetry_equiv_pos_as_xyz
  1  'x, y, z'
loop_
 _atom_site_type_symbol
 _atom_site_label
 _atom_site_symmetry_multiplicity
 _atom_site_fract_x
 _atom_site_fract_y
 _atom_site_fract_z
 _atom_site_occupancy
  Zn  Zn1  1  0.39044600  0.49999300  0.50051100  1
  Zn  Zn2  1  0.60955400  0.50000700  0.49948900  1
  H  H1  1  0.23214300  0.49964400  0.07057100  1
  H  H2  1  0.76785700  0.50035700  0.92942900  1
  H  H3  1  0.44334100  0.49986200  0.22548800  1
  H  H4  1  0.55665900  0.50013800  0.77451200  1
  H  H5  1  0.74928500  0.50052800  0.22120700  1
  H  H6  1  0.25071500  0.49947200  0.77879300  1
  H  H7  1  0.19702100  0.49942300  0.93703500  1
  H  H8  1  0.80297900  0.50057800  0.06296500  1
  H  H9  1  0.34315200  0.49995600  0.15520100  1
  H  H10  1  0.65684700  0.50004400  0.84479900  1
  H  H11  1  0.35301500  0.21782200  0.48328800  1
  H  H12  1  0.64698500  0.78217800  0.51671200  1
  H  H13  1  0.64689600  0.21784300  0.51691100  1
  H  H14  1  0.35310400  0.78215700  0.48308900  1
  H  H15  1  0.72830900  0.08100600  0.52692100  1
  H  H16  1  0.27169100  0.91899400  0.47307900  1
  H  H17  1  0.72834400  0.91901800  0.52684300  1
  H  H18  1  0.27165600  0.08098300  0.47315700  1
  H  H19  1  0.20674700  0.40395100  0.59856700  1
  H  H20  1  0.79325300  0.59604900  0.40143300  1
  H  H21  1  0.27266400  0.59675200  0.40252200  1
  H  H22  1  0.72733600  0.40324800  0.59747700  1
  H  H23  1  0.14455400  0.65270500  0.34500000  1
  H  H24  1  0.85544600  0.34729500  0.65500000  1
  C  C1  1  0.50001400  0.67359400  0.49996900  1
  C  C2  1  0.49998600  0.32640600  0.50003100  1
  C  C3  1  0.44154300  0.49996000  0.67139200  1
  C  C4  1  0.55845600  0.50004000  0.32860800  1
  C  C5  1  0.40864800  0.49985800  0.76752300  1
  C  C6  1  0.59135200  0.50014200  0.23247700  1
  C  C7  1  0.27680800  0.49957800  0.90226800  1
  C  C8  1  0.72319200  0.50042200  0.09773200  1
  C  C9  1  0.30726900  0.49962500  0.81260300  1
  C  C10  1  0.69273100  0.50037500  0.18739700  1
  C  C11  1  0.47901700  0.49996500  0.81315600  1
  C  C12  1  0.52098300  0.50003500  0.18684300  1
  C  C13  1  0.44916000  0.49989400  0.90466300  1
  C  C14  1  0.55084000  0.50010600  0.09533700  1
  C  C15  1  0.34670900  0.49973300  0.94778700  1
  C  C16  1  0.65329100  0.50026700  0.05221300  1
  C  C17  1  0.51790700  0.50000000  0.95416100  1
  C  C18  1  0.48209300  0.50000000  0.04583900  1
  C  C19  1  0.37817000  0.49990200  0.08577900  1
  C  C20  1  0.62182900  0.50009900  0.91422100  1
  C  C21  1  0.31229700  0.49974100  0.03723000  1
  C  C22  1  0.68770200  0.50026000  0.96277000  1
  C  C23  1  0.41775400  0.18296100  0.49093800  1
  C  C24  1  0.58224600  0.81703900  0.50906200  1
  C  C25  1  0.49997200  0.22917300  0.50006300  1
  C  C26  1  0.50002800  0.77082800  0.49993700  1
  C  C27  1  0.58218200  0.18297300  0.50920700  1
  C  C28  1  0.41781700  0.81702800  0.49079300  1
  C  C29  1  0.58197800  0.09149800  0.50942700  1
  C  C30  1  0.41802200  0.90850300  0.49057300  1
  C  C31  1  0.49999100  0.04574300  0.50002000  1
  C  C32  1  0.50000800  0.95425700  0.49998000  1
  C  C33  1  0.41798500  0.09148800  0.49065800  1
  C  C34  1  0.58201500  0.90851200  0.50934200  1
  C  C35  1  0.66387600  0.04567300  0.51913900  1
  C  C36  1  0.33612400  0.95432700  0.48086100  1
  C  C37  1  0.66389700  0.95434500  0.51909200  1
  C  C38  1  0.33610300  0.04565500  0.48090700  1
  C  C39  1  0.17964800  0.44577200  0.55604000  1
  C  C40  1  0.82035100  0.55422800  0.44396000  1
  C  C41  1  0.21771200  0.55389100  0.44608400  1
  C  C42  1  0.78228800  0.44610900  0.55391500  1
  C  C43  1  0.11894300  0.55443400  0.44512300  1
  C  C44  1  0.88105700  0.44556700  0.55487700  1
  C  C45  1  0.04944400  0.49966900  0.50059800  1
  C  C46  1  0.95055600  0.50033100  0.49940200  1
  C  C47  1  0.07942400  0.44445200  0.55701500  1
  C  C48  1  0.92057500  0.55554800  0.44298400  1
  C  C49  1  0.08989400  0.60967000  0.38864100  1
  C  C50  1  0.91010600  0.39033000  0.61135900  1
  C  C51  1  0.99129500  0.61078700  0.38702000  1
  C  C52  1  0.00870500  0.38921300  0.61297900  1
  I  I1  1  0.95731200  0.69879300  0.29708800  1
  I  I2  1  0.04268800  0.30120700  0.70291200  1
  N  N1  1  0.24631200  0.49996300  0.50105700  1
  N  N2  1  0.75368800  0.50003700  0.49894300  1
  O  O1  1  0.41697900  0.63204400  0.50021800  1
  O  O2  1  0.58302100  0.36795600  0.49978100  1
  O  O3  1  0.58303400  0.63205500  0.49975600  1
  O  O4  1  0.41696600  0.36794600  0.50024400  1
  O  O5  1  0.37246900  0.50000300  0.63069600  1
  O  O6  1  0.62753100  0.49999700  0.36930400  1
  O  O7  1  0.53858500  0.49996600  0.62988000  1
  O  O8  1  0.46141500  0.50003400  0.37012000  1
