# generated using pymatgen
data_Fe2H16C43O18
_symmetry_space_group_name_H-M   'P 1'
_cell_length_a   13.18926000
_cell_length_b   15.26814600
_cell_length_c   12.97540300
_cell_angle_alpha   100.86268100
_cell_angle_beta   100.72083000
_cell_angle_gamma   69.99344300
_symmetry_Int_Tables_number   1
_chemical_formula_structural   Fe2H16C43O18
_chemical_formula_sum   'Fe2 H16 C43 O18'
_cell_volume   2390.24632390
_cell_formula_units_Z   1
loop_
 _symmetry_equiv_pos_site_id
 _symmetry_equiv_pos_as_xyz
  1  'x, y, z'
loop_
 _atom_site_type_symbol
 _atom_site_label
 _atom_site_symmetry_multiplicity
 _atom_site_fract_x
 _atom_site_fract_y
 _atom_site_fract_z
 _atom_site_occupancy
  Fe  Fe1  1  0.49571300  0.99661200  0.22392000  1
  Fe  Fe2  1  0.49865900  0.99568500  0.77515100  1
  H  H1  1  0.11554300  0.98028700  0.73577400  1
  H  H2  1  0.78646700  0.96491600  0.79710700  1
  H  H3  1  0.20325600  0.03421000  0.20162000  1
  H  H4  1  0.05705400  0.02741900  0.27702800  1
  H  H5  1  0.88601100  0.01083700  0.26246300  1
  H  H6  1  0.45698400  0.12918300  0.50681900  1
  H  H7  1  0.20776700  0.33243700  0.34394500  1
  H  H8  1  0.20420100  0.32902100  0.67198000  1
  H  H9  1  0.14094400  0.49735400  0.65345500  1
  H  H10  1  0.97483600  0.62981000  0.64386300  1
  H  H11  1  0.85871100  0.49795100  0.34630700  1
  H  H12  1  0.02478200  0.36550900  0.35589500  1
  H  H13  1  0.79440800  0.66638800  0.32808900  1
  H  H14  1  0.54065700  0.86417100  0.49366500  1
  H  H15  1  0.79200900  0.66197900  0.65609500  1
  H  H16  1  0.85789900  0.92534500  0.54840100  1
  C  C1  1  0.21162500  0.00365700  0.88057100  1
  C  C2  1  0.11768800  0.99295000  0.82033800  1
  C  C3  1  0.03058800  0.99329700  0.86592500  1
  C  C4  1  0.93675200  0.98231400  0.80372500  1
  C  C5  1  0.85475800  0.97578300  0.85045800  1
  C  C6  1  0.22011800  0.01256800  0.99097000  1
  C  C7  1  0.13264800  0.01107600  0.03752000  1
  C  C8  1  0.03858000  0.00079700  0.97476700  1
  C  C9  1  0.95240300  0.99819900  0.02117200  1
  C  C10  1  0.85911300  0.98637700  0.95967100  1
  C  C11  1  0.77264600  0.98406200  0.00749300  1
  C  C12  1  0.13607300  0.02229600  0.14692100  1
  C  C13  1  0.05120800  0.01931600  0.19176000  1
  C  C14  1  0.95996200  0.00655200  0.12946900  1
  C  C15  1  0.87664500  0.00318500  0.17709900  1
  C  C16  1  0.78202300  0.99246400  0.11812900  1
  C  C17  1  0.69505600  0.99344200  0.17719500  1
  C  C18  1  0.61865800  0.82450500  0.30983200  1
  C  C19  1  0.31975300  0.02302000  0.05837900  1
  C  C20  1  0.37189300  0.17475600  0.31763500  1
  C  C21  1  0.62655400  0.81840600  0.68269100  1
  C  C22  1  0.67326100  0.97285900  0.94082000  1
  C  C23  1  0.37835100  0.16955800  0.69020700  1
  C  C24  1  0.29915300  0.00227200  0.82231300  1
  C  C25  1  0.33892600  0.22930400  0.41785200  1
  C  C26  1  0.24472900  0.30453500  0.41746000  1
  C  C27  1  0.19784400  0.34314100  0.50931300  1
  C  C28  1  0.24444600  0.30325500  0.60180000  1
  C  C29  1  0.33783200  0.22564200  0.60159200  1
  C  C30  1  0.38683600  0.19174700  0.51017800  1
  C  C31  1  0.07883000  0.49621600  0.58635900  1
  C  C32  1  0.98420900  0.57152600  0.58063900  1
  C  C33  1  0.90431700  0.57341700  0.49426500  1
  C  C34  1  0.92087200  0.49914200  0.41334700  1
  C  C35  1  0.01548700  0.42383200  0.41906700  1
  C  C36  1  0.09534500  0.42190000  0.50548300  1
  C  C37  1  0.75430700  0.69177500  0.39837500  1
  C  C38  1  0.66014000  0.76866800  0.39865200  1
  C  C39  1  0.61119700  0.80193700  0.49013500  1
  C  C40  1  0.65981400  0.76441000  0.58238400  1
  C  C41  1  0.75464500  0.68986500  0.58264400  1
  C  C42  1  0.80152200  0.65185300  0.49072900  1
  C  C43  1  0.91787900  0.97925100  0.68773900  1
  O  O1  1  0.59630800  0.99949000  0.12978200  1
  O  O2  1  0.67076200  0.80471800  0.22726400  1
  O  O3  1  0.71610100  0.99065300  0.27965600  1
  O  O4  1  0.53629200  0.90221400  0.32273100  1
  O  O5  1  0.36907800  0.96665600  0.13045500  1
  O  O6  1  0.35540600  0.09180900  0.05103200  1
  O  O7  1  0.47403500  0.12226100  0.31396600  1
  O  O8  1  0.29546500  0.15806400  0.24483500  1
  O  O9  1  0.52384900  0.86895800  0.68675000  1
  O  O10  1  0.70242300  0.83677000  0.75500900  1
  O  O11  1  0.62327100  0.02897500  0.86876300  1
  O  O12  1  0.63964700  0.90265700  0.94730500  1
  O  O13  1  0.27774100  0.00987900  0.72087200  1
  O  O14  1  0.45614100  0.08899100  0.67479500  1
  O  O15  1  0.39877000  0.99145400  0.86931500  1
  O  O16  1  0.32964300  0.19258100  0.77540300  1
  O  O17  1  0.93471500  0.03756800  0.64646600  1
  O  O18  1  0.86932400  0.91589300  0.62535900  1
