# generated using pymatgen
data_FeH12C26NO10
_symmetry_space_group_name_H-M   'P 1'
_cell_length_a   9.42226000
_cell_length_b   19.89799300
_cell_length_c   17.92133100
_cell_angle_alpha   109.01923400
_cell_angle_beta   86.08296000
_cell_angle_gamma   85.03291600
_symmetry_Int_Tables_number   1
_chemical_formula_structural   FeH12C26NO10
_chemical_formula_sum   'Fe2 H24 C52 N2 O20'
_cell_volume   3147.94801363
_cell_formula_units_Z   2
loop_
 _symmetry_equiv_pos_site_id
 _symmetry_equiv_pos_as_xyz
  1  'x, y, z'
loop_
 _atom_site_type_symbol
 _atom_site_label
 _atom_site_symmetry_multiplicity
 _atom_site_fract_x
 _atom_site_fract_y
 _atom_site_fract_z
 _atom_site_occupancy
  Fe  Fe1  1  0.42956900  0.98793500  0.36521000  1
  Fe  Fe2  1  0.42924200  0.00171700  0.66986800  1
  H  H1  1  0.14073000  0.01579100  0.88849800  1
  H  H2  1  0.69272000  0.00507900  0.91759800  1
  H  H3  1  0.16147200  0.01275200  0.12890900  1
  H  H4  1  0.71127100  0.00800400  0.15997600  1
  H  H5  1  0.88455500  0.01572500  0.70046400  1
  H  H6  1  0.97065600  0.99617900  0.34310000  1
  H  H7  1  0.87269900  0.65062000  0.70122600  1
  H  H8  1  0.99104400  0.55092700  0.73109300  1
  H  H9  1  0.99598100  0.34585400  0.35415900  1
  H  H10  1  0.84148500  0.43854700  0.33044800  1
  H  H11  1  0.12064400  0.21724400  0.49614700  1
  H  H12  1  0.33174900  0.37031200  0.66268400  1
  H  H13  1  0.57499100  0.76055400  0.57154100  1
  H  H14  1  0.73306600  0.74234800  0.29773000  1
  H  H15  1  0.82211100  0.65085600  0.34766700  1
  H  H16  1  0.57712300  0.23235100  0.70081900  1
  H  H17  1  0.43477800  0.28487500  0.77532600  1
  H  H18  1  0.48904600  0.39257600  0.75301200  1
  H  H19  1  0.59933900  0.34325900  0.66048200  1
  H  H20  1  0.77668600  0.30072900  0.73234800  1
  H  H21  1  0.66166200  0.33817800  0.82467300  1
  H  H22  1  0.78173300  0.42410600  0.72501600  1
  H  H23  1  0.85249900  0.41469800  0.81294400  1
  H  H24  1  0.67482400  0.45995900  0.82018600  1
  C  C1  1  0.02768100  0.01582900  0.78836800  1
  C  C2  1  0.03823600  0.01487300  0.86476200  1
  C  C3  1  0.91679100  0.01220400  0.91120200  1
  C  C4  1  0.78621000  0.00860000  0.88119800  1
  C  C5  1  0.77457200  0.01096400  0.80602600  1
  C  C6  1  0.89457400  0.01573500  0.76014700  1
  C  C7  1  0.92430700  0.01193500  0.99073600  1
  C  C8  1  0.92800500  0.01145000  0.05759800  1
  C  C9  1  0.06735800  0.01006500  0.16539400  1
  C  C10  1  0.07958200  0.00374100  0.23883400  1
  C  C11  1  0.95932500  0.99982100  0.28492300  1
  C  C12  1  0.82550000  0.00317900  0.25819400  1
  C  C13  1  0.81424300  0.00704700  0.18296900  1
  C  C14  1  0.93575900  0.00994800  0.13666400  1
  C  C15  1  0.69842600  0.00178800  0.30980500  1
  C  C16  1  0.56399500  0.86302000  0.37521400  1
  C  C17  1  0.21895000  0.00363100  0.26928300  1
  C  C18  1  0.30184500  0.10753000  0.48758800  1
  C  C19  1  0.75918700  0.56877300  0.43430800  1
  C  C20  1  0.79407300  0.64720200  0.55948900  1
  C  C21  1  0.85620300  0.59017600  0.57905700  1
  C  C22  1  0.88600700  0.52401700  0.52168300  1
  C  C23  1  0.83931300  0.51350800  0.44841000  1
  C  C24  1  0.89573400  0.59944600  0.65442200  1
  C  C25  1  0.96312900  0.54248800  0.67148700  1
  C  C26  1  0.00079600  0.47723600  0.61193400  1
  C  C27  1  0.96404400  0.46894300  0.53701200  1
  C  C28  1  0.00831000  0.40571900  0.47699900  1
  C  C29  1  0.96459500  0.39547400  0.40238600  1
  C  C30  1  0.87559600  0.44817500  0.38901900  1
  C  C31  1  0.07333900  0.42009800  0.62693700  1
  C  C32  1  0.09898000  0.35380500  0.49124400  1
  C  C33  1  0.19542200  0.23124400  0.54020200  1
  C  C34  1  0.28272900  0.17669000  0.55080600  1
  C  C35  1  0.36363300  0.19002200  0.61478900  1
  C  C36  1  0.38543100  0.26085800  0.65467200  1
  C  C37  1  0.31201500  0.31569300  0.63517200  1
  C  C38  1  0.20957900  0.30188700  0.58176500  1
  C  C39  1  0.61045200  0.75564800  0.51125000  1
  C  C40  1  0.57710900  0.81346800  0.48588600  1
  C  C41  1  0.61254200  0.80687900  0.40716500  1
  C  C42  1  0.69820900  0.74718500  0.35813900  1
  C  C43  1  0.74566300  0.69379300  0.38624100  1
  C  C44  1  0.69697500  0.69503000  0.46148400  1
  C  C45  1  0.63697400  0.00429500  0.77324300  1
  C  C46  1  0.53814300  0.88514800  0.54490700  1
  C  C47  1  0.15573300  0.01438200  0.73588100  1
  C  C48  1  0.40421400  0.13154800  0.64684300  1
  C  C49  1  0.49069400  0.27751100  0.71621700  1
  C  C50  1  0.56381700  0.34385600  0.72103000  1
  C  C51  1  0.69350100  0.34487100  0.76700900  1
  C  C52  1  0.75450100  0.41559800  0.78219500  1
  N  N1  1  0.74597300  0.63621600  0.48716800  1
  N  N2  1  0.12619300  0.35953500  0.56640700  1
  O  O1  1  0.57154700  0.99720800  0.28351000  1
  O  O2  1  0.62171600  0.86204200  0.30614700  1
  O  O3  1  0.71242500  0.00191300  0.38220900  1
  O  O4  1  0.45742300  0.91181300  0.41321900  1
  O  O5  1  0.24907100  0.96461100  0.31394300  1
  O  O6  1  0.30921800  0.04629100  0.25663000  1
  O  O7  1  0.43165200  0.08136100  0.45262200  1
  O  O8  1  0.19028400  0.07702900  0.45880000  1
  O  O9  1  0.69556400  0.55497500  0.36682600  1
  O  O10  1  0.78942500  0.71374900  0.61150900  1
  O  O11  1  0.08821600  0.42500200  0.70251900  1
  O  O12  1  0.16409900  0.29906000  0.42899700  1
  O  O13  1  0.60908800  0.03231700  0.71823500  1
  O  O14  1  0.54615200  0.96602700  0.79475300  1
  O  O15  1  0.42718300  0.90036300  0.59845700  1
  O  O16  1  0.61976800  0.93540300  0.54508600  1
  O  O17  1  0.41188200  0.14729300  0.72337200  1
  O  O18  1  0.28476700  0.00703300  0.75780100  1
  O  O19  1  0.40504900  0.06370900  0.60368300  1
  O  O20  1  0.14195200  0.01685200  0.66442700  1
