# generated using pymatgen
data_Cu3H16C34(ClO3)4
_symmetry_space_group_name_H-M   'P 1'
_cell_length_a   38.08706400
_cell_length_b   32.07209000
_cell_length_c   21.31045800
_cell_angle_alpha   90.00000000
_cell_angle_beta   57.43668700
_cell_angle_gamma   90.00000000
_symmetry_Int_Tables_number   1
_chemical_formula_structural   Cu3H16C34(ClO3)4
_chemical_formula_sum   'Cu12 H64 C136 Cl16 O48'
_cell_volume   21939.19192565
_cell_formula_units_Z   4
loop_
 _symmetry_equiv_pos_site_id
 _symmetry_equiv_pos_as_xyz
  1  'x, y, z'
loop_
 _atom_site_type_symbol
 _atom_site_label
 _atom_site_symmetry_multiplicity
 _atom_site_fract_x
 _atom_site_fract_y
 _atom_site_fract_z
 _atom_site_occupancy
  Cu  Cu1  1  0.99998700  0.53918500  0.49940700  1
  Cu  Cu2  1  0.49998700  0.03918500  0.49940700  1
  Cu  Cu3  1  0.99987200  0.45612300  0.49954600  1
  Cu  Cu4  1  0.49987200  0.95612300  0.49954600  1
  Cu  Cu5  1  0.95833700  0.50231700  0.03907200  1
  Cu  Cu6  1  0.04139700  0.50239000  0.96015700  1
  Cu  Cu7  1  0.45833700  0.00231700  0.03907200  1
  Cu  Cu8  1  0.54139700  0.00239000  0.96015700  1
  Cu  Cu9  1  0.49871100  0.50227900  0.93938700  1
  Cu  Cu10  1  0.50115700  0.50224600  0.06206100  1
  Cu  Cu11  1  0.99871100  0.00227900  0.93938700  1
  Cu  Cu12  1  0.00115700  0.00224600  0.06206100  1
  H  H1  1  0.97761600  0.56299100  0.32798800  1
  H  H2  1  0.01950800  0.56370800  0.67462200  1
  H  H3  1  0.47761600  0.06299100  0.32798800  1
  H  H4  1  0.51950800  0.06370800  0.67462200  1
  H  H5  1  0.93605100  0.52602100  0.36024500  1
  H  H6  1  0.06258700  0.52829100  0.63884900  1
  H  H7  1  0.43605100  0.02602100  0.36024500  1
  H  H8  1  0.56258700  0.02829100  0.63884900  1
  H  H9  1  0.94045900  0.53589900  0.25191300  1
  H  H10  1  0.05900700  0.53605100  0.74686600  1
  H  H11  1  0.44045900  0.03589900  0.25191300  1
  H  H12  1  0.55900700  0.03605100  0.74686600  1
  H  H13  1  0.98709300  0.56691400  0.21555200  1
  H  H14  1  0.01217500  0.56693900  0.78505600  1
  H  H15  1  0.48709300  0.06691400  0.21555200  1
  H  H16  1  0.51217500  0.06693900  0.78505600  1
  H  H17  1  0.04893300  0.54109600  0.25223800  1
  H  H18  1  0.94930500  0.53939400  0.74792900  1
  H  H19  1  0.54893300  0.04109600  0.25223800  1
  H  H20  1  0.44930500  0.03939400  0.74792900  1
  H  H21  1  0.05789000  0.53345300  0.14045700  1
  H  H22  1  0.94150500  0.53269300  0.85886500  1
  H  H23  1  0.55789000  0.03345300  0.14045700  1
  H  H24  1  0.44150500  0.03269300  0.85886500  1
  H  H25  1  0.94612900  0.45940800  0.24957400  1
  H  H26  1  0.05393200  0.45969400  0.74999200  1
  H  H27  1  0.44612900  0.95940800  0.24957400  1
  H  H28  1  0.55393200  0.95969400  0.74999200  1
  H  H29  1  0.99590200  0.43411500  0.19137600  1
  H  H30  1  0.00425200  0.43402800  0.80685500  1
  H  H31  1  0.49590200  0.93411500  0.19137600  1
  H  H32  1  0.50425200  0.93402800  0.80685500  1
  H  H33  1  0.06493100  0.48786500  0.24478700  1
  H  H34  1  0.93508400  0.48561300  0.75484500  1
  H  H35  1  0.56493100  0.98786500  0.24478700  1
  H  H36  1  0.43508400  0.98561300  0.75484500  1
  H  H37  1  0.06105800  0.47718300  0.14297500  1
  H  H38  1  0.93888800  0.47634100  0.85672900  1
  H  H39  1  0.56105800  0.97718300  0.14297500  1
  H  H40  1  0.43888800  0.97634100  0.85672900  1
  H  H41  1  0.78882000  0.45276200  0.78224300  1
  H  H42  1  0.21131400  0.45208400  0.21853500  1
  H  H43  1  0.28882000  0.95276200  0.78224300  1
  H  H44  1  0.71131400  0.95208400  0.21853500  1
  H  H45  1  0.71222000  0.45405500  0.85926700  1
  H  H46  1  0.28791700  0.45343700  0.14204100  1
  H  H47  1  0.21222000  0.95405500  0.85926700  1
  H  H48  1  0.78791700  0.95343700  0.14204100  1
  H  H49  1  0.78760500  0.54519600  0.63989100  1
  H  H50  1  0.21198700  0.54496100  0.36076600  1
  H  H51  1  0.28760500  0.04519600  0.63989100  1
  H  H52  1  0.71198700  0.04496100  0.36076600  1
  H  H53  1  0.04548800  0.71404800  0.88362800  1
  H  H54  1  0.95412100  0.71384000  0.11650000  1
  H  H55  1  0.54548800  0.21404800  0.88362800  1
  H  H56  1  0.45412100  0.21384000  0.11650000  1
  H  H57  1  0.54556600  0.29075900  0.88391500  1
  H  H58  1  0.45420000  0.29055200  0.11678800  1
  H  H59  1  0.04556600  0.79075900  0.88391500  1
  H  H60  1  0.95420000  0.79055200  0.11678800  1
  H  H61  1  0.04684100  0.29080400  0.02575100  1
  H  H62  1  0.95307400  0.29056900  0.97450900  1
  H  H63  1  0.54684100  0.79080400  0.02575100  1
  H  H64  1  0.45307400  0.79056900  0.97450900  1
  C  C1  1  0.91994500  0.49776000  0.57841800  1
  C  C2  1  0.07987900  0.49759000  0.41967700  1
  C  C3  1  0.41994500  0.99776000  0.57841800  1
  C  C4  1  0.57987900  0.99759000  0.41967700  1
  C  C5  1  0.99762300  0.49765400  0.38110600  1
  C  C6  1  0.00151900  0.49762500  0.61857400  1
  C  C7  1  0.49762300  0.99765400  0.38110600  1
  C  C8  1  0.50151900  0.99762500  0.61857400  1
  C  C9  1  0.99996900  0.37760500  0.99974400  1
  C  C10  1  0.49996900  0.87760500  0.99974400  1
  C  C11  1  0.49990000  0.62700900  0.00079800  1
  C  C12  1  0.99990000  0.12700900  0.00079800  1
  C  C13  1  0.99996300  0.29531200  0.00009700  1
  C  C14  1  0.49996300  0.79531200  0.00009700  1
  C  C15  1  0.97366600  0.27375800  0.98585200  1
  C  C16  1  0.02623100  0.27388900  0.01457700  1
  C  C17  1  0.47366600  0.77375800  0.98585200  1
  C  C18  1  0.52623100  0.77388900  0.01457700  1
  C  C19  1  0.96877900  0.53259800  0.31562900  1
  C  C20  1  0.02979400  0.53346600  0.68456100  1
  C  C21  1  0.46877900  0.03259800  0.31562900  1
  C  C22  1  0.52979400  0.03346600  0.68456100  1
  C  C23  1  0.97221500  0.53672600  0.24176500  1
  C  C24  1  0.02705400  0.53692100  0.75791200  1
  C  C25  1  0.47221500  0.03672600  0.24176500  1
  C  C26  1  0.52705400  0.03692100  0.75791200  1
  C  C27  1  0.04127000  0.50860100  0.24611400  1
  C  C28  1  0.95809700  0.50730400  0.75358300  1
  C  C29  1  0.54127000  0.00860100  0.24611400  1
  C  C30  1  0.45809700  0.00730400  0.75358300  1
  C  C31  1  0.98378200  0.45602600  0.29660800  1
  C  C32  1  0.01709400  0.45639800  0.70139200  1
  C  C33  1  0.48378200  0.95602600  0.29660800  1
  C  C34  1  0.51709400  0.95639800  0.70139200  1
  C  C35  1  0.99773400  0.49809100  0.31078100  1
  C  C36  1  0.00187000  0.49807200  0.68851000  1
  C  C37  1  0.49773400  0.99809100  0.31078100  1
  C  C38  1  0.50187000  0.99807200  0.68851000  1
  C  C39  1  0.99848400  0.50127900  0.19115400  1
  C  C40  1  0.00122200  0.50115500  0.80809900  1
  C  C41  1  0.49848400  0.00127900  0.19115400  1
  C  C42  1  0.50122200  0.00115500  0.80809900  1
  C  C43  1  0.04263100  0.50507200  0.17402600  1
  C  C44  1  0.95699700  0.50432700  0.82545700  1
  C  C45  1  0.54263100  0.00507200  0.17402600  1
  C  C46  1  0.45699700  0.00432700  0.82545700  1
  C  C47  1  0.97957600  0.46037700  0.23033800  1
  C  C48  1  0.02059800  0.46050100  0.76845500  1
  C  C49  1  0.47957600  0.96037700  0.23033800  1
  C  C50  1  0.52059800  0.96050100  0.76845500  1
  C  C51  1  0.72877100  0.47407700  0.81105100  1
  C  C52  1  0.27124900  0.47351800  0.19015000  1
  C  C53  1  0.22877100  0.97407700  0.81105100  1
  C  C54  1  0.77124900  0.97351800  0.19015000  1
  C  C55  1  0.70690900  0.50035100  0.79281700  1
  C  C56  1  0.29296200  0.49995300  0.20846400  1
  C  C57  1  0.20690900  0.00035100  0.79281700  1
  C  C58  1  0.79296200  0.99995300  0.20846400  1
  C  C59  1  0.72809200  0.52588600  0.73126100  1
  C  C60  1  0.27162900  0.52557600  0.26986700  1
  C  C61  1  0.22809200  0.02588600  0.73126100  1
  C  C62  1  0.77162900  0.02557600  0.26986700  1
  C  C63  1  0.77105000  0.52514800  0.68807000  1
  C  C64  1  0.22866400  0.52479900  0.31277600  1
  C  C65  1  0.27105000  0.02514800  0.68807000  1
  C  C66  1  0.72866400  0.02479900  0.31277600  1
  C  C67  1  0.79290600  0.49888700  0.70631900  1
  C  C68  1  0.20695800  0.49840500  0.29439300  1
  C  C69  1  0.29290600  0.99888700  0.70631900  1
  C  C70  1  0.70695800  0.99840500  0.29439300  1
  C  C71  1  0.77173500  0.47334500  0.76784300  1
  C  C72  1  0.22828400  0.47274700  0.23306800  1
  C  C73  1  0.27173500  0.97334500  0.76784300  1
  C  C74  1  0.72828400  0.97274700  0.23306800  1
  C  C75  1  0.66216300  0.50111700  0.83790000  1
  C  C76  1  0.33770800  0.50084500  0.16351200  1
  C  C77  1  0.16216300  0.00111700  0.83790000  1
  C  C78  1  0.83770800  0.00084500  0.16351200  1
  C  C79  1  0.83764800  0.49826300  0.66139300  1
  C  C80  1  0.16220500  0.49788500  0.33872400  1
  C  C81  1  0.33764800  0.99826300  0.66139300  1
  C  C82  1  0.66220500  0.99788500  0.33872400  1
  C  C83  1  0.87520600  0.49791600  0.62358400  1
  C  C84  1  0.12463500  0.49763100  0.37577600  1
  C  C85  1  0.37520600  0.99791600  0.62358400  1
  C  C86  1  0.62463500  0.99763100  0.37577600  1
  C  C87  1  0.62460500  0.50174100  0.87576100  1
  C  C88  1  0.37526500  0.50156500  0.12569000  1
  C  C89  1  0.12460500  0.00174100  0.87576100  1
  C  C90  1  0.87526500  0.00156500  0.12569000  1
  C  C91  1  0.49990400  0.66458300  0.00071700  1
  C  C92  1  0.99990400  0.16458300  0.00071700  1
  C  C93  1  0.99979700  0.58233300  0.99963700  1
  C  C94  1  0.49979700  0.08233300  0.99963700  1
  C  C95  1  0.99894000  0.50235100  0.12090400  1
  C  C96  1  0.00079200  0.50224500  0.87832700  1
  C  C97  1  0.49894000  0.00235100  0.12090400  1
  C  C98  1  0.50079200  0.00224500  0.87832700  1
  C  C99  1  0.99997600  0.34004000  0.99988800  1
  C  C100  1  0.49997600  0.84004000  0.99988800  1
  C  C101  1  0.99993500  0.42233300  0.99963500  1
  C  C102  1  0.49993500  0.92233300  0.99963500  1
  C  C103  1  0.49996500  0.42227000  0.00064200  1
  C  C104  1  0.99996500  0.92227000  0.00064200  1
  C  C105  1  0.57986800  0.50249300  0.92079800  1
  C  C106  1  0.42000000  0.50241100  0.08065300  1
  C  C107  1  0.07986800  0.00249300  0.92079800  1
  C  C108  1  0.92000000  0.00241100  0.08065300  1
  C  C109  1  0.49989900  0.58228400  0.00080200  1
  C  C110  1  0.99989900  0.08228400  0.00080200  1
  C  C111  1  0.52547900  0.27385000  0.93500900  1
  C  C112  1  0.47425400  0.27373400  0.06556900  1
  C  C113  1  0.02547900  0.77385000  0.93500900  1
  C  C114  1  0.97425400  0.77373400  0.06556900  1
  C  C115  1  0.49989300  0.29527300  0.00037000  1
  C  C116  1  0.99989300  0.79527300  0.00037000  1
  C  C117  1  0.97420700  0.73074900  0.06540600  1
  C  C118  1  0.02543200  0.73086600  0.93484600  1
  C  C119  1  0.47420700  0.23074900  0.06540600  1
  C  C120  1  0.52543200  0.23086600  0.93484600  1
  C  C121  1  0.99979500  0.70932700  0.00004400  1
  C  C122  1  0.49979500  0.20932700  0.00004400  1
  C  C123  1  0.49992800  0.33999200  0.00052000  1
  C  C124  1  0.99992800  0.83999200  0.00052000  1
  C  C125  1  0.99977100  0.66460800  0.99988300  1
  C  C126  1  0.49977100  0.16460800  0.99988300  1
  C  C127  1  0.99977000  0.62705000  0.99975800  1
  C  C128  1  0.49977000  0.12705000  0.99975800  1
  C  C129  1  0.49995200  0.37755100  0.00060400  1
  C  C130  1  0.99995200  0.87755100  0.00060400  1
  C  C131  1  0.52621200  0.73090000  0.01480400  1
  C  C132  1  0.47363500  0.73077000  0.98607300  1
  C  C133  1  0.02621200  0.23090000  0.01480400  1
  C  C134  1  0.97363500  0.23077000  0.98607300  1
  C  C135  1  0.49991000  0.70932800  0.00055100  1
  C  C136  1  0.99991000  0.20932800  0.00055100  1
  Cl  Cl1  1  0.70049400  0.55930400  0.70787800  1
  Cl  Cl2  1  0.29904100  0.55921200  0.29332900  1
  Cl  Cl3  1  0.20049400  0.05930400  0.70787800  1
  Cl  Cl4  1  0.79904100  0.05921200  0.29332900  1
  Cl  Cl5  1  0.55960500  0.70374700  0.03318400  1
  Cl  Cl6  1  0.44022000  0.70345300  0.96794800  1
  Cl  Cl7  1  0.05960500  0.20374700  0.03318400  1
  Cl  Cl8  1  0.94022000  0.20345300  0.96794800  1
  Cl  Cl9  1  0.02046100  0.41525600  0.27587500  1
  Cl  Cl10  1  0.98194600  0.41446900  0.71962700  1
  Cl  Cl11  1  0.52046100  0.91525600  0.27587500  1
  Cl  Cl12  1  0.48194600  0.91446900  0.71962700  1
  Cl  Cl13  1  0.93446800  0.44060500  0.37484800  1
  Cl  Cl14  1  0.06722200  0.44281600  0.62335200  1
  Cl  Cl15  1  0.43446800  0.94060500  0.37484800  1
  Cl  Cl16  1  0.56722200  0.94281600  0.62335200  1
  O  O1  1  0.93944400  0.53363200  0.56124700  1
  O  O2  1  0.06056700  0.53354800  0.44223100  1
  O  O3  1  0.43944400  0.03363200  0.56124700  1
  O  O4  1  0.56056700  0.03354800  0.44223100  1
  O  O5  1  0.93934400  0.46185500  0.56254100  1
  O  O6  1  0.06050800  0.46160500  0.44114200  1
  O  O7  1  0.43934400  0.96185500  0.56254100  1
  O  O8  1  0.56050800  0.96160500  0.44114200  1
  O  O9  1  0.00070000  0.53344700  0.40750700  1
  O  O10  1  0.00233100  0.53356900  0.58832600  1
  O  O11  1  0.50070000  0.03344700  0.40750700  1
  O  O12  1  0.50233100  0.03356900  0.58832600  1
  O  O13  1  0.99975600  0.46184200  0.40845800  1
  O  O14  1  0.00309300  0.46176600  0.58753100  1
  O  O15  1  0.49975600  0.96184200  0.40845800  1
  O  O16  1  0.50309300  0.96176600  0.58753100  1
  O  O17  1  0.96383900  0.56293100  0.03668400  1
  O  O18  1  0.03578800  0.56299200  0.96255500  1
  O  O19  1  0.46383900  0.06293100  0.03668400  1
  O  O20  1  0.53578800  0.06299200  0.96255500  1
  O  O21  1  0.96317600  0.50369900  0.12571400  1
  O  O22  1  0.03655500  0.50370000  0.87351200  1
  O  O23  1  0.46317600  0.00369900  0.12571400  1
  O  O24  1  0.53655500  0.00370000  0.87351200  1
  O  O25  1  0.03496500  0.50423100  0.05741400  1
  O  O26  1  0.96476700  0.50410000  0.94181600  1
  O  O27  1  0.53496500  0.00423100  0.05741400  1
  O  O28  1  0.46476700  0.00410000  0.94181600  1
  O  O29  1  0.96402600  0.44171200  0.03601500  1
  O  O30  1  0.03581200  0.44177300  0.96322000  1
  O  O31  1  0.46402600  0.94171200  0.03601500  1
  O  O32  1  0.53581200  0.94177300  0.96322000  1
  O  O33  1  0.49720000  0.44166000  0.94923600  1
  O  O34  1  0.50272200  0.44163200  0.05208400  1
  O  O35  1  0.99720000  0.94166000  0.94923600  1
  O  O36  1  0.00272200  0.94163200  0.05208400  1
  O  O37  1  0.55940300  0.50079800  0.88726700  1
  O  O38  1  0.44046600  0.50071200  0.11417800  1
  O  O39  1  0.05940300  0.00079800  0.88726700  1
  O  O40  1  0.94046600  0.00071200  0.11417800  1
  O  O41  1  0.56153800  0.50060700  0.99334900  1
  O  O42  1  0.43833100  0.50057800  0.00809700  1
  O  O43  1  0.06153800  0.00060700  0.99334900  1
  O  O44  1  0.93833100  0.00057800  0.00809700  1
  O  O45  1  0.49711400  0.56288000  0.94955200  1
  O  O46  1  0.50270000  0.56285500  0.05202200  1
  O  O47  1  0.99711400  0.06288000  0.94955200  1
  O  O48  1  0.00270000  0.06285500  0.05202200  1
