# generated using pymatgen
data_Cu2H22C27(NO4)2
_symmetry_space_group_name_H-M   'P 1'
_cell_length_a   9.53739800
_cell_length_b   11.04681400
_cell_length_c   17.40187200
_cell_angle_alpha   90.00673100
_cell_angle_beta   86.25623700
_cell_angle_gamma   90.01983700
_symmetry_Int_Tables_number   1
_chemical_formula_structural   Cu2H22C27(NO4)2
_chemical_formula_sum   'Cu2 H22 C27 N2 O8'
_cell_volume   1829.51144716
_cell_formula_units_Z   1
loop_
 _symmetry_equiv_pos_site_id
 _symmetry_equiv_pos_as_xyz
  1  'x, y, z'
loop_
 _atom_site_type_symbol
 _atom_site_label
 _atom_site_symmetry_multiplicity
 _atom_site_fract_x
 _atom_site_fract_y
 _atom_site_fract_z
 _atom_site_occupancy
  Cu  Cu1  1  0.35404800  0.48632700  0.49417900  1
  Cu  Cu2  1  0.63551000  0.48614100  0.49754200  1
  H  H1  1  0.67283400  0.42033300  0.73496300  1
  H  H2  1  0.30409300  0.50693300  0.25346500  1
  H  H3  1  0.75105400  0.46280000  0.25069700  1
  H  H4  1  0.65649300  0.49719600  0.99013800  1
  H  H5  1  0.25187100  0.55129100  0.88834500  1
  H  H6  1  0.31418100  0.51189400  0.11844200  1
  H  H7  1  0.33753900  0.46524800  0.99988300  1
  H  H8  1  0.66542700  0.40917700  0.87342900  1
  H  H9  1  0.76025000  0.45874600  0.11041900  1
  H  H10  1  0.70532900  0.09859300  0.50064800  1
  H  H11  1  0.38727600  0.07904300  0.49806300  1
  H  H12  1  0.70688900  0.87757600  0.50326100  1
  H  H13  1  0.38723100  0.88961900  0.48952900  1
  H  H14  1  0.11685500  0.62167100  0.57257000  1
  H  H15  1  0.09717800  0.44956700  0.44786700  1
  H  H16  1  0.86537800  0.65543900  0.54090600  1
  H  H17  1  0.89327000  0.40015600  0.50003900  1
  H  H18  1  0.16221800  0.52750300  0.70889300  1
  H  H19  1  0.26762900  0.66222400  0.69210800  1
  H  H20  1  0.17765200  0.74634800  0.82118500  1
  H  H21  1  0.95074800  0.56941700  0.77719000  1
  H  H22  1  0.93491100  0.69843900  0.84693200  1
  C  C1  1  0.49735700  0.71905500  0.49413700  1
  C  C2  1  0.47308300  0.49191600  0.64474100  1
  C  C3  1  0.49224000  0.25348700  0.49984400  1
  C  C4  1  0.51623000  0.48237900  0.34836400  1
  C  C5  1  0.46394300  0.49245800  0.72984400  1
  C  C6  1  0.57803900  0.44959000  0.76768600  1
  C  C7  1  0.57492600  0.44486500  0.84691700  1
  C  C8  1  0.45519300  0.48042600  0.88958400  1
  C  C9  1  0.34267400  0.52491900  0.85279300  1
  C  C10  1  0.34666700  0.53641600  0.77343200  1
  C  C11  1  0.41166500  0.49568000  0.14491600  1
  C  C12  1  0.40561800  0.49380100  0.22400900  1
  C  C13  1  0.65391800  0.47065000  0.22209200  1
  C  C14  1  0.65946000  0.46804700  0.14242600  1
  C  C15  1  0.53910100  0.48066900  0.10275600  1
  C  C16  1  0.44230900  0.47367300  0.97410000  1
  C  C17  1  0.55242700  0.48441400  0.01758400  1
  C  C18  1  0.52611100  0.48049800  0.26353700  1
  C  C19  1  0.60528600  0.05402500  0.49836500  1
  C  C20  1  0.48877000  0.12081900  0.49965000  1
  C  C21  1  0.60596300  0.92025200  0.49840000  1
  C  C22  1  0.49095600  0.85160300  0.49436800  1
  C  C23  1  0.06710800  0.55950900  0.53561200  1
  C  C24  1  0.91496000  0.57041400  0.52620600  1
  C  C25  1  0.22609800  0.59704700  0.73624800  1
  C  C26  1  0.13404000  0.67023700  0.79174200  1
  C  C27  1  0.99851600  0.64433900  0.80578100  1
  N  N1  1  0.14507200  0.48971000  0.49311600  1
  N  N2  1  0.84469200  0.48382500  0.49897200  1
  O  O1  1  0.37730700  0.66255900  0.49317600  1
  O  O2  1  0.61770600  0.66162900  0.49797400  1
  O  O3  1  0.35758700  0.49365400  0.60684700  1
  O  O4  1  0.59925500  0.48470900  0.60922500  1
  O  O5  1  0.37292500  0.31092600  0.49696000  1
  O  O6  1  0.61219800  0.30960100  0.50169600  1
  O  O7  1  0.39142400  0.48777600  0.38313300  1
  O  O8  1  0.63061100  0.47876700  0.38545700  1
