# generated using pymatgen
data_ZnH13C29(NO3)2
_symmetry_space_group_name_H-M   'P 1'
_cell_length_a   13.43392000
_cell_length_b   8.54506400
_cell_length_c   23.28942700
_cell_angle_alpha   90.00000000
_cell_angle_beta   93.90192500
_cell_angle_gamma   90.00000000
_symmetry_Int_Tables_number   1
_chemical_formula_structural   ZnH13C29(NO3)2
_chemical_formula_sum   'Zn2 H26 C58 N4 O12'
_cell_volume   2667.28249573
_cell_formula_units_Z   2
loop_
 _symmetry_equiv_pos_site_id
 _symmetry_equiv_pos_as_xyz
  1  'x, y, z'
loop_
 _atom_site_type_symbol
 _atom_site_label
 _atom_site_symmetry_multiplicity
 _atom_site_fract_x
 _atom_site_fract_y
 _atom_site_fract_z
 _atom_site_occupancy
  Zn  Zn1  1  0.89304800  0.49925300  0.49890200  1
  Zn  Zn2  1  0.11527800  0.49975500  0.49968700  1
  H  H1  1  0.98271200  0.24972700  0.69285900  1
  H  H2  1  0.96568200  0.74883000  0.68688200  1
  H  H3  1  0.80647400  0.27839300  0.84976300  1
  H  H4  1  0.13429500  0.69713700  0.85989500  1
  H  H5  1  0.00617800  0.25117500  0.30598700  1
  H  H6  1  0.00257000  0.74959100  0.30373700  1
  H  H7  1  0.80436500  0.25363100  0.13759000  1
  H  H8  1  0.18323600  0.75439000  0.14515800  1
  H  H9  1  0.79322500  0.25277800  0.03638200  1
  H  H10  1  0.17880700  0.74920200  0.04421300  1
  H  H11  1  0.80945600  0.28575400  0.95089400  1
  H  H12  1  0.14019700  0.69398500  0.96066400  1
  H  H13  1  0.05679800  0.00425200  0.54365600  1
  H  H14  1  0.97577200  0.99565800  0.45977300  1
  H  H15  1  0.73799900  0.49311700  0.40793900  1
  H  H16  1  0.57642400  0.48926700  0.35825200  1
  H  H17  1  0.39474800  0.48850500  0.35925500  1
  H  H18  1  0.44225600  0.50745300  0.59469100  1
  H  H19  1  0.59388200  0.50256200  0.59454500  1
  H  H20  1  0.24696100  0.49208000  0.41083400  1
  H  H21  1  0.76900000  0.50440200  0.58840200  1
  H  H22  1  0.25365100  0.26677500  0.61993500  1
  H  H23  1  0.21007900  0.28825700  0.72032500  1
  H  H24  1  0.20566900  0.54613500  0.76664500  1
  H  H25  1  0.24365800  0.78344600  0.71139400  1
  H  H26  1  0.27865800  0.76203900  0.61016400  1
  C  C1  1  0.91220700  0.09140700  0.78661600  1
  C  C2  1  0.03005100  0.89018300  0.79105000  1
  C  C3  1  0.98321200  0.85965700  0.66759300  1
  C  C4  1  0.98911100  0.13978700  0.67054800  1
  C  C5  1  0.01306500  0.86199700  0.61218600  1
  C  C6  1  0.01437600  0.14107000  0.61395100  1
  C  C7  1  0.97912900  0.99772400  0.69870500  1
  C  C8  1  0.97296300  0.99083800  0.87854400  1
  C  C9  1  0.91254100  0.09232200  0.84626900  1
  C  C10  1  0.03078500  0.88781900  0.85025800  1
  C  C11  1  0.85379600  0.19591700  0.87387400  1
  C  C12  1  0.09032600  0.78267600  0.88112100  1
  C  C13  1  0.03382000  0.00243000  0.58698800  1
  C  C14  1  0.98497600  0.99714300  0.41431100  1
  C  C15  1  0.91738100  0.09315900  0.02659700  1
  C  C16  1  0.04953400  0.90181200  0.02966800  1
  C  C17  1  0.98594900  0.99894700  0.05778500  1
  C  C18  1  0.85185100  0.18290100  0.05677100  1
  C  C19  1  0.12171500  0.81744000  0.06240900  1
  C  C20  1  0.85676100  0.18257400  0.11590700  1
  C  C21  1  0.12644600  0.82229700  0.12140100  1
  C  C22  1  0.92682700  0.09313200  0.14656100  1
  C  C23  1  0.06017000  0.91222300  0.14926200  1
  C  C24  1  0.99100600  0.00153400  0.11763200  1
  C  C25  1  0.06385500  0.91461200  0.20873800  1
  C  C26  1  0.93157000  0.09265700  0.20609300  1
  C  C27  1  0.00059100  0.14035000  0.32791300  1
  C  C28  1  0.00117300  0.85932200  0.32673100  1
  C  C29  1  0.99321500  0.13754300  0.38661500  1
  C  C30  1  0.99332200  0.85842600  0.38549500  1
  C  C31  1  0.00109900  0.00096400  0.29751100  1
  C  C32  1  0.91568000  0.09514400  0.96634800  1
  C  C33  1  0.04094300  0.89276400  0.96968100  1
  C  C34  1  0.97636400  0.99282300  0.93837100  1
  C  C35  1  0.85522700  0.19778200  0.93301800  1
  C  C36  1  0.09497700  0.78404000  0.94004900  1
  C  C37  1  0.01118400  0.72088400  0.57672700  1
  C  C38  1  0.01157600  0.28361400  0.57901900  1
  C  C39  1  0.99677000  0.71515100  0.41968300  1
  C  C40  1  0.99681000  0.27926000  0.42152500  1
  C  C41  1  0.29164900  0.49483100  0.45120500  1
  C  C42  1  0.30234100  0.50239400  0.55147700  1
  C  C43  1  0.40451300  0.50233100  0.55264200  1
  C  C44  1  0.45316100  0.49788600  0.50233200  1
  C  C45  1  0.39500300  0.49435600  0.45107900  1
  C  C46  1  0.61984500  0.50107100  0.55198300  1
  C  C47  1  0.55728800  0.49804100  0.50194600  1
  C  C48  1  0.60105000  0.49508000  0.44992000  1
  C  C49  1  0.54229900  0.49154600  0.39896700  1
  C  C50  1  0.43978600  0.49101800  0.39952300  1
  C  C51  1  0.72163700  0.50189000  0.54901500  1
  C  C52  1  0.70400000  0.49561500  0.44868800  1
  C  C53  1  0.25951400  0.51433200  0.60709600  1
  C  C54  1  0.24494300  0.38097600  0.63894600  1
  C  C55  1  0.22232900  0.39282600  0.69565100  1
  C  C56  1  0.21989000  0.53757500  0.72162800  1
  C  C57  1  0.23987100  0.67028100  0.69073700  1
  C  C58  1  0.25936300  0.65848000  0.63364300  1
  N  N1  1  0.97184100  0.99196600  0.75978300  1
  N  N2  1  0.99945200  0.00354500  0.23622000  1
  N  N3  1  0.24615800  0.49928100  0.50108900  1
  N  N4  1  0.76242400  0.49930500  0.49800800  1
  O  O1  1  0.85092200  0.18790500  0.75540400  1
  O  O2  1  0.09183700  0.79476700  0.76477600  1
  O  O3  1  0.86589400  0.17728800  0.23409700  1
  O  O4  1  0.13333400  0.83061700  0.23938200  1
  O  O5  1  0.09498600  0.67104800  0.55725900  1
  O  O6  1  0.09476600  0.33233300  0.55867400  1
  O  O7  1  0.92364500  0.66425900  0.55932300  1
  O  O8  1  0.92375000  0.33817500  0.56081300  1
  O  O9  1  0.91313200  0.66666667  0.43983400  1
  O  O10  1  0.91312700  0.32823200  0.44127800  1
  O  O11  1  0.08506400  0.66113800  0.43782100  1
  O  O12  1  0.08489600  0.33469800  0.43919100  1
