# generated using pymatgen
data_ZnH12C27NO4F
_symmetry_space_group_name_H-M   'P 1'
_cell_length_a   17.59678300
_cell_length_b   8.51960400
_cell_length_c   10.90121500
_cell_angle_alpha   90.00000000
_cell_angle_beta   90.90280300
_cell_angle_gamma   90.00000000
_symmetry_Int_Tables_number   1
_chemical_formula_structural   ZnH12C27NO4F
_chemical_formula_sum   'Zn2 H24 C54 N2 O8 F2'
_cell_volume   1634.08136343
_cell_formula_units_Z   2
loop_
 _symmetry_equiv_pos_site_id
 _symmetry_equiv_pos_as_xyz
  1  'x, y, z'
loop_
 _atom_site_type_symbol
 _atom_site_label
 _atom_site_symmetry_multiplicity
 _atom_site_fract_x
 _atom_site_fract_y
 _atom_site_fract_z
 _atom_site_occupancy
  Zn  Zn1  1  0.91518600  0.46436800  0.99945900  1
  Zn  Zn2  1  0.08481400  0.46436800  0.00054100  1
  H  H1  1  0.99963800  0.57450900  0.61093000  1
  H  H2  1  0.00036200  0.57451000  0.38906900  1
  H  H3  1  0.98758900  0.22108000  0.40819100  1
  H  H4  1  0.01241100  0.22107900  0.59180900  1
  H  H5  1  0.98018800  0.96148500  0.91132200  1
  H  H6  1  0.01981200  0.96148500  0.08867800  1
  H  H7  1  0.69581400  0.49123300  0.29912400  1
  H  H8  1  0.30418600  0.49123300  0.70087600  1
  H  H9  1  0.31816400  0.44055500  0.30834600  1
  H  H10  1  0.68183600  0.44055500  0.69165400  1
  H  H11  1  0.44968200  0.43926000  0.30842400  1
  H  H12  1  0.55031800  0.43926000  0.69157600  1
  H  H13  1  0.56170900  0.49589800  0.30695500  1
  H  H14  1  0.43829100  0.49589800  0.69304500  1
  H  H15  1  0.81057500  0.47691300  0.18750500  1
  H  H16  1  0.18942600  0.47691300  0.81249500  1
  H  H17  1  0.81022100  0.69920100  0.74555400  1
  H  H18  1  0.84944800  0.68723100  0.53063300  1
  H  H19  1  0.85098600  0.18796900  0.54813900  1
  H  H20  1  0.80881100  0.20012800  0.76162800  1
  H  H21  1  0.18978000  0.69920100  0.25444600  1
  H  H22  1  0.15055300  0.68723100  0.46936700  1
  H  H23  1  0.14901500  0.18796900  0.45186100  1
  H  H24  1  0.19118900  0.20012800  0.23837200  1
  C  C1  1  0.00099100  0.96784600  0.56429100  1
  C  C2  1  0.99900900  0.96784600  0.43570900  1
  C  C3  1  0.00064600  0.82515600  0.62722600  1
  C  C4  1  0.99935500  0.82515600  0.37277400  1
  C  C5  1  0.00039800  0.68547600  0.56312200  1
  C  C6  1  0.99960200  0.68547600  0.43687800  1
  C  C7  1  0.00176100  0.82414600  0.24551300  1
  C  C8  1  0.99823900  0.82414600  0.75448700  1
  C  C9  1  0.00933700  0.96299500  0.18454800  1
  C  C10  1  0.99066300  0.96299500  0.81545200  1
  C  C11  1  0.00104100  0.10335900  0.24270300  1
  C  C12  1  0.99895900  0.10335900  0.75729700  1
  C  C13  1  0.99480800  0.10713000  0.36806200  1
  C  C14  1  0.00519200  0.10713000  0.63193800  1
  C  C15  1  0.00005200  0.68229700  0.16917400  1
  C  C16  1  0.99994800  0.68229700  0.83082600  1
  C  C17  1  0.00019900  0.24520400  0.83254600  1
  C  C18  1  0.99980200  0.24520400  0.16745400  1
  C  C19  1  0.77843200  0.47168000  0.10237100  1
  C  C20  1  0.22156900  0.47168000  0.89762900  1
  C  C21  1  0.77504500  0.45748800  0.88842500  1
  C  C22  1  0.22495500  0.45748800  0.11157500  1
  C  C23  1  0.65801100  0.46605500  0.99715500  1
  C  C24  1  0.34198900  0.46605500  0.00284500  1
  C  C25  1  0.69991700  0.47280800  0.10447600  1
  C  C26  1  0.30008300  0.47280800  0.89552400  1
  C  C27  1  0.66343200  0.48261300  0.21429700  1
  C  C28  1  0.33656800  0.48261300  0.78570300  1
  C  C29  1  0.69617900  0.45820900  0.88839600  1
  C  C30  1  0.30382200  0.45820900  0.11160400  1
  C  C31  1  0.46234100  0.46396000  0.11108900  1
  C  C32  1  0.53765900  0.46396000  0.88891100  1
  C  C33  1  0.45821700  0.47089000  0.89012900  1
  C  C34  1  0.54178300  0.47089000  0.10987100  1
  C  C35  1  0.42107900  0.46705800  0.00138200  1
  C  C36  1  0.57892100  0.46705800  0.99861800  1
  C  C37  1  0.42277500  0.45193200  0.22000700  1
  C  C38  1  0.57722500  0.45193200  0.77999300  1
  C  C39  1  0.34489000  0.44980100  0.22022400  1
  C  C40  1  0.65511100  0.44980100  0.77977600  1
  C  C41  1  0.58540300  0.48245300  0.21748500  1
  C  C42  1  0.41459700  0.48245300  0.78251500  1
  C  C43  1  0.81298600  0.45055000  0.77035200  1
  C  C44  1  0.82241000  0.58695300  0.70400100  1
  C  C45  1  0.84376900  0.58021800  0.58296600  1
  C  C46  1  0.85518000  0.43692100  0.52750600  1
  C  C47  1  0.84410600  0.30040800  0.59255300  1
  C  C48  1  0.82136400  0.30728500  0.71283300  1
  C  C49  1  0.18701400  0.45055000  0.22964800  1
  C  C50  1  0.17759000  0.58695300  0.29599900  1
  C  C51  1  0.15623200  0.58021800  0.41703400  1
  C  C52  1  0.14482000  0.43692100  0.47249400  1
  C  C53  1  0.15589500  0.30040800  0.40744700  1
  C  C54  1  0.17863700  0.30728500  0.28716700  1
  N  N1  1  0.81531200  0.46444900  0.99525700  1
  N  N2  1  0.18468800  0.46444900  0.00474300  1
  O  O1  1  0.06477700  0.63330000  0.12525600  1
  O  O2  1  0.93522300  0.63330000  0.87474400  1
  O  O3  1  0.93378400  0.62874200  0.12986900  1
  O  O4  1  0.06621600  0.62874200  0.87013100  1
  O  O5  1  0.93530400  0.29423000  0.87586000  1
  O  O6  1  0.06469600  0.29423000  0.12414000  1
  O  O7  1  0.06637200  0.30061500  0.86977900  1
  O  O8  1  0.93362800  0.30061500  0.13022100  1
  F  F1  1  0.87425300  0.43002400  0.40775800  1
  F  F2  1  0.12574800  0.43002400  0.59224200  1
