# generated using pymatgen
data_ZnH21C38NO4
_symmetry_space_group_name_H-M   'P 1'
_cell_length_a   15.30276200
_cell_length_b   11.83671100
_cell_length_c   17.47006300
_cell_angle_alpha   90.15748800
_cell_angle_beta   90.00639400
_cell_angle_gamma   90.00000000
_symmetry_Int_Tables_number   1
_chemical_formula_structural   ZnH21C38NO4
_chemical_formula_sum   'Zn2 H42 C76 N2 O8'
_cell_volume   3164.41690426
_cell_formula_units_Z   2
loop_
 _symmetry_equiv_pos_site_id
 _symmetry_equiv_pos_as_xyz
  1  'x, y, z'
loop_
 _atom_site_type_symbol
 _atom_site_label
 _atom_site_symmetry_multiplicity
 _atom_site_fract_x
 _atom_site_fract_y
 _atom_site_fract_z
 _atom_site_occupancy
  Zn  Zn1  1  0.50145300  0.48500300  0.91593300  1
  Zn  Zn2  1  0.49780600  0.48831500  0.08593200  1
  H  H1  1  0.19229200  0.89516300  0.11567900  1
  H  H2  1  0.80790000  0.07219600  0.89144200  1
  H  H3  1  0.26593700  0.68267500  0.88239100  1
  H  H4  1  0.73257600  0.29465000  0.12014600  1
  H  H5  1  0.31939600  0.77132800  0.11531300  1
  H  H6  1  0.68092900  0.19743200  0.88849100  1
  H  H7  1  0.13755800  0.80489100  0.88445300  1
  H  H8  1  0.86065200  0.17281200  0.12118800  1
  H  H9  1  0.30665500  0.22360400  0.12126700  1
  H  H10  1  0.71344100  0.72066300  0.88064800  1
  H  H11  1  0.28149700  0.26709300  0.87989300  1
  H  H12  1  0.69234900  0.74295800  0.12396500  1
  H  H13  1  0.17854700  0.10228200  0.12098800  1
  H  H14  1  0.84111700  0.84315800  0.88459400  1
  H  H15  1  0.99817100  0.77907600  0.99928400  1
  H  H16  1  0.00135600  0.19358000  0.00792300  1
  H  H17  1  0.50860800  0.30727300  0.80787600  1
  H  H18  1  0.49137500  0.66606900  0.19394600  1
  H  H19  1  0.51329800  0.20536300  0.68868500  1
  H  H20  1  0.48817300  0.76812800  0.31312500  1
  H  H21  1  0.49244500  0.76568900  0.69147500  1
  H  H22  1  0.50826100  0.20775400  0.31038200  1
  H  H23  1  0.51703000  0.10474400  0.56897200  1
  H  H24  1  0.48581200  0.86887200  0.43281100  1
  H  H25  1  0.51466500  0.10559600  0.42895700  1
  H  H26  1  0.48749600  0.86797400  0.57286500  1
  H  H27  1  0.49667000  0.66230200  0.80931500  1
  H  H28  1  0.50272100  0.31101000  0.19256300  1
  H  H29  1  0.10460300  0.21079100  0.84311100  1
  H  H30  1  0.09773300  0.06172000  0.86019200  1
  H  H31  1  0.16273000  0.24893700  0.72416700  1
  H  H32  1  0.26366300  0.20705900  0.61923400  1
  H  H33  1  0.36374500  0.04509300  0.62794100  1
  H  H34  1  0.36325000  0.92536300  0.74268200  1
  H  H35  1  0.26279300  0.96672200  0.84825100  1
  H  H36  1  0.77718600  0.86257500  0.19343900  1
  H  H37  1  0.84588000  0.96434500  0.14899800  1
  H  H38  1  0.98923600  0.95074900  0.19228300  1
  H  H39  1  0.11303600  0.84089200  0.24042100  1
  H  H40  1  0.10189700  0.63451900  0.25209400  1
  H  H41  1  0.96531400  0.53804700  0.21697700  1
  H  H42  1  0.84029600  0.64683000  0.17055800  1
  C  C1  1  0.30233600  0.71946400  0.99847000  1
  C  C2  1  0.69712300  0.25378100  0.00443200  1
  C  C3  1  0.07770900  0.92695800  0.00181200  1
  C  C4  1  0.92171800  0.04559200  0.00704400  1
  C  C5  1  0.20955600  0.85049700  0.06389300  1
  C  C6  1  0.79022700  0.11940400  0.94217100  1
  C  C7  1  0.25143100  0.73061000  0.93356900  1
  C  C8  1  0.74733500  0.24474000  0.06990100  1
  C  C9  1  0.28092000  0.77950100  0.06374300  1
  C  C10  1  0.71902500  0.19102500  0.94039700  1
  C  C11  1  0.15835100  0.86086200  0.99931200  1
  C  C12  1  0.84093300  0.11177300  0.00734500  1
  C  C13  1  0.17866200  0.79927100  0.93463300  1
  C  C14  1  0.81992700  0.17595700  0.07067600  1
  C  C15  1  0.30435500  0.25135700  0.99990800  1
  C  C16  1  0.69378800  0.72355000  0.00231600  1
  C  C17  1  0.07869100  0.04392300  0.00430100  1
  C  C18  1  0.92088000  0.92852400  0.00523000  1
  C  C19  1  0.19004900  0.15433000  0.93138300  1
  C  C20  1  0.79750200  0.83445800  0.07376700  1
  C  C21  1  0.27514700  0.20432900  0.06743800  1
  C  C22  1  0.73531800  0.75338300  0.93518100  1
  C  C23  1  0.26113000  0.22684600  0.93233000  1
  C  C24  1  0.72416100  0.76616300  0.07110500  1
  C  C25  1  0.16054400  0.10816200  0.99994300  1
  C  C26  1  0.83928500  0.86366400  0.00594900  1
  C  C27  1  0.20311100  0.13455000  0.06733400  1
  C  C28  1  0.80772800  0.82258200  0.93727200  1
  C  C29  1  0.99887900  0.87036900  0.00118500  1
  C  C30  1  0.00062400  0.10225500  0.00729100  1
  C  C31  1  0.62173300  0.64162200  0.00154000  1
  C  C32  1  0.37713600  0.33223900  0.00032400  1
  C  C33  1  0.62405900  0.33372900  0.00249500  1
  C  C34  1  0.37522000  0.63944100  0.99948300  1
  C  C35  1  0.50604900  0.38607800  0.77687700  1
  C  C36  1  0.49392500  0.58728000  0.22496400  1
  C  C37  1  0.49922800  0.58377900  0.77773100  1
  C  C38  1  0.50039800  0.38955400  0.22413800  1
  C  C39  1  0.51005700  0.28444200  0.65801400  1
  C  C40  1  0.49129900  0.68905100  0.34380800  1
  C  C41  1  0.50623500  0.38522200  0.69783100  1
  C  C42  1  0.49441700  0.58821300  0.30400700  1
  C  C43  1  0.50230600  0.48570200  0.65862000  1
  C  C44  1  0.49840900  0.48774700  0.34322500  1
  C  C45  1  0.49894900  0.58566800  0.69876200  1
  C  C46  1  0.50139100  0.38774500  0.30309500  1
  C  C47  1  0.49506900  0.68701600  0.65999500  1
  C  C48  1  0.50573300  0.28643900  0.34185700  1
  C  C49  1  0.51318600  0.18421800  0.53884300  1
  C  C50  1  0.48908700  0.78936400  0.46296400  1
  C  C51  1  0.50946000  0.28471800  0.57895500  1
  C  C52  1  0.49223900  0.68881500  0.42286700  1
  C  C53  1  0.50499700  0.38568200  0.53988300  1
  C  C54  1  0.49640700  0.58783400  0.46195000  1
  C  C55  1  0.51190200  0.18469900  0.45992700  1
  C  C56  1  0.49005600  0.78885800  0.54189400  1
  C  C57  1  0.50713600  0.28570500  0.42087700  1
  C  C58  1  0.49422100  0.68780600  0.58096100  1
  C  C59  1  0.50162500  0.48623900  0.57976900  1
  C  C60  1  0.49952100  0.48725600  0.42207000  1
  C  C61  1  0.49743100  0.58732300  0.54088400  1
  C  C62  1  0.50388900  0.38618600  0.46095300  1
  C  C63  1  0.14314500  0.13424400  0.85697200  1
  C  C64  1  0.20606700  0.11051600  0.79351700  1
  C  C65  1  0.20669600  0.17783700  0.72896800  1
  C  C66  1  0.26341000  0.15438700  0.66968300  1
  C  C67  1  0.31953200  0.06364800  0.67453600  1
  C  C68  1  0.31917500  0.99648500  0.73881900  1
  C  C69  1  0.26250300  0.01975300  0.79814300  1
  C  C70  1  0.82980000  0.87335200  0.15047400  1
  C  C71  1  0.90687000  0.80602200  0.17640000  1
  C  C72  1  0.98353000  0.85999600  0.19684500  1
  C  C73  1  0.05335700  0.79836700  0.22406500  1
  C  C74  1  0.04708600  0.68270400  0.23078000  1
  C  C75  1  0.97058600  0.62866200  0.21099300  1
  C  C76  1  0.90041700  0.69015100  0.18434700  1
  N  N1  1  0.50201600  0.48467500  0.81553400  1
  N  N2  1  0.49731800  0.48862300  0.18632800  1
  O  O1  1  0.59310200  0.60318000  0.06733500  1
  O  O2  1  0.40588000  0.37048000  0.93448800  1
  O  O3  1  0.59147500  0.60607300  0.93534200  1
  O  O4  1  0.40786800  0.36716700  0.06651000  1
  O  O5  1  0.59629100  0.37067100  0.93604000  1
  O  O6  1  0.40284700  0.60235400  0.06587100  1
  O  O7  1  0.59195800  0.36915600  0.06781100  1
  O  O8  1  0.40737400  0.60435400  0.93402000  1
