# generated using pymatgen
data_Zn2H34C40N2O9
_symmetry_space_group_name_H-M   'P 1'
_cell_length_a   14.80359400
_cell_length_b   15.95295700
_cell_length_c   17.48539300
_cell_angle_alpha   90.00673600
_cell_angle_beta   86.39187000
_cell_angle_gamma   90.04399500
_symmetry_Int_Tables_number   1
_chemical_formula_structural   Zn2H34C40N2O9
_chemical_formula_sum   'Zn2 H34 C40 N2 O9'
_cell_volume   4121.18319369
_cell_formula_units_Z   1
loop_
 _symmetry_equiv_pos_site_id
 _symmetry_equiv_pos_as_xyz
  1  'x, y, z'
loop_
 _atom_site_type_symbol
 _atom_site_label
 _atom_site_symmetry_multiplicity
 _atom_site_fract_x
 _atom_site_fract_y
 _atom_site_fract_z
 _atom_site_occupancy
  Zn  Zn1  1  0.39729400  0.49965200  0.50064100  1
  Zn  Zn2  1  0.60300100  0.50027800  0.49912000  1
  H  H1  1  0.62877500  0.50631600  0.74224900  1
  H  H2  1  0.37152000  0.49361500  0.25751100  1
  H  H3  1  0.66084300  0.49696500  0.25351200  1
  H  H4  1  0.59780300  0.46776000  0.99674400  1
  H  H5  1  0.33243200  0.50702700  0.88529200  1
  H  H6  1  0.37854500  0.48767200  0.12014700  1
  H  H7  1  0.33945300  0.50297400  0.74624800  1
  H  H8  1  0.40249200  0.53216100  0.00301700  1
  H  H9  1  0.62175100  0.51224900  0.87961300  1
  H  H10  1  0.66786400  0.49290800  0.11446700  1
  H  H11  1  0.43692500  0.93608200  0.39213100  1
  H  H12  1  0.64487600  0.93319900  0.49996700  1
  H  H13  1  0.60217700  0.92586900  0.40564400  1
  H  H14  1  0.58948600  0.06671800  0.39791500  1
  H  H15  1  0.64640400  0.07372500  0.48582300  1
  H  H16  1  0.41856600  0.93376600  0.60539100  1
  H  H17  1  0.53865100  0.92397100  0.61630200  1
  H  H18  1  0.43624900  0.07410200  0.61485300  1
  H  H19  1  0.35857200  0.92532500  0.47506700  1
  H  H20  1  0.35632000  0.06517500  0.49549300  1
  H  H21  1  0.55805000  0.06444000  0.61008200  1
  H  H22  1  0.08117400  0.63449300  0.48633200  1
  H  H23  1  0.93098300  0.63085900  0.47068700  1
  H  H24  1  0.93674700  0.40750900  0.40941900  1
  H  H25  1  0.93144500  0.51442800  0.37592400  1
  H  H26  1  0.08261900  0.52979100  0.38070200  1
  H  H27  1  0.08906100  0.41915700  0.40170800  1
  H  H28  1  0.91784500  0.46111200  0.61685600  1
  H  H29  1  0.91596700  0.37599900  0.54880300  1
  H  H30  1  0.06970900  0.44670100  0.61448900  1
  H  H31  1  0.91353600  0.60903600  0.57192900  1
  H  H32  1  0.06404400  0.59895500  0.58428400  1
  H  H33  1  0.06865300  0.37152900  0.53725100  1
  H  H34  1  0.35243500  0.09889000  0.38380800  1
  C  C1  1  0.49926300  0.66377200  0.49843300  1
  C  C2  1  0.48954400  0.50169700  0.64992400  1
  C  C3  1  0.50103200  0.33615700  0.50133400  1
  C  C4  1  0.51075100  0.49823400  0.34983700  1
  C  C5  1  0.48469500  0.50342800  0.73396500  1
  C  C6  1  0.56308200  0.50560100  0.77288200  1
  C  C7  1  0.55890200  0.50791500  0.85185700  1
  C  C8  1  0.47589300  0.50747200  0.89318100  1
  C  C9  1  0.39777500  0.50653400  0.85401400  1
  C  C10  1  0.40189800  0.50412400  0.77506200  1
  C  C11  1  0.44139400  0.49201300  0.14790300  1
  C  C12  1  0.43721300  0.49433200  0.22687800  1
  C  C13  1  0.59839700  0.49581300  0.22469800  1
  C  C14  1  0.60252000  0.49340000  0.14574600  1
  C  C15  1  0.52440300  0.49245500  0.10657900  1
  C  C16  1  0.46690300  0.51102200  0.97760300  1
  C  C17  1  0.53339200  0.48889800  0.02215700  1
  C  C18  1  0.51560000  0.49650700  0.26579500  1
  C  C19  1  0.42378800  0.95329600  0.45326400  1
  C  C20  1  0.58953600  0.95255000  0.46389400  1
  C  C21  1  0.58683900  0.04725300  0.45887600  1
  C  C22  1  0.50106000  0.24622800  0.50137400  1
  C  C23  1  0.49984300  0.92088000  0.49924000  1
  C  C24  1  0.41878600  0.04770900  0.46083700  1
  C  C25  1  0.50057000  0.07904100  0.50052400  1
  C  C26  1  0.49563700  0.04663200  0.58212700  1
  C  C27  1  0.48675200  0.95205300  0.58111600  1
  C  C28  1  0.50090200  0.17070900  0.50109800  1
  C  C29  1  0.49942800  0.82921800  0.49866900  1
  C  C30  1  0.49924200  0.75370200  0.49840000  1
  C  C31  1  0.94746700  0.58724100  0.51717100  1
  C  C32  1  0.95628200  0.47317400  0.42110900  1
  C  C33  1  0.05834600  0.47960400  0.42080100  1
  C  C34  1  0.91503300  0.49980900  0.49882600  1
  C  C35  1  0.04887400  0.58578000  0.52415200  1
  C  C36  1  0.08526500  0.50012000  0.50090400  1
  C  C37  1  0.04611800  0.43479100  0.55652700  1
  C  C38  1  0.94380300  0.43919200  0.55943100  1
  C  C39  1  0.18397000  0.50026000  0.50195100  1
  C  C40  1  0.81632700  0.49967500  0.49778300  1
  N  N1  1  0.26208000  0.50027900  0.50241900  1
  N  N2  1  0.73821700  0.49966000  0.49732200  1
  O  O1  1  0.42120400  0.62471600  0.49974900  1
  O  O2  1  0.57737700  0.62498200  0.49775100  1
  O  O3  1  0.41372500  0.50127400  0.61479600  1
  O  O4  1  0.56969600  0.50119800  0.61328500  1
  O  O5  1  0.42291900  0.37494800  0.50200900  1
  O  O6  1  0.57909100  0.37521500  0.50001100  1
  O  O7  1  0.43060000  0.49873300  0.38647600  1
  O  O8  1  0.58657000  0.49865700  0.38496400  1
  O  O9  1  0.41674500  0.08391900  0.38840400  1
