# generated using pymatgen
data_ZnH8C22(N3O5)2
_symmetry_space_group_name_H-M   'P 1'
_cell_length_a   9.21395600
_cell_length_b   13.45820800
_cell_length_c   16.29492400
_cell_angle_alpha   90.04757200
_cell_angle_beta   94.73400600
_cell_angle_gamma   90.57550900
_symmetry_Int_Tables_number   1
_chemical_formula_structural   ZnH8C22(N3O5)2
_chemical_formula_sum   'Zn2 H16 C44 N12 O20'
_cell_volume   2013.62736451
_cell_formula_units_Z   2
loop_
 _symmetry_equiv_pos_site_id
 _symmetry_equiv_pos_as_xyz
  1  'x, y, z'
loop_
 _atom_site_type_symbol
 _atom_site_label
 _atom_site_symmetry_multiplicity
 _atom_site_fract_x
 _atom_site_fract_y
 _atom_site_fract_z
 _atom_site_occupancy
  Zn  Zn1  1  0.15543200  0.49407500  0.49938500  1
  Zn  Zn2  1  0.83228200  0.50352600  0.49768600  1
  H  H1  1  0.91367700  0.31344300  0.00518300  1
  H  H2  1  0.04818200  0.67404100  0.00049900  1
  H  H3  1  0.07269000  0.99109000  0.28196500  1
  H  H4  1  0.96469500  0.00712900  0.72024600  1
  H  H5  1  0.09175500  0.05902300  0.04790800  1
  H  H6  1  0.95964800  0.94285500  0.95579300  1
  H  H7  1  0.16934600  0.62359800  0.88365200  1
  H  H8  1  0.78601900  0.33830900  0.11976400  1
  H  H9  1  0.96719500  0.46582200  0.74616800  1
  H  H10  1  0.87227300  0.55939900  0.24589100  1
  H  H11  1  0.16495800  0.56851600  0.74043900  1
  H  H12  1  0.79002900  0.40030900  0.26069200  1
  H  H13  1  0.36898500  0.33815600  0.49859500  1
  H  H14  1  0.61869500  0.65942000  0.49828200  1
  H  H15  1  0.63384600  0.34712700  0.49644500  1
  H  H16  1  0.35384100  0.65044800  0.50046800  1
  C  C1  1  0.98826100  0.18888200  0.79159500  1
  C  C2  1  0.05020700  0.81137400  0.21185600  1
  C  C3  1  0.97865600  0.25558100  0.85447900  1
  C  C4  1  0.01461500  0.74893400  0.14733700  1
  C  C5  1  0.97075100  0.20132400  0.92601000  1
  C  C6  1  0.04174700  0.79823400  0.07655700  1
  C  C7  1  0.98078600  0.09486700  0.82648000  1
  C  C8  1  0.08064600  0.90343700  0.17719700  1
  C  C9  1  0.94697700  0.23765000  0.00007700  1
  C  C10  1  0.04789900  0.75421100  0.00329400  1
  C  C11  1  0.96821200  0.18375600  0.07868700  1
  C  C12  1  0.04587200  0.80560400  0.92413900  1
  C  C13  1  0.94186600  0.22592600  0.15263700  1
  C  C14  1  0.05943500  0.75880700  0.85026900  1
  C  C15  1  0.01299600  0.17259500  0.21390800  1
  C  C16  1  0.00684500  0.82034700  0.78889300  1
  C  C17  1  0.06813400  0.08943600  0.17580200  1
  C  C18  1  0.97561100  0.90947800  0.82726000  1
  C  C19  1  0.08844100  0.99142300  0.21716700  1
  C  C20  1  0.96895300  0.00757400  0.78617600  1
  C  C21  1  0.11828700  0.66865700  0.83480200  1
  C  C22  1  0.85579400  0.30462200  0.16810300  1
  C  C23  1  0.11609400  0.63865700  0.75394100  1
  C  C24  1  0.85611300  0.33727000  0.24809200  1
  C  C25  1  0.03913700  0.69108800  0.69128300  1
  C  C26  1  0.95116900  0.29774700  0.30998400  1
  C  C27  1  0.98444100  0.78529900  0.70808900  1
  C  C28  1  0.02797100  0.21065400  0.29411800  1
  C  C29  1  0.00468900  0.22117200  0.71177400  1
  C  C30  1  0.04588300  0.77728800  0.29219700  1
  C  C31  1  0.99833200  0.32255600  0.69724800  1
  C  C32  1  0.98259900  0.68374800  0.30300300  1
  C  C33  1  0.97702100  0.38798500  0.76023800  1
  C  C34  1  0.92645100  0.62902800  0.23578200  1
  C  C35  1  0.97761900  0.35668000  0.84034000  1
  C  C36  1  0.94289900  0.66020200  0.15694500  1
  C  C37  1  0.01606200  0.63777100  0.61201600  1
  C  C38  1  0.97226000  0.35865600  0.38581200  1
  C  C39  1  0.00128800  0.36697200  0.61614600  1
  C  C40  1  0.98554700  0.63164300  0.38151200  1
  C  C41  1  0.42333400  0.40970900  0.49866100  1
  C  C42  1  0.56434800  0.58786700  0.49822000  1
  C  C43  1  0.57263600  0.41511500  0.49705600  1
  C  C44  1  0.41504900  0.58246000  0.49983900  1
  N  N1  1  0.97436500  0.10370500  0.90870800  1
  N  N2  1  0.07725300  0.89384300  0.09419200  1
  N  N3  1  0.04712400  0.10088600  0.09287900  1
  N  N4  1  0.99293300  0.89696800  0.90998600  1
  N  N5  1  0.64168600  0.50399000  0.49660400  1
  N  N6  1  0.34601800  0.49358500  0.50039300  1
  N  N7  1  0.89306400  0.83731800  0.64789700  1
  N  N8  1  0.13087000  0.16949500  0.35473600  1
  N  N9  1  0.03481700  0.15497500  0.64726600  1
  N  N10  1  0.11843900  0.82991000  0.36001500  1
  N  N11  1  0.98765400  0.42884800  0.90459300  1
  N  N12  1  0.86681500  0.60935200  0.08945500  1
  O  O1  1  0.88386400  0.60724900  0.58523100  1
  O  O2  1  0.10389800  0.39010400  0.41210700  1
  O  O3  1  0.13318200  0.60147600  0.58341600  1
  O  O4  1  0.85477700  0.39572600  0.41388600  1
  O  O5  1  0.12683800  0.39602900  0.59042800  1
  O  O6  1  0.86087200  0.60159600  0.40690200  1
  O  O7  1  0.87630900  0.40070000  0.58542600  1
  O  O8  1  0.11132200  0.59743000  0.41172100  1
  O  O9  1  0.90639100  0.82400000  0.56989900  1
  O  O10  1  0.77993000  0.88390400  0.67046500  1
  O  O11  1  0.24769900  0.12752600  0.33215200  1
  O  O12  1  0.11667800  0.18270700  0.43265600  1
  O  O13  1  0.15144300  0.10101600  0.65543800  1
  O  O14  1  0.96459400  0.16345900  0.57512600  1
  O  O15  1  0.24241800  0.87386400  0.35091000  1
  O  O16  1  0.07540600  0.81993200  0.43354600  1
  O  O17  1  0.09715200  0.42558200  0.96026400  1
  O  O18  1  0.91555000  0.51106200  0.89431400  1
  O  O19  1  0.84980000  0.51363600  0.09294100  1
  O  O20  1  0.78530300  0.65949800  0.03560500  1
