# generated using pymatgen
data_Zn6H62C85O24
_symmetry_space_group_name_H-M   'P 1'
_cell_length_a   18.77645800
_cell_length_b   18.86846800
_cell_length_c   18.93222300
_cell_angle_alpha   109.41524100
_cell_angle_beta   109.65131800
_cell_angle_gamma   109.09127300
_symmetry_Int_Tables_number   1
_chemical_formula_structural   Zn6H62C85O24
_chemical_formula_sum   'Zn6 H62 C85 O24'
_cell_volume   5179.47610548
_cell_formula_units_Z   1
loop_
 _symmetry_equiv_pos_site_id
 _symmetry_equiv_pos_as_xyz
  1  'x, y, z'
loop_
 _atom_site_type_symbol
 _atom_site_label
 _atom_site_symmetry_multiplicity
 _atom_site_fract_x
 _atom_site_fract_y
 _atom_site_fract_z
 _atom_site_occupancy
  Zn  Zn1  1  0.48617600  0.40063600  0.41872900  1
  Zn  Zn2  1  0.48649000  0.53726900  0.55940400  1
  Zn  Zn3  1  0.91226000  0.39973200  0.98718800  1
  Zn  Zn4  1  0.04841100  0.53703300  0.98363200  1
  Zn  Zn5  1  0.06156700  0.97127100  0.55736700  1
  Zn  Zn6  1  0.91260400  0.96795900  0.42479600  1
  H  H1  1  0.70598600  0.38643800  0.59067700  1
  H  H2  1  0.61622500  0.31773300  0.59543100  1
  H  H3  1  0.70665700  0.31826000  0.71010100  1
  H  H4  1  0.79225600  0.36633100  0.68946300  1
  H  H5  1  0.76710100  0.54717100  0.66737000  1
  H  H6  1  0.86738400  0.52664700  0.75098600  1
  H  H7  1  0.62685600  0.50139600  0.76588000  1
  H  H8  1  0.58471200  0.38603800  0.71071300  1
  H  H9  1  0.69262200  0.40949600  0.82938400  1
  H  H10  1  0.74727700  0.52500600  0.87242500  1
  H  H11  1  0.74670900  0.59398100  0.75335500  1
  H  H12  1  0.86274900  0.59472200  0.84109600  1
  H  H13  1  0.34589200  0.20189300  0.46897900  1
  H  H14  1  0.24034300  0.39708600  0.45163300  1
  H  H15  1  0.12521300  0.41671600  0.46755400  1
  H  H16  1  0.03037500  0.32107900  0.49758900  1
  H  H17  1  0.04824200  0.20394600  0.50783500  1
  H  H18  1  0.23715000  0.09270600  0.47361400  1
  H  H19  1  0.24362900  0.35067900  0.23112800  1
  H  H20  1  0.44039500  0.64945800  0.42654700  1
  H  H21  1  0.43425300  0.77949100  0.44644000  1
  H  H22  1  0.30473300  0.77297400  0.34788800  1
  H  H23  1  0.18327100  0.63701100  0.22766900  1
  H  H24  1  0.62495100  0.59799000  0.36886200  1
  H  H25  1  0.73057900  0.67977700  0.66641800  1
  H  H26  1  0.84968900  0.80482800  0.79996400  1
  H  H27  1  0.93202500  0.92264100  0.66613700  1
  H  H28  1  0.73459800  0.71082200  0.36860500  1
  H  H29  1  0.85643000  0.20600500  0.73522000  1
  H  H30  1  0.15374800  0.39714500  0.95230900  1
  H  H31  1  0.29267600  0.32407000  0.83469700  1
  H  H32  1  0.15960700  0.20934700  0.70567100  1
  H  H33  1  0.85830600  0.09745900  0.62308900  1
  H  H34  1  0.93011300  0.57398000  0.21230800  1
  H  H35  1  0.98419700  0.70679800  0.04582700  1
  H  H36  1  0.03802700  0.85182300  0.07148900  1
  H  H37  1  0.04745900  0.93878900  0.31267600  1
  H  H38  1  0.09558700  0.32768200  0.03182400  1
  H  H39  1  0.04404000  0.30119600  0.09151900  1
  H  H40  1  0.18207000  0.25403500  0.06907300  1
  H  H41  1  0.02421700  0.17332900  0.08840500  1
  H  H42  1  0.09629700  0.12897000  0.07109700  1
  H  H43  1  0.96587800  0.94541700  0.87839200  1
  H  H44  1  0.96806300  0.00763100  0.82369100  1
  H  H45  1  0.05684400  0.90795700  0.78368800  1
  H  H46  1  0.12922000  0.07519000  0.94853200  1
  H  H47  1  0.19137900  0.03083700  0.90641100  1
  H  H48  1  0.30166600  0.47615300  0.02919700  1
  H  H49  1  0.35464200  0.47820400  0.96575400  1
  H  H50  1  0.32847200  0.35352500  0.04109200  1
  H  H51  1  0.47136600  0.45551400  0.01388500  1
  H  H52  1  0.47082200  0.38331400  0.06191700  1
  H  H53  1  0.09638000  0.99921500  0.16056300  1
  H  H54  1  0.14743400  0.03595200  0.27484300  1
  H  H55  1  0.96051500  0.98581500  0.20773400  1
  H  H56  1  0.11079600  0.15324200  0.25472800  1
  H  H57  1  0.00350000  0.13459100  0.24751500  1
  H  H58  1  0.93440300  0.72575300  0.39922700  1
  H  H59  1  0.96117500  0.64242900  0.36696900  1
  H  H60  1  0.78257000  0.62610700  0.26186200  1
  H  H61  1  0.84425900  0.50802600  0.30813800  1
  H  H62  1  0.73030500  0.48267000  0.24210200  1
  C  C1  1  0.35654200  0.34695500  0.47633300  1
  C  C2  1  0.59837400  0.45633800  0.60494200  1
  C  C3  1  0.61609400  0.59082800  0.50182000  1
  C  C4  1  0.37527700  0.48272200  0.37316300  1
  C  C5  1  0.67930900  0.37876500  0.63344500  1
  C  C6  1  0.74246500  0.37435600  0.70492100  1
  C  C7  1  0.75206900  0.53822500  0.71666500  1
  C  C8  1  0.64237300  0.44997200  0.74027400  1
  C  C9  1  0.66707900  0.45532400  0.67294200  1
  C  C10  1  0.78596400  0.45695800  0.78978500  1
  C  C11  1  0.82460500  0.53379700  0.77816400  1
  C  C12  1  0.71788700  0.46138300  0.81463400  1
  C  C13  1  0.20095500  0.35382000  0.46556500  1
  C  C14  1  0.13447000  0.36477300  0.47302000  1
  C  C15  1  0.08100500  0.31086700  0.48912100  1
  C  C16  1  0.09088900  0.24303500  0.49322600  1
  C  C17  1  0.15490900  0.22820700  0.48123900  1
  C  C18  1  0.21424500  0.28784700  0.47331800  1
  C  C19  1  0.28483100  0.27965800  0.47143700  1
  C  C20  1  0.29143100  0.20881000  0.47050000  1
  C  C21  1  0.23086500  0.14794900  0.47474200  1
  C  C22  1  0.16255700  0.15671700  0.48011200  1
  C  C23  1  0.38128800  0.64280700  0.38243000  1
  C  C24  1  0.37926600  0.71776600  0.39350000  1
  C  C25  1  0.30710800  0.71416700  0.33802900  1
  C  C26  1  0.23852400  0.63597300  0.26877500  1
  C  C27  1  0.24095000  0.55972800  0.25450800  1
  C  C28  1  0.31073500  0.56278400  0.31519500  1
  C  C29  1  0.30979600  0.48610400  0.30639200  1
  C  C30  1  0.24292300  0.40853500  0.23424800  1
  C  C31  1  0.17591200  0.40502900  0.17019900  1
  C  C32  1  0.17393500  0.48096900  0.18114400  1
  C  C33  1  0.77231300  0.73197700  0.66294500  1
  C  C34  1  0.84116900  0.80300000  0.73989100  1
  C  C35  1  0.89788300  0.87116100  0.74001500  1
  C  C36  1  0.88732100  0.86680500  0.66283900  1
  C  C37  1  0.82036200  0.79378800  0.58450700  1
  C  C38  1  0.75942600  0.72776300  0.58461300  1
  C  C39  1  0.68768700  0.65774900  0.50642600  1
  C  C40  1  0.68042400  0.65203700  0.42966600  1
  C  C41  1  0.74160300  0.71631800  0.42953400  1
  C  C42  1  0.81168900  0.78701900  0.50609400  1
  C  C43  1  0.98946400  0.34925400  0.87445700  1
  C  C44  1  0.85608100  0.45855700  0.85902900  1
  C  C45  1  0.97126700  0.58794100  0.09648800  1
  C  C46  1  0.10465700  0.47832500  0.11202800  1
  C  C47  1  0.99303600  0.09224800  0.61388900  1
  C  C48  1  0.09988400  0.08869300  0.48351300  1
  C  C49  1  0.98200100  0.84809000  0.36840100  1
  C  C50  1  0.87454000  0.85265600  0.50074900  1
  C  C51  1  0.15215900  0.35548400  0.89601700  1
  C  C52  1  0.23045400  0.36651300  0.90161200  1
  C  C53  1  0.23150500  0.31383400  0.83204000  1
  C  C54  1  0.15475800  0.24714100  0.75894600  1
  C  C55  1  0.07524500  0.23186900  0.75438100  1
  C  C56  1  0.07400600  0.29053500  0.82111200  1
  C  C57  1  0.99470100  0.28232500  0.81291600  1
  C  C58  1  0.91808500  0.21257100  0.74193700  1
  C  C59  1  0.91922700  0.15226300  0.67781800  1
  C  C60  1  0.99695800  0.16090600  0.68323800  1
  C  C61  1  0.00059200  0.75595800  0.10714600  1
  C  C62  1  0.02922900  0.83874900  0.12026200  1
  C  C63  1  0.04758300  0.90417000  0.19530100  1
  C  C64  1  0.03220600  0.88545300  0.25477800  1
  C  C65  1  0.00042200  0.80146800  0.24087900  1
  C  C66  1  0.99058500  0.73724300  0.16950400  1
  C  C67  1  0.96855900  0.65541900  0.16105800  1
  C  C68  1  0.94783500  0.63720700  0.21860500  1
  C  C69  1  0.95142400  0.69887600  0.28603100  1
  C  C70  1  0.97958500  0.78205700  0.29847800  1
  C  C71  1  0.10544900  0.32026800  0.08950000  1
  C  C72  1  0.12710600  0.24921900  0.07839500  1
  C  C73  1  0.07944800  0.17974000  0.07916000  1
  C  C74  1  0.97095800  0.94967300  0.82310900  1
  C  C75  1  0.05559500  0.95752600  0.83214300  1
  C  C76  1  0.12991600  0.02530600  0.89989800  1
  C  C77  1  0.31402500  0.43614800  0.98196100  1
  C  C78  1  0.35989500  0.39640400  0.02148300  1
  C  C79  1  0.43873200  0.41290300  0.03305100  1
  C  C80  1  0.08467100  0.99521700  0.21308800  1
  C  C81  1  0.02381200  0.02824100  0.22002900  1
  C  C82  1  0.04742800  0.11032200  0.24192400  1
  C  C83  1  0.92344000  0.67176200  0.34253000  1
  C  C84  1  0.82855300  0.60752000  0.29070300  1
  C  C85  1  0.79956100  0.52807700  0.27982600  1
  O  O1  1  0.38916900  0.32309100  0.42744200  1
  O  O2  1  0.38765900  0.42802300  0.53207000  1
  O  O3  1  0.56959700  0.40476300  0.52323500  1
  O  O4  1  0.57311600  0.51254400  0.63016800  1
  O  O5  1  0.58547700  0.50977000  0.44635400  1
  O  O6  1  0.58320300  0.61477700  0.55043500  1
  O  O7  1  0.39992000  0.42580500  0.34798400  1
  O  O8  1  0.40265700  0.53262800  0.45484200  1
  O  O9  1  0.93360400  0.32547100  0.90030600  1
  O  O10  1  0.03962600  0.43013100  0.89955100  1
  O  O11  1  0.83325700  0.40862200  0.89081500  1
  O  O12  1  0.93759700  0.51176200  0.88717500  1
  O  O13  1  0.92003700  0.50678000  0.07009400  1
  O  O14  1  0.02800500  0.61102800  0.07155200  1
  O  O15  1  0.02305200  0.42604100  0.08453500  1
  O  O16  1  0.12742100  0.52675300  0.07873000  1
  O  O17  1  0.04801400  0.06413700  0.63432300  1
  O  O18  1  0.93241600  0.05977700  0.53418300  1
  O  O19  1  0.13021900  0.05946300  0.53376000  1
  O  O20  1  0.01643000  0.05856300  0.43510800  1
  O  O21  1  0.04180800  0.87946600  0.44805200  1
  O  O22  1  0.92562300  0.87460400  0.34776700  1
  O  O23  1  0.95777400  0.87978700  0.54627600  1
  O  O24  1  0.84411200  0.87942900  0.44803100  1
