# generated using pymatgen
data_CuH4(C3O2)2
_symmetry_space_group_name_H-M   'P 1'
_cell_length_a   18.36652400
_cell_length_b   24.79784400
_cell_length_c   17.63511400
_cell_angle_alpha   110.67524000
_cell_angle_beta   89.82014000
_cell_angle_gamma   68.34565700
_symmetry_Int_Tables_number   1
_chemical_formula_structural   CuH4(C3O2)2
_chemical_formula_sum   'Cu8 H32 C48 O32'
_cell_volume   6901.59772255
_cell_formula_units_Z   8
loop_
 _symmetry_equiv_pos_site_id
 _symmetry_equiv_pos_as_xyz
  1  'x, y, z'
loop_
 _atom_site_type_symbol
 _atom_site_label
 _atom_site_symmetry_multiplicity
 _atom_site_fract_x
 _atom_site_fract_y
 _atom_site_fract_z
 _atom_site_occupancy
  Cu  Cu1  1  0.49008100  0.98885200  0.39068500  1
  Cu  Cu2  1  0.49710600  0.00380300  0.54444300  1
  Cu  Cu3  1  0.85882800  0.28098300  0.60078000  1
  Cu  Cu4  1  0.83594700  0.29601800  0.75456500  1
  Cu  Cu5  1  0.32105900  0.69456000  0.63573300  1
  Cu  Cu6  1  0.37461200  0.58860400  0.50804500  1
  Cu  Cu7  1  0.99897900  0.69498900  0.06230600  1
  Cu  Cu8  1  0.05153600  0.58844500  0.08255700  1
  H  H1  1  0.10678200  0.17713700  0.54303000  1
  H  H2  1  0.23686800  0.10602800  0.63007200  1
  H  H3  1  0.09797000  0.15442100  0.70174300  1
  H  H4  1  0.23758000  0.13602600  0.47613300  1
  H  H5  1  0.70097900  0.17878400  0.51526900  1
  H  H6  1  0.64122700  0.10766300  0.60229000  1
  H  H7  1  0.73065100  0.14879700  0.66921600  1
  H  H8  1  0.61070800  0.13044100  0.44361800  1
  H  H9  1  0.35564500  0.79035200  0.48421900  1
  H  H10  1  0.51634500  0.80355500  0.46733600  1
  H  H11  1  0.52623600  0.69261700  0.44732600  1
  H  H12  1  0.35457500  0.86606700  0.42167500  1
  H  H13  1  0.68372900  0.79639600  0.31176300  1
  H  H14  1  0.85477100  0.79229400  0.30504300  1
  H  H15  1  0.76283300  0.87213800  0.43236200  1
  H  H16  1  0.79403400  0.68748800  0.23751200  1
  H  H17  1  0.50399700  0.49385500  0.66055200  1
  H  H18  1  0.67775700  0.48088200  0.67669400  1
  H  H19  1  0.57673600  0.59166700  0.69621500  1
  H  H20  1  0.57830200  0.41873700  0.72386300  1
  H  H21  1  0.00481300  0.49211700  0.83983900  1
  H  H22  1  0.83770700  0.48837300  0.83366000  1
  H  H23  1  0.83948700  0.59713000  0.90819800  1
  H  H24  1  0.99268600  0.41261000  0.71256100  1
  H  H25  1  0.12805500  0.59039600  0.80838700  1
  H  H26  1  0.29558700  0.59047600  0.78407900  1
  H  H27  1  0.26843600  0.56168300  0.90206300  1
  H  H28  1  0.18492600  0.56058000  0.66112000  1
  H  H29  1  0.07736300  0.69167100  0.33585800  1
  H  H30  1  0.24492500  0.69166500  0.35935800  1
  H  H31  1  0.18895200  0.72077000  0.24181500  1
  H  H32  1  0.10422900  0.72157700  0.48296300  1
  C  C1  1  0.44239100  0.90896300  0.44723400  1
  C  C2  1  0.63458000  0.90888000  0.42738300  1
  C  C3  1  0.55747300  0.07699900  0.48572100  1
  C  C4  1  0.34772200  0.07796200  0.50541300  1
  C  C5  1  0.99175300  0.20784100  0.65959300  1
  C  C6  1  0.90097400  0.37595700  0.71776300  1
  C  C7  1  0.70900000  0.37583000  0.69791700  1
  C  C8  1  0.78311500  0.20685100  0.63990200  1
  C  C9  1  0.22953900  0.68503300  0.50143000  1
  C  C10  1  0.42339600  0.68627500  0.50418800  1
  C  C11  1  0.46784700  0.59757300  0.63962500  1
  C  C12  1  0.27344800  0.59746100  0.64234800  1
  C  C13  1  0.09996800  0.68461200  0.18674200  1
  C  C14  1  0.90461600  0.68512500  0.18360000  1
  C  C15  1  0.94773200  0.59900000  0.96168400  1
  C  C16  1  0.14320600  0.59811100  0.95763500  1
  C  C17  1  0.26267700  0.11784700  0.52194700  1
  C  C18  1  0.21401300  0.12591900  0.58507900  1
  C  C19  1  0.07649800  0.16957200  0.65247500  1
  C  C20  1  0.12801100  0.15928800  0.59017500  1
  C  C21  1  0.60404300  0.11526900  0.49286700  1
  C  C22  1  0.64494600  0.12552800  0.55516100  1
  C  C23  1  0.73791200  0.16696800  0.62339300  1
  C  C24  1  0.69767000  0.15889500  0.56026300  1
  C  C25  1  0.41322200  0.86008100  0.43764800  1
  C  C26  1  0.45636600  0.81081900  0.45506000  1
  C  C27  1  0.46274400  0.71452000  0.46751000  1
  C  C28  1  0.41952000  0.77099000  0.46761700  1
  C  C29  1  0.83361400  0.71164100  0.24363700  1
  C  C30  1  0.81304200  0.76994100  0.29793100  1
  C  C31  1  0.71540200  0.86151000  0.40282400  1
  C  C32  1  0.73145700  0.80810500  0.33899400  1
  C  C33  1  0.63101100  0.42462400  0.70741600  1
  C  C34  1  0.62501300  0.47367200  0.68940900  1
  C  C35  1  0.53522900  0.56966200  0.67641300  1
  C  C36  1  0.54844100  0.51330300  0.67680700  1
  C  C37  1  0.93454000  0.42326900  0.74225900  1
  C  C38  1  0.89721300  0.47661900  0.80623300  1
  C  C39  1  0.90317800  0.57283300  0.90176000  1
  C  C40  1  0.94076400  0.51459700  0.84720500  1
  C  C41  1  0.23232800  0.57408500  0.68587400  1
  C  C42  1  0.24635200  0.57872900  0.76153400  1
  C  C43  1  0.20754500  0.57494200  0.89074500  1
  C  C44  1  0.18895800  0.57894400  0.81940200  1
  C  C45  1  0.16515900  0.70805500  0.45793300  1
  C  C46  1  0.18394800  0.70332900  0.38215300  1
  C  C47  1  0.14137800  0.70738600  0.25329900  1
  C  C48  1  0.12683700  0.70313600  0.32458900  1
  O  O1  1  0.44310400  0.92933600  0.38805400  1
  O  O2  1  0.46562900  0.93322100  0.51681200  1
  O  O3  1  0.59333500  0.92048900  0.37020700  1
  O  O4  1  0.60594400  0.94198300  0.50532400  1
  O  O5  1  0.54127100  0.04871100  0.41349400  1
  O  O6  1  0.53841000  0.06694900  0.54985700  1
  O  O7  1  0.38472400  0.05548600  0.43034000  1
  O  O8  1  0.38481900  0.06128800  0.56231000  1
  O  O9  1  0.96307800  0.21784900  0.59542900  1
  O  O10  1  0.94691800  0.23616500  0.73181700  1
  O  O11  1  0.90583000  0.34280100  0.63983700  1
  O  O12  1  0.87093100  0.36439200  0.77497400  1
  O  O13  1  0.75685000  0.35155600  0.62835000  1
  O  O14  1  0.72964100  0.35548600  0.75712300  1
  O  O15  1  0.80394600  0.22349500  0.58297500  1
  O  O16  1  0.79725200  0.22936300  0.71497400  1
  O  O17  1  0.22873200  0.71659000  0.57926200  1
  O  O18  1  0.28812000  0.63123700  0.46052800  1
  O  O19  1  0.37282500  0.72297600  0.57173100  1
  O  O20  1  0.43770600  0.62616900  0.47080700  1
  O  O21  1  0.42157900  0.65757000  0.67300600  1
  O  O22  1  0.45455600  0.56064900  0.57207800  1
  O  O23  1  0.27761400  0.65147400  0.68324900  1
  O  O24  1  0.30458500  0.56601300  0.56451000  1
  O  O25  1  0.06957700  0.71641300  0.14055600  1
  O  O26  1  0.09491900  0.63080600  0.17351700  1
  O  O27  1  0.91891300  0.72263800  0.15448700  1
  O  O28  1  0.95042000  0.62500400  0.15593500  1
  O  O29  1  0.93406100  0.65901200  0.98928300  1
  O  O30  1  0.99903400  0.56126500  0.99066100  1
  O  O31  1  0.08485600  0.65214900  0.97102800  1
  O  O32  1  0.14395900  0.56641400  0.00389600  1
