# generated using pymatgen
data_Zn2H18C37N2O9
_symmetry_space_group_name_H-M   'P 1'
_cell_length_a   8.51917500
_cell_length_b   10.86857900
_cell_length_c   13.39955500
_cell_angle_alpha   90.49812700
_cell_angle_beta   93.67850700
_cell_angle_gamma   90.03624400
_symmetry_Int_Tables_number   1
_chemical_formula_structural   Zn2H18C37N2O9
_chemical_formula_sum   'Zn2 H18 C37 N2 O9'
_cell_volume   1238.07879037
_cell_formula_units_Z   1
loop_
 _symmetry_equiv_pos_site_id
 _symmetry_equiv_pos_as_xyz
  1  'x, y, z'
loop_
 _atom_site_type_symbol
 _atom_site_label
 _atom_site_symmetry_multiplicity
 _atom_site_fract_x
 _atom_site_fract_y
 _atom_site_fract_z
 _atom_site_occupancy
  Zn  Zn1  1  0.46702300  0.10131600  0.03096200  1
  Zn  Zn2  1  0.48653600  0.08864000  0.25383200  1
  H  H1  1  0.58784200  0.48307400  0.15075200  1
  H  H2  1  0.58607300  0.70492500  0.14201700  1
  H  H3  1  0.23386000  0.68820000  0.15411000  1
  H  H4  1  0.23088200  0.50310200  0.12575000  1
  H  H5  1  0.98000400  0.18160700  0.17848500  1
  H  H6  1  0.96787400  0.00830000  0.10641900  1
  H  H7  1  0.46580200  0.89238100  0.39111900  1
  H  H8  1  0.50143900  0.29296200  0.88962200  1
  H  H9  1  0.53094900  0.38795100  0.54734300  1
  H  H10  1  0.45422200  0.88791800  0.56822500  1
  H  H11  1  0.42968300  0.89713700  0.71891100  1
  H  H12  1  0.52163900  0.27586400  0.39643500  1
  H  H13  1  0.42608500  0.91341400  0.89458600  1
  H  H14  1  0.51615300  0.67625800  0.77501500  1
  H  H15  1  0.72078700  0.82429900  0.73861700  1
  H  H16  1  0.95786000  0.75541000  0.65909100  1
  H  H17  1  0.99123300  0.53665900  0.61753100  1
  H  H18  1  0.79032700  0.38712000  0.65510600  1
  C  C1  1  0.98028400  0.53058000  0.14393300  1
  C  C2  1  0.83856900  0.46716700  0.14843000  1
  C  C3  1  0.69844600  0.53103300  0.14731200  1
  C  C4  1  0.69755400  0.65748100  0.14313200  1
  C  C5  1  0.83669700  0.72200700  0.13942300  1
  C  C6  1  0.97953200  0.65935300  0.14083900  1
  C  C7  1  0.83453500  0.84934000  0.13226700  1
  C  C8  1  0.97149000  0.91125200  0.11953200  1
  C  C9  1  0.11333100  0.85286800  0.12977600  1
  C  C10  1  0.11868200  0.72765400  0.14252100  1
  C  C11  1  0.11902000  0.46303900  0.13916100  1
  C  C12  1  0.11752200  0.33783400  0.15161100  1
  C  C13  1  0.97924500  0.27865800  0.16530700  1
  C  C14  1  0.83894700  0.33978900  0.15592300  1
  C  C15  1  0.25549400  0.92821000  0.13424700  1
  C  C16  1  0.25934600  0.26351700  0.14724300  1
  C  C17  1  0.69670800  0.26345500  0.15089400  1
  C  C18  1  0.69291800  0.92479000  0.13724400  1
  C  C19  1  0.50951100  0.19070500  0.43623100  1
  C  C20  1  0.47762900  0.97767400  0.43301400  1
  C  C21  1  0.46977500  0.97653900  0.53550100  1
  C  C22  1  0.48035100  0.08591600  0.59047100  1
  C  C23  1  0.50291000  0.19315100  0.53888200  1
  C  C24  1  0.44453200  0.98777100  0.75046100  1
  C  C25  1  0.46907800  0.09175000  0.69431200  1
  C  C26  1  0.48366500  0.20433800  0.74432800  1
  C  C27  1  0.50701800  0.31084900  0.69073700  1
  C  C28  1  0.51605800  0.30425700  0.58871700  1
  C  C29  1  0.43974800  0.99652700  0.85243300  1
  C  C30  1  0.48034600  0.20861800  0.84807700  1
  C  C31  1  0.51418900  0.43295400  0.73851600  1
  C  C32  1  0.63666800  0.52166000  0.71539300  1
  C  C33  1  0.61973300  0.64451400  0.74004600  1
  C  C34  1  0.73474300  0.72826400  0.71954000  1
  C  C35  1  0.86764300  0.68971600  0.67495000  1
  C  C36  1  0.88608200  0.56716100  0.65142400  1
  C  C37  1  0.77130600  0.48313600  0.67176800  1
  N  N1  1  0.49662800  0.08393600  0.38486100  1
  N  N2  1  0.45716100  0.10549400  0.89988600  1
  O  O1  1  0.31369800  0.96490000  0.22255300  1
  O  O2  1  0.30295000  0.97149500  0.05026300  1
  O  O3  1  0.30062900  0.22645900  0.05903200  1
  O  O4  1  0.32173000  0.22013800  0.23174700  1
  O  O5  1  0.63981200  0.22523600  0.06242600  1
  O  O6  1  0.64979200  0.21917800  0.23470300  1
  O  O7  1  0.65287000  0.96343400  0.22539500  1
  O  O8  1  0.63105100  0.96924000  0.05317000  1
  O  O9  1  0.41068300  0.46438000  0.79210900  1
