# generated using pymatgen
data_CoH8C14(NO2)2
_symmetry_space_group_name_H-M   'P 1'
_cell_length_a   8.55419400
_cell_length_b   11.18657600
_cell_length_c   15.85410000
_cell_angle_alpha   86.92461800
_cell_angle_beta   90.78529900
_cell_angle_gamma   106.92108500
_symmetry_Int_Tables_number   1
_chemical_formula_structural   CoH8C14(NO2)2
_chemical_formula_sum   'Co2 H16 C28 N4 O8'
_cell_volume   1449.33848965
_cell_formula_units_Z   2
loop_
 _symmetry_equiv_pos_site_id
 _symmetry_equiv_pos_as_xyz
  1  'x, y, z'
loop_
 _atom_site_type_symbol
 _atom_site_label
 _atom_site_symmetry_multiplicity
 _atom_site_fract_x
 _atom_site_fract_y
 _atom_site_fract_z
 _atom_site_occupancy
  Co  Co1  1  0.00594400  0.00357800  0.91586200  1
  Co  Co2  1  0.99405600  0.99642200  0.08413800  1
  H  H1  1  0.88722400  0.82331500  0.76873500  1
  H  H2  1  0.11277500  0.17668400  0.23126500  1
  H  H3  1  0.89399900  0.83649000  0.61551800  1
  H  H4  1  0.10600100  0.16351000  0.38448200  1
  H  H5  1  0.83725700  0.77587300  0.37780600  1
  H  H6  1  0.16274200  0.22412600  0.62219400  1
  H  H7  1  0.84970900  0.79635100  0.22322100  1
  H  H8  1  0.15029100  0.20364900  0.77677900  1
  H  H9  1  0.71842100  0.52542000  0.05939600  1
  H  H10  1  0.28157900  0.47457900  0.94060400  1
  H  H11  1  0.05534200  0.38416100  0.02049300  1
  H  H12  1  0.94465700  0.61583800  0.97950700  1
  H  H13  1  0.53394600  0.09758200  0.96329100  1
  H  H14  1  0.46605400  0.90241700  0.03670900  1
  H  H15  1  0.42609500  0.41005300  0.06098400  1
  H  H16  1  0.57390500  0.58994600  0.93901600  1
  C  C1  1  0.15282000  0.82562000  0.00778100  1
  C  C2  1  0.84717900  0.17437900  0.99221900  1
  C  C3  1  0.71201300  0.82433400  0.99621400  1
  C  C4  1  0.28798700  0.17566500  0.00378600  1
  C  C5  1  0.05136000  0.08860800  0.26406600  1
  C  C6  1  0.94864000  0.91139100  0.73593400  1
  C  C7  1  0.04733200  0.08025400  0.35135200  1
  C  C8  1  0.95266800  0.91974500  0.64864800  1
  C  C9  1  0.97002200  0.96675300  0.39326000  1
  C  C10  1  0.02997800  0.03324600  0.60674000  1
  C  C11  1  0.89795200  0.86524000  0.34639400  1
  C  C12  1  0.10204800  0.13475900  0.65360600  1
  C  C13  1  0.90470700  0.87699300  0.25954100  1
  C  C14  1  0.09529300  0.12300600  0.74045900  1
  C  C15  1  0.57400200  0.19333500  0.98146900  1
  C  C16  1  0.42599800  0.80666400  0.01853100  1
  C  C17  1  0.73810300  0.25189800  0.99001300  1
  C  C18  1  0.26189600  0.74810100  0.00998800  1
  C  C19  1  0.79298400  0.37466800  0.01155500  1
  C  C20  1  0.20701500  0.62533100  0.98844500  1
  C  C21  1  0.67902000  0.43238200  0.03610100  1
  C  C22  1  0.32098000  0.56761700  0.96389900  1
  C  C23  1  0.51344300  0.36772700  0.03666500  1
  C  C24  1  0.48655700  0.63227300  0.96333500  1
  C  C25  1  0.46032800  0.24979300  0.00524900  1
  C  C26  1  0.53967200  0.75020600  0.99475100  1
  C  C27  1  0.97056500  0.43872300  0.00964500  1
  C  C28  1  0.02943500  0.56127600  0.99035500  1
  N  N1  1  0.98088500  0.98754700  0.21969500  1
  N  N2  1  0.01911500  0.01245200  0.78030500  1
  N  N3  1  0.96354600  0.95132900  0.48242100  1
  N  N4  1  0.03645400  0.04867000  0.51757900  1
  O  O1  1  0.11872400  0.87028900  0.93398400  1
  O  O2  1  0.88127600  0.12971000  0.06601600  1
  O  O3  1  0.88701800  0.13372300  0.92216300  1
  O  O4  1  0.11298200  0.86627600  0.07783700  1
  O  O5  1  0.78833200  0.86949000  0.92496100  1
  O  O6  1  0.21166800  0.13050900  0.07503900  1
  O  O7  1  0.22356600  0.13359000  0.93156100  1
  O  O8  1  0.77643400  0.86640900  0.06843900  1
