# generated using pymatgen
data_Zn3H23C32ClO12
_symmetry_space_group_name_H-M   'P 1'
_cell_length_a   22.10879300
_cell_length_b   22.11759400
_cell_length_c   22.33437500
_cell_angle_alpha   119.66637300
_cell_angle_beta   119.65170200
_cell_angle_gamma   90.01299000
_symmetry_Int_Tables_number   1
_chemical_formula_structural   Zn3H23C32ClO12
_chemical_formula_sum   'Zn6 H46 C64 Cl2 O24'
_cell_volume   7800.63846050
_cell_formula_units_Z   2
loop_
 _symmetry_equiv_pos_site_id
 _symmetry_equiv_pos_as_xyz
  1  'x, y, z'
loop_
 _atom_site_type_symbol
 _atom_site_label
 _atom_site_symmetry_multiplicity
 _atom_site_fract_x
 _atom_site_fract_y
 _atom_site_fract_z
 _atom_site_occupancy
  Zn  Zn1  1  0.06680100  0.50272900  0.49603100  1
  Zn  Zn2  1  0.93306300  0.49529200  0.50163100  1
  Zn  Zn3  1  0.49579000  0.93203800  0.50122800  1
  Zn  Zn4  1  0.50405800  0.06598300  0.49643400  1
  Zn  Zn5  1  0.04977000  0.04890700  0.59351100  1
  Zn  Zn6  1  0.95007400  0.94911200  0.40414400  1
  H  H1  1  0.25974900  0.62630700  0.92695500  1
  H  H2  1  0.74225500  0.37278500  0.07080900  1
  H  H3  1  0.11727500  0.71619400  0.92384100  1
  H  H4  1  0.88242700  0.27948300  0.07374500  1
  H  H5  1  0.14849500  0.64113000  0.92483200  1
  H  H6  1  0.85305500  0.35529900  0.07283700  1
  H  H7  1  0.21273800  0.71376800  0.06769500  1
  H  H8  1  0.78872300  0.28254800  0.92996900  1
  H  H9  1  0.18522000  0.78821800  0.06394800  1
  H  H10  1  0.81437800  0.20746900  0.93363600  1
  H  H11  1  0.27363800  0.79801700  0.93425700  1
  H  H12  1  0.72431000  0.20130700  0.06338500  1
  H  H13  1  0.19010200  0.80783000  0.92826800  1
  H  H14  1  0.80748300  0.18954400  0.06929900  1
  H  H15  1  0.33729800  0.87019500  0.07553300  1
  H  H16  1  0.66054900  0.12902300  0.92210100  1
  H  H17  1  0.31058700  0.68961400  0.92728400  1
  H  H18  1  0.68992300  0.31069200  0.07046500  1
  H  H19  1  0.37636200  0.76961100  0.06340400  1
  H  H20  1  0.62380500  0.23070100  0.93433400  1
  H  H21  1  0.25320700  0.87506200  0.06911400  1
  H  H22  1  0.74439100  0.12219500  0.92844900  1
  H  H23  1  0.01034600  0.24616900  0.60384600  1
  H  H24  1  0.98950700  0.75185200  0.39381200  1
  H  H25  1  0.97592400  0.16942300  0.42783300  1
  H  H26  1  0.02392500  0.82859600  0.56982200  1
  H  H27  1  0.97232600  0.34202400  0.57438800  1
  H  H28  1  0.02753300  0.65599900  0.42327100  1
  H  H29  1  0.04935400  0.28711200  0.48466000  1
  H  H30  1  0.95050700  0.71090700  0.51300100  1
  H  H31  1  0.75264300  0.98842100  0.39368200  1
  H  H32  1  0.24719800  0.00959000  0.60396900  1
  H  H33  1  0.82929200  0.02269500  0.56960800  1
  H  H34  1  0.17055400  0.97532600  0.42804700  1
  H  H35  1  0.65677300  0.02646100  0.42323800  1
  H  H36  1  0.34306800  0.97155100  0.57441200  1
  H  H37  1  0.71147600  0.94906300  0.51248400  1
  H  H38  1  0.28837200  0.04895800  0.48517700  1
  H  H39  1  0.46621600  0.76256400  0.16545900  1
  H  H40  1  0.51337100  0.69920800  0.23396800  1
  H  H41  1  0.29713600  0.55289600  0.08818900  1
  H  H42  1  0.24866700  0.61425900  0.01808000  1
  H  H43  1  0.53534500  0.23874300  0.83236000  1
  H  H44  1  0.49053800  0.30246100  0.76394900  1
  H  H45  1  0.70851400  0.44524900  0.90967800  1
  H  H46  1  0.75466400  0.38351300  0.97969100  1
  C  C1  1  0.01268900  0.38369900  0.50372900  1
  C  C2  1  0.98717500  0.61432200  0.49393200  1
  C  C3  1  0.08339400  0.58393500  0.66265400  1
  C  C4  1  0.91647000  0.41408600  0.33500800  1
  C  C5  1  0.27855300  0.68480800  0.95121300  1
  C  C6  1  0.72232500  0.31445000  0.04651800  1
  C  C7  1  0.16655100  0.69969900  0.94859200  1
  C  C8  1  0.83386400  0.29688300  0.04904500  1
  C  C9  1  0.21162900  0.74713800  0.04343900  1
  C  C10  1  0.78874800  0.24942900  0.95419700  1
  C  C11  1  0.36973700  0.86976700  0.24513800  1
  C  C12  1  0.63010900  0.12825400  0.75252400  1
  C  C13  1  0.21260800  0.70981800  0.91965600  1
  C  C14  1  0.78726400  0.28821100  0.07800600  1
  C  C15  1  0.32699500  0.73482700  0.04634800  1
  C  C16  1  0.67378800  0.26449400  0.95138200  1
  C  C17  1  0.28873500  0.78709700  0.07800400  1
  C  C18  1  0.71111800  0.21092700  0.91965800  1
  C  C19  1  0.28197700  0.83704700  0.04855700  1
  C  C20  1  0.71632800  0.16114900  0.94906000  1
  C  C21  1  0.23841200  0.79035900  0.95366200  1
  C  C22  1  0.75991700  0.20789000  0.04395800  1
  C  C23  1  0.33285600  0.83195000  0.16963500  1
  C  C24  1  0.66699200  0.16607200  0.82802600  1
  C  C25  1  0.16790600  0.66558300  0.82804400  1
  C  C26  1  0.83196100  0.33244200  0.16961800  1
  C  C27  1  0.13003400  0.62870000  0.75254300  1
  C  C28  1  0.86983200  0.36932300  0.24511900  1
  C  C29  1  0.00253200  0.24143100  0.54963100  1
  C  C30  1  0.99732100  0.75659000  0.44802600  1
  C  C31  1  0.99218800  0.17685700  0.48608500  1
  C  C32  1  0.00766100  0.82116300  0.51157000  1
  C  C33  1  0.99454500  0.30449900  0.54351600  1
  C  C34  1  0.00531300  0.69352200  0.45414300  1
  C  C35  1  0.01960100  0.31957200  0.50733200  1
  C  C36  1  0.98026000  0.67844900  0.49032900  1
  C  C37  1  0.61498300  0.98589300  0.49368300  1
  C  C38  1  0.38486500  0.01212800  0.50397800  1
  C  C39  1  0.41462500  0.91613000  0.33501900  1
  C  C40  1  0.58522200  0.08189100  0.66264200  1
  C  C41  1  0.88602200  0.00367100  0.50736300  1
  C  C42  1  0.11382300  0.99434800  0.49029200  1
  C  C43  1  0.99509000  0.11279900  0.49017400  1
  C  C44  1  0.00475500  0.88521900  0.50748100  1
  C  C45  1  0.75733700  0.99616100  0.44784800  1
  C  C46  1  0.24250700  0.00185300  0.54980500  1
  C  C47  1  0.82190600  0.00648600  0.51139000  1
  C  C48  1  0.17793900  0.99153200  0.48626400  1
  C  C49  1  0.69423600  0.00411800  0.45395400  1
  C  C50  1  0.30560700  0.99389600  0.54370000  1
  C  C51  1  0.67908200  0.97892600  0.48998100  1
  C  C52  1  0.32076400  0.01909200  0.50767800  1
  C  C53  1  0.35365600  0.69414900  0.08720200  1
  C  C54  1  0.42819400  0.71645600  0.14747700  1
  C  C55  1  0.45515600  0.68096900  0.18662400  1
  C  C56  1  0.40813400  0.62242200  0.16562000  1
  C  C57  1  0.33406800  0.59920800  0.10517800  1
  C  C58  1  0.30683100  0.63463200  0.06598400  1
  C  C59  1  0.64859700  0.30535000  0.91058400  1
  C  C60  1  0.57425500  0.28414600  0.85035100  1
  C  C61  1  0.54861700  0.31984000  0.81126000  1
  C  C62  1  0.59678700  0.37750200  0.83227700  1
  C  C63  1  0.67067700  0.39962600  0.89267700  1
  C  C64  1  0.69659100  0.36398900  0.93181600  1
  Cl  Cl1  1  0.44249400  0.57731000  0.21528800  1
  Cl  Cl2  1  0.56410800  0.42288100  0.78268000  1
  O  O1  1  0.05951700  0.41218100  0.49741200  1
  O  O2  1  0.94034700  0.58584000  0.50025000  1
  O  O3  1  0.96020800  0.40973300  0.50689200  1
  O  O4  1  0.03965600  0.58828800  0.49077000  1
  O  O5  1  0.11401900  0.56499700  0.62128500  1
  O  O6  1  0.88584500  0.43302500  0.37637700  1
  O  O7  1  0.01215400  0.56273700  0.62620500  1
  O  O8  1  0.98771000  0.43528400  0.37145700  1
  O  O9  1  0.58635800  0.93898700  0.49977200  1
  O  O10  1  0.41349000  0.05903400  0.49788900  1
  O  O11  1  0.58911700  0.03852600  0.49087400  1
  O  O12  1  0.41073100  0.95949500  0.50678700  1
  O  O13  1  0.43374300  0.88519300  0.37605400  1
  O  O14  1  0.56610500  0.11282900  0.62160700  1
  O  O15  1  0.43583600  0.98741800  0.37177800  1
  O  O16  1  0.56401100  0.01060400  0.62588300  1
  O  O17  1  0.95130200  0.03894700  0.57839500  1
  O  O18  1  0.04854300  0.95907200  0.41926000  1
  O  O19  1  0.87571400  0.96651400  0.43368200  1
  O  O20  1  0.12413100  0.03150400  0.56397200  1
  O  O21  1  0.03224800  0.12316600  0.56387800  1
  O  O22  1  0.96759700  0.87485300  0.43377600  1
  O  O23  1  0.95989400  0.04751000  0.41917100  1
  O  O24  1  0.03995100  0.95050900  0.57848400  1
