# generated using pymatgen
data_ZnH22C24NO10
_symmetry_space_group_name_H-M   'P 1'
_cell_length_a   16.16569100
_cell_length_b   14.98586800
_cell_length_c   10.81365200
_cell_angle_alpha   90.00000000
_cell_angle_beta   89.99706100
_cell_angle_gamma   90.00000000
_symmetry_Int_Tables_number   1
_chemical_formula_structural   ZnH22C24NO10
_chemical_formula_sum   'Zn2 H44 C48 N2 O20'
_cell_volume   2619.68193162
_cell_formula_units_Z   2
loop_
 _symmetry_equiv_pos_site_id
 _symmetry_equiv_pos_as_xyz
  1  'x, y, z'
loop_
 _atom_site_type_symbol
 _atom_site_label
 _atom_site_symmetry_multiplicity
 _atom_site_fract_x
 _atom_site_fract_y
 _atom_site_fract_z
 _atom_site_occupancy
  Zn  Zn1  1  0.50939200  0.60023800  0.49606400  1
  Zn  Zn2  1  0.51307700  0.39730100  0.49569600  1
  H  H1  1  0.57385000  0.62554600  0.09930900  1
  H  H2  1  0.42187000  0.39180100  0.10973100  1
  H  H3  1  0.46222900  0.63454800  0.10388100  1
  H  H4  1  0.37900000  0.50100200  0.08819100  1
  H  H5  1  0.45102500  0.62416100  0.90063400  1
  H  H6  1  0.38356600  0.47907400  0.88437000  1
  H  H7  1  0.64306500  0.47791400  0.11286500  1
  H  H8  1  0.58257000  0.37783400  0.09929800  1
  H  H9  1  0.65051400  0.49211300  0.90820600  1
  H  H10  1  0.60373800  0.38725300  0.89085200  1
  H  H11  1  0.93522800  0.63454400  0.42720500  1
  H  H12  1  0.92917600  0.37041600  0.56132500  1
  H  H13  1  0.60096400  0.91576100  0.62795700  1
  H  H14  1  0.60619000  0.07904800  0.62359800  1
  H  H15  1  0.64403800  0.80872000  0.79243900  1
  H  H16  1  0.69583500  0.77993900  0.93573100  1
  H  H17  1  0.55974900  0.92061500  0.90149000  1
  H  H18  1  0.66870400  0.94134300  0.92667400  1
  H  H19  1  0.60721200  0.88998700  0.04723700  1
  H  H20  1  0.36831400  0.19010700  0.87419200  1
  H  H21  1  0.43832300  0.20867000  0.74569000  1
  H  H22  1  0.24957300  0.22298600  0.74538500  1
  H  H23  1  0.31167500  0.13805100  0.67148100  1
  H  H24  1  0.31579800  0.25194700  0.61571900  1
  H  H25  1  0.14407200  0.78173400  0.25377700  1
  H  H26  1  0.11413800  0.83615300  0.39702700  1
  H  H27  1  0.00517200  0.81404000  0.16637300  1
  H  H28  1  0.05783500  0.91512800  0.21302400  1
  H  H29  1  0.97633200  0.86943700  0.30878800  1
  H  H30  1  0.09128700  0.19523300  0.72624300  1
  H  H31  1  0.13631800  0.17058000  0.57618500  1
  H  H32  1  0.95838000  0.12952200  0.65754800  1
  H  H33  1  0.04224300  0.04989700  0.64512000  1
  H  H34  1  0.00325900  0.10497500  0.50792100  1
  H  H35  1  0.28539900  0.12612100  0.15770000  1
  H  H36  1  0.26524100  0.19789600  0.28948700  1
  H  H37  1  0.17979300  0.01991100  0.23145200  1
  H  H38  1  0.13608000  0.13013600  0.21075700  1
  H  H39  1  0.15986100  0.08982100  0.36462200  1
  H  H40  1  0.27534800  0.88336000  0.16604800  1
  H  H41  1  0.35983600  0.80846400  0.12817100  1
  H  H42  1  0.32523000  0.99032000  0.00779500  1
  H  H43  1  0.30326100  0.88207700  0.94106800  1
  H  H44  1  0.40919200  0.91527700  0.96968800  1
  C  C1  1  0.34939900  0.49595800  0.49902500  1
  C  C2  1  0.50921500  0.49966100  0.25376900  1
  C  C3  1  0.67287100  0.50170800  0.49227000  1
  C  C4  1  0.51463800  0.49799100  0.73889000  1
  C  C5  1  0.51499200  0.59475500  0.06828000  1
  C  C6  1  0.43252300  0.45760600  0.06581900  1
  C  C7  1  0.51160000  0.59563100  0.92825300  1
  C  C8  1  0.43913400  0.44806400  0.92646400  1
  C  C9  1  0.58669400  0.44870200  0.07068300  1
  C  C10  1  0.51084900  0.49977100  0.11549500  1
  C  C11  1  0.51608300  0.49873400  0.87876500  1
  C  C12  1  0.59389100  0.45440400  0.93071700  1
  C  C13  1  0.96902800  0.57622100  0.45707700  1
  C  C14  1  0.96550000  0.42723400  0.53246600  1
  C  C15  1  0.92492300  0.50232600  0.49289500  1
  C  C16  1  0.05081600  0.42517300  0.53831000  1
  C  C17  1  0.05463500  0.57628900  0.46112300  1
  C  C18  1  0.09634200  0.49996800  0.50202900  1
  C  C19  1  0.83616600  0.50359700  0.49126400  1
  C  C20  1  0.18563600  0.49655800  0.50051700  1
  C  C21  1  0.26037900  0.49499900  0.49976200  1
  C  C22  1  0.76162400  0.50337600  0.49121800  1
  C  C23  1  0.45291400  0.95328300  0.41397500  1
  C  C24  1  0.45692700  0.04622200  0.40993700  1
  C  C25  1  0.50490600  0.90686700  0.49353000  1
  C  C26  1  0.51237700  0.09086700  0.48603000  1
  C  C27  1  0.55999200  0.95227500  0.56744700  1
  C  C28  1  0.56353600  0.04382900  0.56406100  1
  C  C29  1  0.50615100  0.81092500  0.49581100  1
  C  C30  1  0.51415600  0.18668300  0.49082800  1
  C  C31  1  0.57814900  0.65948900  0.88559600  1
  C  C32  1  0.63708000  0.80371900  0.89420000  1
  C  C33  1  0.61679400  0.89499700  0.94592400  1
  C  C34  1  0.43761300  0.35016300  0.89427100  1
  C  C35  1  0.37880000  0.22891800  0.78822100  1
  C  C36  1  0.30928800  0.20930500  0.69894200  1
  C  C37  1  0.09758900  0.65822100  0.42001300  1
  C  C38  1  0.09163000  0.79754400  0.31621300  1
  C  C39  1  0.02857400  0.85275900  0.24645800  1
  C  C40  1  0.08974200  0.34230500  0.58314100  1
  C  C41  1  0.07847400  0.18756100  0.62603300  1
  C  C42  1  0.01644000  0.11300200  0.60795100  1
  C  C43  1  0.40056300  0.09826100  0.33067900  1
  C  C44  1  0.26583000  0.12792400  0.25599100  1
  C  C45  1  0.17958800  0.08941100  0.26644900  1
  C  C46  1  0.39709200  0.90339000  0.33122700  1
  C  C47  1  0.34006600  0.87929100  0.13247300  1
  C  C48  1  0.34476300  0.91944400  0.00420500  1
  N  N1  1  0.51497400  0.26385700  0.49445500  1
  N  N2  1  0.50734200  0.73369500  0.49736500  1
  O  O1  1  0.38654800  0.57363500  0.49754100  1
  O  O2  1  0.38943200  0.41974700  0.49926600  1
  O  O3  1  0.50820000  0.57664200  0.31163000  1
  O  O4  1  0.51093300  0.42260900  0.31162600  1
  O  O5  1  0.63301200  0.57795700  0.49385600  1
  O  O6  1  0.63593800  0.42379600  0.49252900  1
  O  O7  1  0.51054200  0.57457200  0.68006200  1
  O  O8  1  0.51566900  0.42110700  0.68031400  1
  O  O9  1  0.63527000  0.63535700  0.81992800  1
  O  O10  1  0.57451700  0.74534200  0.92258900  1
  O  O11  1  0.48414200  0.29775600  0.94539800  1
  O  O12  1  0.38052700  0.31849300  0.81483800  1
  O  O13  1  0.16971400  0.67238800  0.44648600  1
  O  O14  1  0.05502400  0.72004300  0.35551600  1
  O  O15  1  0.15864200  0.34301100  0.62876900  1
  O  O16  1  0.04635300  0.26544700  0.57996100  1
  O  O17  1  0.42708800  0.16035500  0.26940900  1
  O  O18  1  0.31927300  0.07820400  0.32644100  1
  O  O19  1  0.35632400  0.84126200  0.37126500  1
  O  O20  1  0.39117300  0.92574100  0.21068300  1
