# generated using pymatgen
data_VH6(C4O3)3
_symmetry_space_group_name_H-M   'P 1'
_cell_length_a   20.92569500
_cell_length_b   6.14801300
_cell_length_c   17.76088400
_cell_angle_alpha   90.00000000
_cell_angle_beta   107.32228900
_cell_angle_gamma   90.00000000
_symmetry_Int_Tables_number   1
_chemical_formula_structural   VH6(C4O3)3
_chemical_formula_sum   'V4 H24 C48 O36'
_cell_volume   2181.32897418
_cell_formula_units_Z   4
loop_
 _symmetry_equiv_pos_site_id
 _symmetry_equiv_pos_as_xyz
  1  'x, y, z'
loop_
 _atom_site_type_symbol
 _atom_site_label
 _atom_site_symmetry_multiplicity
 _atom_site_fract_x
 _atom_site_fract_y
 _atom_site_fract_z
 _atom_site_occupancy
  V  V1  1  0.49486500  0.05254400  0.47686100  1
  V  V2  1  0.50513500  0.55254400  0.52313900  1
  V  V3  1  0.00470700  0.21430200  0.02283700  1
  V  V4  1  0.99529300  0.71430200  0.97716400  1
  H  H1  1  0.34530600  0.39288900  0.80010200  1
  H  H2  1  0.65469400  0.89288900  0.19989900  1
  H  H3  1  0.28503200  0.27357000  0.87977600  1
  H  H4  1  0.71496700  0.77357000  0.12022400  1
  H  H5  1  0.22295000  0.77305800  0.76260800  1
  H  H6  1  0.77705000  0.27305800  0.23739300  1
  H  H7  1  0.35534700  0.99782700  0.81178000  1
  H  H8  1  0.64465300  0.49782700  0.18822000  1
  H  H9  1  0.14696200  0.31009300  0.69639000  1
  H  H10  1  0.85303800  0.81009300  0.30361100  1
  H  H11  1  0.21886300  0.44715900  0.82126700  1
  H  H12  1  0.78113700  0.94715900  0.17873400  1
  H  H13  1  0.27128500  0.50151100  0.72861800  1
  H  H14  1  0.72871500  0.00151100  0.27138200  1
  H  H15  1  0.21573100  0.98537400  0.62340000  1
  H  H16  1  0.78426900  0.48537400  0.37660100  1
  H  H17  1  0.33802200  0.92190600  0.98795700  1
  H  H18  1  0.66197800  0.42190600  0.01204300  1
  H  H19  1  0.29351200  0.59406100  0.61962700  1
  H  H20  1  0.70648700  0.09406100  0.38037400  1
  H  H21  1  0.02324200  0.90227600  0.62768400  1
  H  H22  1  0.97675800  0.40227600  0.37231600  1
  H  H23  1  0.22858600  0.47934900  0.51110400  1
  H  H24  1  0.77141400  0.97934900  0.48889600  1
  C  C1  1  0.57693000  0.75730600  0.41558900  1
  C  C2  1  0.42307000  0.25730600  0.58441100  1
  C  C3  1  0.39255100  0.75295100  0.39044100  1
  C  C4  1  0.60744900  0.25295100  0.60955900  1
  C  C5  1  0.66859000  0.20361400  0.67012200  1
  C  C6  1  0.33141000  0.70361400  0.32987800  1
  C  C7  1  0.71984700  0.15885500  0.72052000  1
  C  C8  1  0.28015300  0.65885500  0.27948000  1
  C  C9  1  0.77991700  0.10520600  0.77943800  1
  C  C10  1  0.22008300  0.60520600  0.22056200  1
  C  C11  1  0.83120000  0.06105600  0.82989300  1
  C  C12  1  0.16880000  0.56105600  0.17010800  1
  C  C13  1  0.25161000  0.30665200  0.81962400  1
  C  C14  1  0.74839000  0.80665200  0.18037600  1
  C  C15  1  0.25281700  0.90986400  0.79590800  1
  C  C16  1  0.74718300  0.40986400  0.20409200  1
  C  C17  1  0.30954300  0.96355600  0.76248200  1
  C  C18  1  0.69045700  0.46355600  0.23751900  1
  C  C19  1  0.37737700  0.22157600  0.62935000  1
  C  C20  1  0.62262300  0.72157600  0.37065000  1
  C  C21  1  0.20861800  0.10925100  0.78859000  1
  C  C22  1  0.79138200  0.60925100  0.21141100  1
  C  C23  1  0.29292100  0.35814400  0.76491300  1
  C  C24  1  0.70707900  0.85814400  0.23508700  1
  C  C25  1  0.29094400  0.16463200  0.71161600  1
  C  C26  1  0.70905600  0.66463200  0.28838500  1
  C  C27  1  0.22064700  0.14158700  0.65557200  1
  C  C28  1  0.77935300  0.64158700  0.34442900  1
  C  C29  1  0.17115900  0.14787000  0.70264300  1
  C  C30  1  0.82884100  0.64787000  0.29735700  1
  C  C31  1  0.33849400  0.19532500  0.66666667  1
  C  C32  1  0.66150600  0.69532500  0.33333333  1
  C  C33  1  0.16110600  0.07781800  0.83351300  1
  C  C34  1  0.83889400  0.57781800  0.16648800  1
  C  C35  1  0.12229900  0.05086200  0.87091500  1
  C  C36  1  0.87770000  0.55086200  0.12908500  1
  C  C37  1  0.10760000  0.51319900  0.10942100  1
  C  C38  1  0.89240000  0.01319900  0.89057900  1
  C  C39  1  0.92325900  0.51426900  0.08403600  1
  C  C40  1  0.07674100  0.01426900  0.91596400  1
  C  C41  1  0.28089700  0.84764900  0.88049700  1
  C  C42  1  0.71910300  0.34764900  0.11950300  1
  C  C43  1  0.32292800  0.77839000  0.71509700  1
  C  C44  1  0.67707200  0.27839000  0.28490400  1
  C  C45  1  0.11904400  0.97745900  0.67332400  1
  C  C46  1  0.88095600  0.47745900  0.32667600  1
  C  C47  1  0.20644800  0.32392000  0.59777600  1
  C  C48  1  0.79355200  0.82392000  0.40222400  1
  O  O1  1  0.42168400  0.58776200  0.43576000  1
  O  O2  1  0.57831600  0.08776200  0.56424000  1
  O  O3  1  0.55048700  0.95398400  0.41030900  1
  O  O4  1  0.44951300  0.45398400  0.58969200  1
  O  O5  1  0.41575200  0.95340900  0.39203400  1
  O  O6  1  0.58424800  0.45340900  0.60796700  1
  O  O7  1  0.43627400  0.08737200  0.54530900  1
  O  O8  1  0.56372500  0.58737200  0.45469100  1
  O  O9  1  0.51048800  0.81466300  0.55088100  1
  O  O10  1  0.48951200  0.31466300  0.44911900  1
  O  O11  1  0.93681300  0.68405900  0.04515400  1
  O  O12  1  0.06318700  0.18405900  0.95484600  1
  O  O13  1  0.08399700  0.31303100  0.10752100  1
  O  O14  1  0.91600300  0.81303100  0.89248000  1
  O  O15  1  0.94913100  0.31677300  0.08891000  1
  O  O16  1  0.05086900  0.81677300  0.91109000  1
  O  O17  1  0.92121500  0.17956400  0.93549600  1
  O  O18  1  0.07878500  0.67956400  0.06450400  1
  O  O19  1  0.99066500  0.45284600  0.94885500  1
  O  O20  1  0.00933500  0.95284600  0.05114500  1
  O  O21  1  0.26712700  0.67170900  0.90322000  1
  O  O22  1  0.32338700  0.98911700  0.93348300  1
  O  O23  1  0.73287300  0.17170900  0.09678000  1
  O  O24  1  0.67661200  0.48911700  0.06651700  1
  O  O25  1  0.37616600  0.68200500  0.73722400  1
  O  O26  1  0.27593100  0.71961500  0.64452600  1
  O  O27  1  0.62383400  0.18200500  0.26277700  1
  O  O28  1  0.72406900  0.21961500  0.35547400  1
  O  O29  1  0.13514900  0.78698700  0.67312600  1
  O  O30  1  0.05190300  0.03614100  0.64550100  1
  O  O31  1  0.86485100  0.28698700  0.32687500  1
  O  O32  1  0.94809700  0.53614100  0.35449900  1
  O  O33  1  0.16102300  0.45056700  0.59519500  1
  O  O34  1  0.24474900  0.34887300  0.54637700  1
  O  O35  1  0.83897700  0.95056700  0.40480600  1
  O  O36  1  0.75525100  0.84887300  0.45362400  1
