# generated using pymatgen
data_ZnH15C27(NO2)3
_symmetry_space_group_name_H-M   'P 1'
_cell_length_a   7.66793700
_cell_length_b   8.97805600
_cell_length_c   27.52919800
_cell_angle_alpha   89.98199200
_cell_angle_beta   83.96072800
_cell_angle_gamma   91.41814000
_symmetry_Int_Tables_number   1
_chemical_formula_structural   ZnH15C27(NO2)3
_chemical_formula_sum   'Zn2 H30 C54 N6 O12'
_cell_volume   1884.09349596
_cell_formula_units_Z   2
loop_
 _symmetry_equiv_pos_site_id
 _symmetry_equiv_pos_as_xyz
  1  'x, y, z'
loop_
 _atom_site_type_symbol
 _atom_site_label
 _atom_site_symmetry_multiplicity
 _atom_site_fract_x
 _atom_site_fract_y
 _atom_site_fract_z
 _atom_site_occupancy
  Zn  Zn1  1  0.29772400  0.52750000  0.50686400  1
  Zn  Zn2  1  0.69421300  0.49619200  0.49397500  1
  H  H1  1  0.76292300  0.59352000  0.64576800  1
  H  H2  1  0.70324100  0.36716300  0.34083400  1
  H  H3  1  0.76142600  0.59828700  0.73508800  1
  H  H4  1  0.69645600  0.36140000  0.25178300  1
  H  H5  1  0.63740100  0.85993700  0.87467700  1
  H  H6  1  0.46376300  0.14524100  0.12336400  1
  H  H7  1  0.27853500  0.66666667  0.35370400  1
  H  H8  1  0.23880000  0.41772900  0.66138400  1
  H  H9  1  0.28196500  0.67115800  0.26425100  1
  H  H10  1  0.24152300  0.41228200  0.75054000  1
  H  H11  1  0.51569400  0.88192900  0.12006400  1
  H  H12  1  0.35945300  0.15578600  0.88392800  1
  H  H13  1  0.52889700  0.88457400  0.03285900  1
  H  H14  1  0.36260100  0.15080600  0.97066500  1
  H  H15  1  0.62743100  0.86913800  0.96173000  1
  H  H16  1  0.45613800  0.13858500  0.03676800  1
  H  H17  1  0.03328500  0.42423500  0.45853900  1
  H  H18  1  0.95864500  0.59948600  0.54229200  1
  H  H19  1  0.74405900  0.09521800  0.53500400  1
  H  H20  1  0.02152900  0.18643000  0.49739700  1
  H  H21  1  0.20693500  0.23981100  0.42059000  1
  H  H22  1  0.12513400  0.13646200  0.34326300  1
  H  H23  1  0.85970000  0.97737500  0.34272100  1
  H  H24  1  0.67622700  0.92124400  0.41899600  1
  H  H25  1  0.24928100  0.92712600  0.46576800  1
  H  H26  1  0.97136200  0.83646100  0.50298700  1
  H  H27  1  0.78367100  0.78549700  0.57956600  1
  H  H28  1  0.86178800  0.89299400  0.65670800  1
  H  H29  1  0.12602000  0.05355800  0.65727000  1
  H  H30  1  0.31200100  0.10698400  0.58119600  1
  C  C1  1  0.53432000  0.80241500  0.50038000  1
  C  C2  1  0.45760800  0.22127800  0.50042100  1
  C  C3  1  0.49948600  0.50714700  0.59524200  1
  C  C4  1  0.49245900  0.51648600  0.40560200  1
  C  C5  1  0.55377200  0.62972700  0.82257500  1
  C  C6  1  0.48463900  0.38458400  0.17708100  1
  C  C7  1  0.44708000  0.38337400  0.82607500  1
  C  C8  1  0.49231000  0.64500300  0.17624700  1
  C  C9  1  0.35617100  0.45227700  0.72758800  1
  C  C10  1  0.37382900  0.60361200  0.28109000  1
  C  C11  1  0.35418500  0.45614600  0.67758000  1
  C  C12  1  0.37128600  0.60051500  0.33126600  1
  C  C13  1  0.64810000  0.55434800  0.66882000  1
  C  C14  1  0.60977300  0.43308800  0.32403100  1
  C  C15  1  0.64676800  0.55790400  0.71894800  1
  C  C16  1  0.60529700  0.42923300  0.27411900  1
  C  C17  1  0.50154100  0.50516200  0.74835000  1
  C  C18  1  0.48904500  0.51613800  0.25255700  1
  C  C19  1  0.49778700  0.50832300  0.89992400  1
  C  C20  1  0.49021100  0.51312600  0.10109400  1
  C  C21  1  0.54842400  0.63344600  0.87281800  1
  C  C22  1  0.48058800  0.38211100  0.12710800  1
  C  C23  1  0.59464000  0.76183400  0.89585400  1
  C  C24  1  0.46863000  0.24878100  0.10317900  1
  C  C25  1  0.44904700  0.38197800  0.87613000  1
  C  C26  1  0.49842900  0.64528400  0.12596600  1
  C  C27  1  0.50088200  0.50546000  0.64815800  1
  C  C28  1  0.49102500  0.51690200  0.35268400  1
  C  C29  1  0.51629400  0.64441200  0.02479400  1
  C  C30  1  0.45745400  0.37911800  0.97660000  1
  C  C31  1  0.46932000  0.37833800  0.02674700  1
  C  C32  1  0.53206500  0.64121800  0.97392300  1
  C  C33  1  0.49187800  0.51196500  0.05074900  1
  C  C34  1  0.49578100  0.50955600  0.95027800  1
  C  C35  1  0.52305300  0.77750600  0.05042700  1
  C  C36  1  0.40671000  0.25235000  0.95212700  1
  C  C37  1  0.51186800  0.77748800  0.10065200  1
  C  C38  1  0.40083200  0.25480600  0.90234800  1
  C  C39  1  0.58482000  0.76672300  0.94603000  1
  C  C40  1  0.46070200  0.24645600  0.05348200  1
  C  C41  1  0.56202900  0.96474700  0.50164600  1
  C  C42  1  0.43002100  0.05892600  0.49912100  1
  C  C43  1  0.83596700  0.05219100  0.46319400  1
  C  C44  1  0.98509400  0.14130400  0.46338500  1
  C  C45  1  0.08911700  0.17126700  0.42034900  1
  C  C46  1  0.04362700  0.11293900  0.37699000  1
  C  C47  1  0.89480300  0.02378400  0.37669800  1
  C  C48  1  0.79133300  0.99278200  0.41973600  1
  C  C49  1  0.15473000  0.97323000  0.53713000  1
  C  C50  1  0.00621400  0.88337600  0.53691800  1
  C  C51  1  0.90087600  0.85480500  0.57982800  1
  C  C52  1  0.94433600  0.91541300  0.62307800  1
  C  C53  1  0.09249100  0.00539200  0.62338300  1
  C  C54  1  0.19735900  0.03488400  0.58046800  1
  N  N1  1  0.50118300  0.50599700  0.80004000  1
  N  N2  1  0.48813600  0.51529900  0.20092100  1
  N  N3  1  0.95499300  0.47755300  0.48540400  1
  N  N4  1  0.03694200  0.54614500  0.51542900  1
  N  N5  1  0.73305600  0.01889100  0.50756800  1
  N  N6  1  0.25928800  0.00470500  0.49288400  1
  O  O1  1  0.37420200  0.74527900  0.50590800  1
  O  O2  1  0.61776600  0.27837400  0.49580500  1
  O  O3  1  0.67466200  0.72078600  0.49545000  1
  O  O4  1  0.31724500  0.30294700  0.50452300  1
  O  O5  1  0.34817900  0.51899300  0.57756900  1
  O  O6  1  0.64331400  0.50154400  0.42327300  1
  O  O7  1  0.64940700  0.49744300  0.56786400  1
  O  O8  1  0.34295700  0.52936300  0.43297600  1
  O  O9  1  0.60597300  0.75166200  0.79616600  1
  O  O10  1  0.47974700  0.25610300  0.20224700  1
  O  O11  1  0.49665600  0.77453200  0.20053500  1
  O  O12  1  0.39612800  0.26040400  0.80306800  1
