# generated using pymatgen
data_Fe2H15C50N2ClO20
_symmetry_space_group_name_H-M   'P 1'
_cell_length_a   13.04903000
_cell_length_b   9.37534900
_cell_length_c   23.89359100
_cell_angle_alpha   84.22837200
_cell_angle_beta   97.64408500
_cell_angle_gamma   115.46107100
_symmetry_Int_Tables_number   1
_chemical_formula_structural   Fe2H15C50N2ClO20
_chemical_formula_sum   'Fe2 H15 C50 N2 Cl1 O20'
_cell_volume   2612.69353830
_cell_formula_units_Z   1
loop_
 _symmetry_equiv_pos_site_id
 _symmetry_equiv_pos_as_xyz
  1  'x, y, z'
loop_
 _atom_site_type_symbol
 _atom_site_label
 _atom_site_symmetry_multiplicity
 _atom_site_fract_x
 _atom_site_fract_y
 _atom_site_fract_z
 _atom_site_occupancy
  Fe  Fe1  1  0.49203300  0.00818700  0.11758400  1
  Fe  Fe2  1  0.50628800  0.99256900  0.88409900  1
  H  H1  1  0.10008500  0.92604500  0.86404600  1
  H  H2  1  0.91973700  0.93071600  0.85523300  1
  H  H3  1  0.77243600  0.96426700  0.89465200  1
  H  H4  1  0.22601900  0.03688900  0.10705800  1
  H  H5  1  0.07870400  0.07040100  0.14648200  1
  H  H6  1  0.89830800  0.07491400  0.13768200  1
  H  H7  1  0.27125000  0.58418800  0.42898700  1
  H  H8  1  0.72115300  0.41441100  0.57128700  1
  H  H9  1  0.71983900  0.41004900  0.47030100  1
  H  H10  1  0.50350800  0.28606200  0.72350800  1
  H  H11  1  0.50760300  0.74517900  0.69770400  1
  H  H12  1  0.49199400  0.71293900  0.27791200  1
  H  H13  1  0.48854900  0.25424300  0.30390600  1
  H  H14  1  0.49408400  0.52910300  0.86321700  1
  H  H15  1  0.50538500  0.47196100  0.13856100  1
  C  C1  1  0.21082300  0.95624600  0.94074700  1
  C  C2  1  0.11165700  0.94481800  0.90875800  1
  C  C3  1  0.02758900  0.96148400  0.93279200  1
  C  C4  1  0.93074100  0.95332400  0.89961400  1
  C  C5  1  0.84703700  0.97393500  0.92249200  1
  C  C6  1  0.22348000  0.97850500  0.99836100  1
  C  C7  1  0.13827900  0.99586000  0.02254900  1
  C  C8  1  0.04095200  0.98912100  0.98933600  1
  C  C9  1  0.95748700  0.01199900  0.01238000  1
  C  C10  1  0.86016000  0.00526000  0.97916600  1
  C  C11  1  0.77494000  0.02256100  0.00335800  1
  C  C12  1  0.15141300  0.02721100  0.07922100  1
  C  C13  1  0.06770300  0.04780100  0.10210100  1
  C  C14  1  0.97084400  0.03961100  0.06892500  1
  C  C15  1  0.88675000  0.05619300  0.09296600  1
  C  C16  1  0.78756800  0.04471100  0.06098200  1
  C  C17  1  0.69575500  0.04516700  0.09050700  1
  C  C18  1  0.49478600  0.73582600  0.16466900  1
  C  C19  1  0.33189500  0.00594500  0.03198300  1
  C  C20  1  0.49339100  0.20855100  0.19620300  1
  C  C21  1  0.50484900  0.79183100  0.80554700  1
  C  C22  1  0.66651600  0.99507700  0.96973000  1
  C  C23  1  0.50351100  0.26468400  0.83694900  1
  C  C24  1  0.30260000  0.95564400  0.91123300  1
  C  C25  1  0.57356600  0.46331200  0.39222400  1
  C  C26  1  0.41571800  0.52481900  0.37760400  1
  C  C27  1  0.41535600  0.52810600  0.43535600  1
  C  C28  1  0.49530300  0.49794500  0.47180900  1
  C  C29  1  0.57512400  0.46545100  0.45009900  1
  C  C30  1  0.33493800  0.56017100  0.45682100  1
  C  C31  1  0.33411300  0.56273400  0.51432300  1
  C  C32  1  0.41534000  0.53265200  0.55150000  1
  C  C33  1  0.49555200  0.50026900  0.52957800  1
  C  C34  1  0.57647400  0.47014300  0.56563000  1
  C  C35  1  0.65688300  0.43810400  0.54383600  1
  C  C36  1  0.65621100  0.43569200  0.48628500  1
  C  C37  1  0.41864200  0.53387300  0.60996100  1
  C  C38  1  0.57746500  0.47382500  0.62332100  1
  C  C39  1  0.50415100  0.38926800  0.74030900  1
  C  C40  1  0.50150900  0.39454400  0.79773900  1
  C  C41  1  0.49555900  0.52308600  0.81843300  1
  C  C42  1  0.49869000  0.64939500  0.78257600  1
  C  C43  1  0.50369000  0.64515300  0.72560400  1
  C  C44  1  0.50281900  0.51338900  0.70403500  1
  C  C45  1  0.49209200  0.61012500  0.26118100  1
  C  C46  1  0.49626600  0.60565300  0.20386200  1
  C  C47  1  0.50293600  0.47747500  0.18328200  1
  C  C48  1  0.49925500  0.35088500  0.21914100  1
  C  C49  1  0.49300700  0.35452500  0.27602400  1
  C  C50  1  0.49273200  0.48569500  0.29746700  1
  N  N1  1  0.49419500  0.49230700  0.35697800  1
  N  N2  1  0.49944700  0.50592400  0.64442300  1
  Cl  Cl1  1  0.22814900  0.60659500  0.53639200  1
  O  O1  1  0.60591000  0.05833100  0.06314100  1
  O  O2  1  0.51153900  0.73732100  0.11162200  1
  O  O3  1  0.69978800  0.02102700  0.14565500  1
  O  O4  1  0.47727700  0.85177600  0.18171400  1
  O  O5  1  0.33751600  0.90805300  0.07443500  1
  O  O6  1  0.42194000  0.13817200  0.02322500  1
  O  O7  1  0.54257400  0.21952800  0.15039400  1
  O  O8  1  0.42973500  0.06943400  0.21839500  1
  O  O9  1  0.45587600  0.78097800  0.85141600  1
  O  O10  1  0.56824700  0.93087300  0.78321100  1
  O  O11  1  0.66085600  0.09295600  0.92727800  1
  O  O12  1  0.57651600  0.86277200  0.97846500  1
  O  O13  1  0.29859100  0.97981000  0.85608700  1
  O  O14  1  0.52098200  0.14872900  0.81988900  1
  O  O15  1  0.39239900  0.94234100  0.93859900  1
  O  O16  1  0.48709400  0.26335600  0.89004000  1
  O  O17  1  0.65326200  0.43597200  0.37082700  1
  O  O18  1  0.33553200  0.54930700  0.34189300  1
  O  O19  1  0.33997100  0.55882500  0.63319900  1
  O  O20  1  0.65852500  0.45012300  0.65857700  1
