# generated using pymatgen
data_Zn2H27C48N2ClO8
_symmetry_space_group_name_H-M   'P 1'
_cell_length_a   15.28004700
_cell_length_b   11.77564900
_cell_length_c   9.31345400
_cell_angle_alpha   90.16912100
_cell_angle_beta   90.00108300
_cell_angle_gamma   90.00000000
_symmetry_Int_Tables_number   1
_chemical_formula_structural   Zn2H27C48N2ClO8
_chemical_formula_sum   'Zn2 H27 C48 N2 Cl1 O8'
_cell_volume   1675.78548350
_cell_formula_units_Z   1
loop_
 _symmetry_equiv_pos_site_id
 _symmetry_equiv_pos_as_xyz
  1  'x, y, z'
loop_
 _atom_site_type_symbol
 _atom_site_label
 _atom_site_symmetry_multiplicity
 _atom_site_fract_x
 _atom_site_fract_y
 _atom_site_fract_z
 _atom_site_occupancy
  Zn  Zn1  1  0.50192800  0.48582700  0.84601000  1
  Zn  Zn2  1  0.50298000  0.49228200  0.16750600  1
  H  H1  1  0.19099600  0.91836400  0.19114800  1
  H  H2  1  0.26988100  0.67097700  0.78802500  1
  H  H3  1  0.14315400  0.79435300  0.76976300  1
  H  H4  1  0.20332500  0.06049300  0.80635100  1
  H  H5  1  0.26421500  0.30550700  0.22291600  1
  H  H6  1  0.33029300  0.18636700  0.80273500  1
  H  H7  1  0.13556600  0.18291500  0.22315800  1
  H  H8  1  0.80473900  0.92150500  0.19292000  1
  H  H9  1  0.73516500  0.67129200  0.78563000  1
  H  H10  1  0.67743600  0.79615200  0.20675700  1
  H  H11  1  0.86340200  0.79320300  0.77528000  1
  H  H12  1  0.80101100  0.05887400  0.80892700  1
  H  H13  1  0.74098700  0.30780000  0.22193600  1
  H  H14  1  0.67500300  0.18654600  0.80251400  1
  H  H15  1  0.86842300  0.18351600  0.22480700  1
  H  H16  1  0.00180700  0.78604800  0.93950100  1
  H  H17  1  0.00172100  0.19378800  0.05077500  1
  H  H18  1  0.50923200  0.66188700  0.64211400  1
  H  H19  1  0.50217300  0.26724800  0.76114000  1
  H  H20  1  0.50554500  0.09948500  0.63292400  1
  H  H21  1  0.50634000  0.10119500  0.37045900  1
  H  H22  1  0.50388800  0.26886800  0.24669600  1
  H  H23  1  0.50792300  0.66565000  0.37971500  1
  H  H24  1  0.31021100  0.62266400  0.55355800  1
  H  H25  1  0.38698100  0.78912900  0.65490100  1
  H  H26  1  0.41943300  0.95276700  0.50191100  1
  H  H27  1  0.37349800  0.95292300  0.24893900  1
  C  C1  1  0.30467500  0.72340300  0.00121000  1
  C  C2  1  0.08009400  0.93347200  0.97470700  1
  C  C3  1  0.21103900  0.86748400  0.10012000  1
  C  C4  1  0.25531900  0.72708800  0.87640400  1
  C  C5  1  0.28009500  0.79312000  0.11556600  1
  C  C6  1  0.16144400  0.86830500  0.97694300  1
  C  C7  1  0.18299500  0.79662300  0.86564800  1
  C  C8  1  0.30624500  0.25430200  0.01276300  1
  C  C9  1  0.08013700  0.04746600  0.01029000  1
  C  C10  1  0.21763700  0.11240000  0.89934500  1
  C  C11  1  0.25224600  0.25070700  0.13172400  1
  C  C12  1  0.28879100  0.18459400  0.89667300  1
  C  C13  1  0.16175600  0.11236100  0.01587000  1
  C  C14  1  0.17927300  0.18180900  0.13188900  1
  C  C15  1  0.69692100  0.72546800  0.99695100  1
  C  C16  1  0.92312700  0.93239500  0.98028100  1
  C  C17  1  0.78837700  0.86830800  0.10202600  1
  C  C18  1  0.74878100  0.72713200  0.87515400  1
  C  C19  1  0.71704100  0.79643000  0.11060000  1
  C  C20  1  0.84167200  0.86688600  0.98200600  1
  C  C21  1  0.82173700  0.79570300  0.86904500  1
  C  C22  1  0.00160400  0.87661700  0.95874300  1
  C  C23  1  0.69924400  0.25567500  0.01182700  1
  C  C24  1  0.92334900  0.04672400  0.01381700  1
  C  C25  1  0.78671400  0.11167800  0.90111800  1
  C  C26  1  0.75272900  0.25223500  0.13141000  1
  C  C27  1  0.71628300  0.18490600  0.89672300  1
  C  C28  1  0.84201800  0.11171000  0.01838400  1
  C  C29  1  0.82492400  0.18228100  0.13326900  1
  C  C30  1  0.00175900  0.10343600  0.02995300  1
  C  C31  1  0.62372600  0.64510600  0.00482200  1
  C  C32  1  0.62684700  0.33678600  0.00695300  1
  C  C33  1  0.37882500  0.33551100  0.00785500  1
  C  C34  1  0.37948600  0.64377300  0.00668200  1
  C  C35  1  0.50229300  0.27933200  0.64872500  1
  C  C36  1  0.50418300  0.17897700  0.57529300  1
  C  C37  1  0.50467200  0.18000400  0.43014100  1
  C  C38  1  0.50341100  0.28124300  0.35895700  1
  C  C39  1  0.50257300  0.38663500  0.42998400  1
  C  C40  1  0.50184300  0.38501000  0.58000600  1
  C  C41  1  0.50538000  0.58280900  0.58365900  1
  C  C42  1  0.50548700  0.58485100  0.43428800  1
  C  C43  1  0.31869300  0.78626100  0.25838100  1
  C  C44  1  0.29891800  0.69510300  0.34534000  1
  C  C45  1  0.32511000  0.69490600  0.48672900  1
  C  C46  1  0.36827400  0.78769200  0.54304300  1
  C  C47  1  0.38662300  0.87965000  0.45711500  1
  C  C48  1  0.36139000  0.87929800  0.31508700  1
  N  N1  1  0.50188200  0.48399000  0.65650800  1
  N  N2  1  0.50320900  0.48781100  0.35702300  1
  Cl  Cl1  1  0.23689600  0.58171100  0.27799100  1
  O  O1  1  0.59569000  0.61101500  0.13234100  1
  O  O2  1  0.59262400  0.60680700  0.88171800  1
  O  O3  1  0.59755500  0.37161900  0.88320200  1
  O  O4  1  0.59662700  0.37598300  0.12778500  1
  O  O5  1  0.40698600  0.37081700  0.88369500  1
  O  O6  1  0.40994000  0.37489900  0.12826200  1
  O  O7  1  0.40947700  0.60984500  0.13277100  1
  O  O8  1  0.41040100  0.60587100  0.88253200  1
