# generated using pymatgen
data_Cu6H68C111O25
_symmetry_space_group_name_H-M   'P 1'
_cell_length_a   18.64436900
_cell_length_b   18.48135800
_cell_length_c   18.62510200
_cell_angle_alpha   109.02102800
_cell_angle_beta   110.00600300
_cell_angle_gamma   109.24912500
_symmetry_Int_Tables_number   1
_chemical_formula_structural   Cu6H68C111O25
_chemical_formula_sum   'Cu6 H68 C111 O25'
_cell_volume   4948.42181626
_cell_formula_units_Z   1
loop_
 _symmetry_equiv_pos_site_id
 _symmetry_equiv_pos_as_xyz
  1  'x, y, z'
loop_
 _atom_site_type_symbol
 _atom_site_label
 _atom_site_symmetry_multiplicity
 _atom_site_fract_x
 _atom_site_fract_y
 _atom_site_fract_z
 _atom_site_occupancy
  Cu  Cu1  1  0.00528100  0.42880600  0.93138300  1
  Cu  Cu2  1  0.00435300  0.54926200  0.05270700  1
  Cu  Cu3  1  0.56365800  0.00085900  0.06236000  1
  Cu  Cu4  1  0.44118100  0.00721200  0.94684900  1
  Cu  Cu5  1  0.44075800  0.44651300  0.50177400  1
  Cu  Cu6  1  0.56528600  0.56702700  0.50438800  1
  H  H1  1  0.11019400  0.19727000  0.09940200  1
  H  H2  1  0.37312300  0.24466000  0.84338900  1
  H  H3  1  0.44395000  0.26338200  0.99142700  1
  H  H4  1  0.58193400  0.26059900  0.04744400  1
  H  H5  1  0.72443000  0.10093900  0.61945000  1
  H  H6  1  0.74220600  0.17721400  0.53521800  1
  H  H7  1  0.75561900  0.32388700  0.58494500  1
  H  H8  1  0.73037000  0.31698300  0.80197400  1
  H  H9  1  0.71865900  0.17114600  0.75303300  1
  H  H10  1  0.63725100  0.36791700  0.60402700  1
  H  H11  1  0.86231000  0.62367400  0.89560600  1
  H  H12  1  0.02969300  0.18344300  0.95569200  1
  H  H13  1  0.88292700  0.73237300  0.82895500  1
  H  H14  1  0.89138300  0.87616400  0.88844300  1
  H  H15  1  0.76811100  0.88689700  0.90196500  1
  H  H16  1  0.63724700  0.75363500  0.85675000  1
  H  H17  1  0.62601400  0.60851600  0.79270600  1
  H  H18  1  0.86148800  0.51160900  0.62756600  1
  H  H19  1  0.94526500  0.44045100  0.67238000  1
  H  H20  1  0.08762500  0.52716300  0.80871200  1
  H  H21  1  0.06206700  0.75701400  0.85804700  1
  H  H22  1  0.92116000  0.67017900  0.71930700  1
  H  H23  1  0.90260600  0.20604200  0.92049500  1
  H  H24  1  0.22063900  0.78750400  0.88257500  1
  H  H25  1  0.27953300  0.71365600  0.11905900  1
  H  H26  1  0.43627800  0.74642000  0.15780800  1
  H  H27  1  0.57234000  0.83703100  0.30080700  1
  H  H28  1  0.63063000  0.99669100  0.38460900  1
  H  H29  1  0.55133800  0.06543400  0.32541300  1
  H  H30  1  0.41431300  0.97509800  0.18334500  1
  H  H31  1  0.27637500  0.59021200  0.38320800  1
  H  H32  1  0.12115000  0.43581000  0.24100100  1
  H  H33  1  0.22417300  0.35385900  0.22589100  1
  H  H34  1  0.94036400  0.26410800  0.17618500  1
  H  H35  1  0.24176000  0.40792600  0.10427100  1
  H  H36  1  0.39777800  0.56348500  0.24682600  1
  H  H37  1  0.29735000  0.64618400  0.26406600  1
  H  H38  1  0.86715100  0.39336500  0.21702500  1
  H  H39  1  0.82844700  0.27169300  0.24922800  1
  H  H40  1  0.69892800  0.22014000  0.26541200  1
  H  H41  1  0.64570500  0.41226300  0.21684600  1
  H  H42  1  0.77637400  0.46443400  0.20237900  1
  H  H43  1  0.63206300  0.40938600  0.34896900  1
  H  H44  1  0.39467800  0.10135400  0.17346900  1
  H  H45  1  0.06549900  0.23779000  0.20960600  1
  H  H46  1  0.44611200  0.20564900  0.41143000  1
  H  H47  1  0.32020400  0.14374300  0.43112600  1
  H  H48  1  0.17152700  0.09646100  0.31936500  1
  H  H49  1  0.14858900  0.11019500  0.18739600  1
  H  H50  1  0.27432000  0.17206300  0.16752800  1
  H  H51  1  0.34995100  0.62223900  0.98816700  1
  H  H52  1  0.50640500  0.72571300  0.05179200  1
  H  H53  1  0.55695700  0.77599800  0.96247100  1
  H  H54  1  0.24405000  0.56967100  0.83544800  1
  H  H55  1  0.43747600  0.60396900  0.72053400  1
  H  H56  1  0.77838300  0.14567900  0.05149500  1
  H  H57  1  0.53749500  0.90481300  0.76746200  1
  H  H58  1  0.67132600  0.90656500  0.73684700  1
  H  H59  1  0.71057000  0.95885700  0.64303400  1
  H  H60  1  0.60219000  0.88894100  0.48641200  1
  H  H61  1  0.45379800  0.76729500  0.42390200  1
  H  H62  1  0.41396100  0.71568800  0.51790700  1
  H  H63  1  0.28443300  0.72978800  0.79222000  1
  H  H64  1  0.17790200  0.63050100  0.72740100  1
  H  H65  1  0.22837000  0.67712800  0.67404000  1
  H  H66  1  0.73236700  0.34355500  0.94186500  1
  H  H67  1  0.57896900  0.21991400  0.80734700  1
  H  H68  1  0.44129900  0.22357000  0.75190100  1
  C  C1  1  0.88221900  0.48568500  0.87397600  1
  C  C2  1  0.05559500  0.20969100  0.08491800  1
  C  C3  1  0.49003400  0.69224100  0.67685800  1
  C  C4  1  0.51623700  0.77759700  0.68956000  1
  C  C5  1  0.51658100  0.83846500  0.75683600  1
  C  C6  1  0.48932700  0.81576300  0.81005200  1
  C  C7  1  0.45895700  0.73042800  0.79486300  1
  C  C8  1  0.62347300  0.87558900  0.66803500  1
  C  C9  1  0.64558300  0.90496900  0.61539600  1
  C  C10  1  0.58483000  0.86580200  0.52760800  1
  C  C11  1  0.50170200  0.79758900  0.49255900  1
  C  C12  1  0.47947600  0.76836800  0.54521300  1
  C  C13  1  0.76833700  0.19021000  0.02870100  1
  C  C14  1  0.54079500  0.80625500  0.63276400  1
  C  C15  1  0.24104100  0.66533200  0.73067500  1
  C  C16  1  0.68725600  0.18534600  0.99851400  1
  C  C17  1  0.67298700  0.23922500  0.96435600  1
  C  C18  1  0.74130600  0.29840600  0.96419600  1
  C  C19  1  0.82168500  0.30217300  0.99339000  1
  C  C20  1  0.83471800  0.24601800  0.02385100  1
  C  C21  1  0.54968100  0.22951200  0.84820100  1
  C  C22  1  0.47211600  0.23134300  0.81678200  1
  C  C23  1  0.43388700  0.24314900  0.86801600  1
  C  C24  1  0.89212800  0.36921600  0.99516400  1
  C  C25  1  0.47350200  0.25352000  0.95087700  1
  C  C26  1  0.55101700  0.25164900  0.98228200  1
  C  C27  1  0.58896300  0.23850600  0.93073100  1
  C  C28  1  0.74042100  0.20834700  0.59431500  1
  C  C29  1  0.74782000  0.29068300  0.62225200  1
  C  C30  1  0.74624300  0.33097400  0.69806300  1
  C  C31  1  0.73474800  0.28727500  0.74434500  1
  C  C32  1  0.72737600  0.20497000  0.71641900  1
  C  C33  1  0.73046000  0.16557900  0.64152000  1
  C  C34  1  0.68701000  0.42451800  0.66812100  1
  C  C35  1  0.12731200  0.49260500  0.11005700  1
  C  C36  1  0.68585900  0.50303200  0.69113900  1
  C  C37  1  0.75049200  0.57567100  0.77332900  1
  C  C38  1  0.81313300  0.56749700  0.83106800  1
  C  C39  1  0.81409000  0.48905800  0.80822100  1
  C  C40  1  0.75076400  0.41693900  0.72546200  1
  C  C41  1  0.82774000  0.73624800  0.83281200  1
  C  C42  1  0.83277800  0.81725100  0.86666500  1
  C  C43  1  0.76378600  0.82328600  0.87425000  1
  C  C44  1  0.68989600  0.74828000  0.84799500  1
  C  C45  1  0.68376400  0.66687500  0.81201400  1
  C  C46  1  0.11762000  0.60835600  0.98860800  1
  C  C47  1  0.75266000  0.66054800  0.80386400  1
  C  C48  1  0.97072600  0.50990600  0.71351600  1
  C  C49  1  0.05033400  0.55862100  0.79091300  1
  C  C50  1  0.08287200  0.64727000  0.84431900  1
  C  C51  1  0.03663300  0.68740000  0.81770800  1
  C  C52  1  0.95728900  0.63867900  0.73992500  1
  C  C53  1  0.92391300  0.54980100  0.68825000  1
  C  C54  1  0.23380700  0.77216600  0.93529900  1
  C  C55  1  0.31698100  0.82109800  0.00871100  1
  C  C56  1  0.33395900  0.80018200  0.07574800  1
  C  C57  1  0.01075500  0.20235900  0.00453100  1
  C  C58  1  0.26812300  0.72895700  0.06630200  1
  C  C59  1  0.18625900  0.67851500  0.99164800  1
  C  C60  1  0.16872000  0.70003400  0.92544300  1
  C  C61  1  0.46136300  0.81654600  0.19399100  1
  C  C62  1  0.53800900  0.86742600  0.27442900  1
  C  C63  1  0.57070300  0.95690300  0.32141300  1
  C  C64  1  0.52637600  0.99542700  0.28816600  1
  C  C65  1  0.44971900  0.94462200  0.20777500  1
  C  C66  1  0.41754300  0.85510900  0.15957500  1
  C  C67  1  0.18480400  0.46471200  0.24325900  1
  C  C68  1  0.94025300  0.21678600  0.98545300  1
  C  C69  1  0.26809500  0.54902700  0.31924600  1
  C  C70  1  0.32033800  0.50363600  0.30711000  1
  C  C71  1  0.23816100  0.41938400  0.23219800  1
  C  C72  1  0.25065600  0.44966700  0.16842800  1
  C  C73  1  0.33424200  0.53413900  0.24471800  1
  C  C74  1  0.28079500  0.57949600  0.25571900  1
  C  C75  1  0.19841000  0.49511000  0.18070800  1
  C  C76  1  0.51474400  0.12710200  0.12843200  1
  C  C77  1  0.61868700  0.11982100  0.00068300  1
  C  C78  1  0.49258000  0.88274600  0.88139100  1
  C  C79  1  0.91542300  0.24056300  0.04745400  1
  C  C80  1  0.38602400  0.89002400  0.01015600  1
  C  C81  1  0.49674000  0.62538000  0.61367500  1
  C  C82  1  0.61801900  0.50708300  0.62559400  1
  C  C83  1  0.50645100  0.38686400  0.39066800  1
  C  C84  1  0.38844800  0.50598800  0.38029600  1
  C  C85  1  0.78786800  0.30213000  0.24154900  1
  C  C86  1  0.71424400  0.27241500  0.24946200  1
  C  C87  1  0.66154900  0.31040700  0.23874900  1
  C  C88  1  0.68556300  0.38103500  0.22407300  1
  C  C89  1  0.75890400  0.41033400  0.21564700  1
  C  C90  1  0.96037400  0.24747700  0.12786100  1
  C  C91  1  0.80978100  0.37054800  0.22384800  1
  C  C92  1  0.57911200  0.34189500  0.31090800  1
  C  C93  1  0.50886200  0.31752500  0.32532000  1
  C  C94  1  0.44269500  0.22912400  0.27612300  1
  C  C95  1  0.44676100  0.16936200  0.21249800  1
  C  C96  1  0.51660300  0.19408200  0.19864500  1
  C  C97  1  0.58430800  0.28083600  0.24918700  1
  C  C98  1  0.38083400  0.18519100  0.36243700  1
  C  C99  1  0.31022500  0.15034600  0.37341900  1
  C  C100  1  0.22686900  0.12376400  0.31072900  1
  C  C101  1  0.03046400  0.23233000  0.14661100  1
  C  C102  1  0.21401600  0.13148800  0.23675500  1
  C  C103  1  0.28456500  0.16618700  0.22563900  1
  C  C104  1  0.36825700  0.19432900  0.28909000  1
  C  C105  1  0.45964200  0.70329700  0.98483800  1
  C  C106  1  0.48787100  0.73206300  0.93486300  1
  C  C107  1  0.42838000  0.70356000  0.84930600  1
  C  C108  1  0.34051100  0.64507200  0.81347300  1
  C  C109  1  0.31256100  0.61591900  0.86349600  1
  C  C110  1  0.37201300  0.64522800  0.94915700  1
  C  C111  1  0.45902700  0.66935600  0.72851600  1
  O  O1  1  0.92927800  0.45279300  0.85146000  1
  O  O2  1  0.47510000  0.11471800  0.04812900  1
  O  O3  1  0.64315800  0.10498900  0.06743600  1
  O  O4  1  0.53696300  0.07572700  0.93471100  1
  O  O5  1  0.56338900  0.92635900  0.95990800  1
  O  O6  1  0.42646800  0.89887100  0.86341000  1
  O  O7  1  0.46503100  0.89779600  0.03947500  1
  O  O8  1  0.36438600  0.93783500  0.97696200  1
  O  O9  1  0.46474200  0.54561100  0.60465300  1
  O  O10  1  0.53587100  0.64701400  0.57063300  1
  O  O11  1  0.53732500  0.43871100  0.57752600  1
  O  O12  1  0.89619500  0.52041500  0.95491000  1
  O  O13  1  0.64143200  0.57573000  0.61323600  1
  O  O14  1  0.43611400  0.36647400  0.39911000  1
  O  O15  1  0.57480600  0.46784300  0.43754700  1
  O  O16  1  0.36363800  0.47305200  0.42629600  1
  O  O17  1  0.46984900  0.53955400  0.39513100  1
  O  O18  1  0.28162100  0.61385800  0.72769600  1
  O  O19  1  0.90232400  0.34766400  0.92594400  1
  O  O20  1  0.93663900  0.45028900  0.06234000  1
  O  O21  1  0.08107900  0.42345000  0.03010100  1
  O  O22  1  0.11272800  0.55957500  0.13174400  1
  O  O23  1  0.10813500  0.52864400  0.95567700  1
  O  O24  1  0.07219300  0.62951700  0.02421900  1
  O  O25  1  0.54516600  0.07657000  0.14699200  1
