# generated using pymatgen
data_ZnH9C20N3ClO4
_symmetry_space_group_name_H-M   'P 1'
_cell_length_a   14.30119900
_cell_length_b   8.54486600
_cell_length_c   15.01180000
_cell_angle_alpha   90.00000000
_cell_angle_beta   90.99464800
_cell_angle_gamma   90.00000000
_symmetry_Int_Tables_number   1
_chemical_formula_structural   ZnH9C20N3ClO4
_chemical_formula_sum   'Zn2 H18 C40 N6 Cl2 O8'
_cell_volume   1834.19300202
_cell_formula_units_Z   2
loop_
 _symmetry_equiv_pos_site_id
 _symmetry_equiv_pos_as_xyz
  1  'x, y, z'
loop_
 _atom_site_type_symbol
 _atom_site_label
 _atom_site_symmetry_multiplicity
 _atom_site_fract_x
 _atom_site_fract_y
 _atom_site_fract_z
 _atom_site_occupancy
  Zn  Zn1  1  0.89578900  0.49986200  0.49087100  1
  Zn  Zn2  1  0.10421200  0.49986100  0.50912800  1
  H  H1  1  0.96259100  0.99970800  0.56079700  1
  H  H2  1  0.03740800  0.99970800  0.43920100  1
  H  H3  1  0.00402700  0.25093600  0.80124700  1
  H  H4  1  0.99595300  0.74857400  0.19874800  1
  H  H5  1  0.99597300  0.25093800  0.19875300  1
  H  H6  1  0.00404700  0.74857600  0.80125100  1
  H  H7  1  0.54955800  0.26845800  0.41925300  1
  H  H8  1  0.45237500  0.73268900  0.58270600  1
  H  H9  1  0.45044200  0.26846000  0.58074600  1
  H  H10  1  0.54762500  0.73269000  0.41729300  1
  H  H11  1  0.46648000  0.29112100  0.28618600  1
  H  H12  1  0.38344700  0.30569500  0.14241400  1
  H  H13  1  0.26118700  0.73890500  0.21860400  1
  H  H14  1  0.34425700  0.72474200  0.36318300  1
  H  H15  1  0.53352000  0.29112200  0.71381300  1
  H  H16  1  0.61655200  0.30569300  0.85758600  1
  H  H17  1  0.73881300  0.73890400  0.78139700  1
  H  H18  1  0.65574400  0.72474300  0.63681700  1
  C  C1  1  0.98620300  0.13942900  0.67532800  1
  C  C2  1  0.01380200  0.86013300  0.32464800  1
  C  C3  1  0.01379700  0.13943100  0.32467100  1
  C  C4  1  0.98619800  0.86013600  0.67535200  1
  C  C5  1  0.99776700  0.14034800  0.76675100  1
  C  C6  1  0.00223000  0.85918000  0.23323400  1
  C  C7  1  0.00223300  0.14034400  0.23324600  1
  C  C8  1  0.99777100  0.85917600  0.76676400  1
  C  C9  1  0.99925400  0.99975800  0.81319900  1
  C  C10  1  0.00074600  0.99975800  0.18680000  1
  C  C11  1  0.47449300  0.37350900  0.54437900  1
  C  C12  1  0.52551500  0.62862600  0.45572700  1
  C  C13  1  0.52550900  0.37351000  0.45562000  1
  C  C14  1  0.47448600  0.62862800  0.54427100  1
  C  C15  1  0.97513500  0.99976500  0.63145300  1
  C  C16  1  0.02486600  0.99976500  0.36854600  1
  C  C17  1  0.99850300  0.99974700  0.08908800  1
  C  C18  1  0.00149800  0.99974700  0.91091300  1
  C  C19  1  0.53967100  0.50113800  0.57809100  1
  C  C20  1  0.46032700  0.50113700  0.42190800  1
  C  C21  1  0.58970100  0.50115200  0.49091700  1
  C  C22  1  0.41029900  0.50115200  0.50908400  1
  C  C23  1  0.69210600  0.50053700  0.48452300  1
  C  C24  1  0.30789300  0.50053800  0.51548100  1
  C  C25  1  0.99102400  0.71804300  0.62147500  1
  C  C26  1  0.00896900  0.28160100  0.37855100  1
  C  C27  1  0.00897600  0.71803500  0.37852500  1
  C  C28  1  0.99103100  0.28159300  0.62144900  1
  C  C29  1  0.41056500  0.50730900  0.33402800  1
  C  C30  1  0.42155300  0.38980000  0.27194800  1
  C  C31  1  0.37484600  0.39778700  0.19093400  1
  C  C32  1  0.31725500  0.52310900  0.17174100  1
  C  C33  1  0.30627100  0.64052300  0.23363200  1
  C  C34  1  0.35287000  0.63256600  0.31468000  1
  C  C35  1  0.58943500  0.50730500  0.66597100  1
  C  C36  1  0.57844700  0.38979900  0.72805400  1
  C  C37  1  0.62515500  0.39778900  0.80906600  1
  C  C38  1  0.68274500  0.52311300  0.82825800  1
  C  C39  1  0.69372900  0.64052400  0.76636600  1
  C  C40  1  0.64712900  0.63256500  0.68531900  1
  N  N1  1  0.00056500  0.86364500  0.95597000  1
  N  N2  1  0.99943500  0.13584600  0.04403000  1
  N  N3  1  0.99943500  0.86364300  0.04403100  1
  N  N4  1  0.00056500  0.13584400  0.95597100  1
  N  N5  1  0.77305800  0.49993300  0.48157400  1
  N  N6  1  0.22694100  0.49993400  0.51841900  1
  Cl  Cl1  1  0.25811500  0.53323000  0.06879300  1
  Cl  Cl2  1  0.74188500  0.53322800  0.93120700  1
  O  O1  1  0.07405400  0.66876700  0.59786000  1
  O  O2  1  0.92591900  0.33092900  0.40214200  1
  O  O3  1  0.92594600  0.66876900  0.40214100  1
  O  O4  1  0.07408000  0.33093100  0.59785900  1
  O  O5  1  0.91284800  0.66358600  0.58650200  1
  O  O6  1  0.08716800  0.33609800  0.41351100  1
  O  O7  1  0.08715300  0.66358800  0.41349900  1
  O  O8  1  0.91283300  0.33610000  0.58649000  1
