# generated using pymatgen
data_VH2C13O5F4
_symmetry_space_group_name_H-M   'P 1'
_cell_length_a   21.22820000
_cell_length_b   6.81800000
_cell_length_c   19.75140000
_cell_angle_alpha   90.00000000
_cell_angle_beta   102.39939500
_cell_angle_gamma   90.00000000
_symmetry_Int_Tables_number   1
_chemical_formula_structural   VH2C13O5F4
_chemical_formula_sum   'V4 H8 C52 O20 F16'
_cell_volume   2792.01611772
_cell_formula_units_Z   4
loop_
 _symmetry_equiv_pos_site_id
 _symmetry_equiv_pos_as_xyz
  1  'x, y, z'
loop_
 _atom_site_type_symbol
 _atom_site_label
 _atom_site_symmetry_multiplicity
 _atom_site_fract_x
 _atom_site_fract_y
 _atom_site_fract_z
 _atom_site_occupancy
  V  V1  1  0.74723800  0.78104100  0.23788300  1
  V  V2  1  0.25276200  0.21896000  0.76211700  1
  V  V3  1  0.75276200  0.28103900  0.26211700  1
  V  V4  1  0.24723800  0.71896100  0.73788300  1
  H  H1  1  0.09125800  0.73682000  0.56412600  1
  H  H2  1  0.90874100  0.26318100  0.43587400  1
  H  H3  1  0.40874100  0.23681900  0.93587400  1
  H  H4  1  0.59125800  0.76318000  0.06412600  1
  H  H5  1  0.51512800  0.65639600  0.47094600  1
  H  H6  1  0.48487200  0.34360300  0.52905400  1
  H  H7  1  0.98487200  0.15639700  0.02905400  1
  H  H8  1  0.01512800  0.84360300  0.97094600  1
  C  C1  1  0.83001400  0.49978300  0.17444700  1
  C  C2  1  0.16998600  0.50021800  0.82555300  1
  C  C3  1  0.66998600  0.99978200  0.32555300  1
  C  C4  1  0.33001400  0.00021700  0.67444700  1
  C  C5  1  0.65019100  0.49599700  0.15825400  1
  C  C6  1  0.34980900  0.50400300  0.84174500  1
  C  C7  1  0.84980900  0.99599700  0.34174500  1
  C  C8  1  0.15019100  0.00400300  0.65825400  1
  C  C9  1  0.09238300  0.03043800  0.60250100  1
  C  C10  1  0.90761700  0.96956200  0.39750000  1
  C  C11  1  0.40761600  0.53043800  0.89749900  1
  C  C12  1  0.59238300  0.46956100  0.10250100  1
  C  C13  1  0.99110900  0.75902600  0.45927800  1
  C  C14  1  0.00889100  0.24097500  0.54072200  1
  C  C15  1  0.50889100  0.25902500  0.04072200  1
  C  C16  1  0.49110900  0.74097400  0.95927800  1
  C  C17  1  0.93748000  0.78849000  0.40652300  1
  C  C18  1  0.06252000  0.21151100  0.59347600  1
  C  C19  1  0.56252000  0.28848900  0.09347700  1
  C  C20  1  0.43748000  0.71151000  0.90652400  1
  C  C21  1  0.93186300  0.12110300  0.44218000  1
  C  C22  1  0.06813700  0.87889800  0.55781900  1
  C  C23  1  0.56813700  0.62110200  0.05781900  1
  C  C24  1  0.43186300  0.37889800  0.94218100  1
  C  C25  1  0.98515800  0.09053000  0.49567600  1
  C  C26  1  0.01484200  0.90947100  0.50432400  1
  C  C27  1  0.51484100  0.59053000  0.00432400  1
  C  C28  1  0.48515800  0.40947000  0.99567600  1
  C  C29  1  0.55505400  0.07597600  0.53003100  1
  C  C30  1  0.44494600  0.92402400  0.46996900  1
  C  C31  1  0.94494600  0.57597600  0.96996900  1
  C  C32  1  0.05505400  0.42402400  0.03003100  1
  C  C33  1  0.52332600  0.90170600  0.55615900  1
  C  C34  1  0.47667400  0.09829400  0.44384100  1
  C  C35  1  0.97667400  0.40170600  0.94384100  1
  C  C36  1  0.02332500  0.59829400  0.05615900  1
  C  C37  1  0.37579900  0.01193700  0.62871800  1
  C  C38  1  0.62420100  0.98806400  0.37128300  1
  C  C39  1  0.12420100  0.51193700  0.87128200  1
  C  C40  1  0.87579900  0.48806400  0.12871700  1
  C  C41  1  0.49132900  0.18748900  0.51630800  1
  C  C42  1  0.50867100  0.81251100  0.48369200  1
  C  C43  1  0.00867100  0.68749000  0.98369200  1
  C  C44  1  0.99132900  0.31251100  0.01630800  1
  C  C45  1  0.45958800  0.00996500  0.54233100  1
  C  C46  1  0.54041200  0.99003500  0.45766900  1
  C  C47  1  0.04041200  0.50996500  0.95766900  1
  C  C48  1  0.95958800  0.49003500  0.04233100  1
  C  C49  1  0.41364500  0.01354700  0.58999900  1
  C  C50  1  0.58635500  0.98645300  0.41000100  1
  C  C51  1  0.08635400  0.51354700  0.91000100  1
  C  C52  1  0.91364500  0.48645300  0.08999900  1
  O  O1  1  0.67510800  0.33044900  0.18907000  1
  O  O2  1  0.32489100  0.66955100  0.81093000  1
  O  O3  1  0.82489200  0.83044900  0.31093000  1
  O  O4  1  0.17510800  0.16955100  0.68906900  1
  O  O5  1  0.80455000  0.67747800  0.17910100  1
  O  O6  1  0.19545000  0.32252300  0.82089900  1
  O  O7  1  0.69545000  0.17747700  0.32089900  1
  O  O8  1  0.30455000  0.82252200  0.67910100  1
  O  O9  1  0.67437400  0.67754500  0.16717800  1
  O  O10  1  0.32562500  0.32245400  0.83282200  1
  O  O11  1  0.82562600  0.17754600  0.33282200  1
  O  O12  1  0.17437400  0.82245400  0.66717800  1
  O  O13  1  0.68599600  0.83075300  0.29852000  1
  O  O14  1  0.31400400  0.16924600  0.70148100  1
  O  O15  1  0.81400400  0.33075300  0.20148100  1
  O  O16  1  0.18599600  0.66924700  0.79851900  1
  O  O17  1  0.75675700  0.51160600  0.29216300  1
  O  O18  1  0.24324300  0.48839200  0.70783700  1
  O  O19  1  0.74324200  0.01160600  0.20783700  1
  O  O20  1  0.25675700  0.98839300  0.79216300  1
  F  F1  1  0.08579000  0.36113800  0.63682000  1
  F  F2  1  0.91421000  0.63886300  0.36318000  1
  F  F3  1  0.41421000  0.86113700  0.86318000  1
  F  F4  1  0.58579000  0.13886300  0.13682000  1
  F  F5  1  0.02050700  0.58158400  0.46677900  1
  F  F6  1  0.97949300  0.41841700  0.53322100  1
  F  F7  1  0.47949300  0.08158300  0.03322100  1
  F  F8  1  0.52050700  0.91841700  0.96677900  1
  F  F9  1  0.54916600  0.80111900  0.61647500  1
  F  F10  1  0.45083400  0.19888100  0.38352500  1
  F  F11  1  0.95083400  0.30111900  0.88352400  1
  F  F12  1  0.04916600  0.69888100  0.11647500  1
  F  F13  1  0.61398400  0.15244100  0.56293300  1
  F  F14  1  0.38601700  0.84755900  0.43706700  1
  F  F15  1  0.88601700  0.65244100  0.93706700  1
  F  F16  1  0.11398300  0.34755900  0.06293300  1
