# generated using pymatgen
data_FeH10C23O8
_symmetry_space_group_name_H-M   'P 1'
_cell_length_a   15.95934700
_cell_length_b   15.93205100
_cell_length_c   13.77001100
_cell_angle_alpha   88.47772900
_cell_angle_beta   97.54619700
_cell_angle_gamma   104.58907100
_symmetry_Int_Tables_number   1
_chemical_formula_structural   FeH10C23O8
_chemical_formula_sum   'Fe2 H20 C46 O16'
_cell_volume   3358.92132947
_cell_formula_units_Z   2
loop_
 _symmetry_equiv_pos_site_id
 _symmetry_equiv_pos_as_xyz
  1  'x, y, z'
loop_
 _atom_site_type_symbol
 _atom_site_label
 _atom_site_symmetry_multiplicity
 _atom_site_fract_x
 _atom_site_fract_y
 _atom_site_fract_z
 _atom_site_occupancy
  Fe  Fe1  1  0.51327900  0.02378200  0.78866600  1
  Fe  Fe2  1  0.50552700  0.00349800  0.20913100  1
  H  H1  1  0.07956100  0.98082600  0.81917000  1
  H  H2  1  0.18869500  0.02185000  0.11602600  1
  H  H3  1  0.83370900  0.00509800  0.88597600  1
  H  H4  1  0.78687500  0.04257500  0.22599800  1
  H  H5  1  0.93270700  0.04428800  0.18720600  1
  H  H6  1  0.53187000  0.93854100  0.50391100  1
  H  H7  1  0.52352700  0.71099700  0.34938900  1
  H  H8  1  0.49544800  0.69771800  0.65564900  1
  H  H9  1  0.42726900  0.57367900  0.36246800  1
  H  H10  1  0.42897200  0.42240800  0.35857100  1
  H  H11  1  0.58910700  0.45285900  0.63615000  1
  H  H12  1  0.58752900  0.60423000  0.64000300  1
  H  H13  1  0.52232400  0.33017800  0.34246100  1
  H  H14  1  0.48589200  0.08849700  0.49226400  1
  H  H15  1  0.49300400  0.31478500  0.64845600  1
  H  H16  1  0.24556700  0.84966700  0.76249600  1
  H  H17  1  0.24345900  0.82682700  0.58641500  1
  H  H18  1  0.21309200  0.93739500  0.46841900  1
  H  H19  1  0.18468500  0.07090800  0.52682100  1
  H  H20  1  0.18803200  0.09460900  0.70288200  1
  C  C1  1  0.21553700  0.98654400  0.84838600  1
  C  C2  1  0.13579200  0.98898900  0.87444200  1
  C  C3  1  0.12733100  0.00372800  0.96987300  1
  C  C4  1  0.19801000  0.01260600  0.04113600  1
  C  C5  1  0.27924100  0.01087100  0.01697600  1
  C  C6  1  0.28887300  0.00063200  0.91882200  1
  C  C7  1  0.04458000  0.01064300  0.99425000  1
  C  C8  1  0.97462700  0.01668300  0.01294300  1
  C  C9  1  0.82192500  0.01335900  0.96018900  1
  C  C10  1  0.73936900  0.01389900  0.98072500  1
  C  C11  1  0.72660300  0.02265200  0.07767000  1
  C  C12  1  0.79686200  0.03662200  0.15060800  1
  C  C13  1  0.87867600  0.03657100  0.12915400  1
  C  C14  1  0.89073100  0.02284200  0.03435800  1
  C  C15  1  0.47311200  0.14089300  0.66181100  1
  C  C16  1  0.37597700  0.02120300  0.88682900  1
  C  C17  1  0.66855900  0.00876200  0.89897400  1
  C  C18  1  0.50889800  0.87080600  0.67880800  1
  C  C19  1  0.50942100  0.15718400  0.31826600  1
  C  C20  1  0.35167300  0.01737500  0.09747300  1
  C  C21  1  0.63934300  0.00566600  0.10743700  1
  C  C22  1  0.54377600  0.88447700  0.33441600  1
  C  C23  1  0.52666300  0.82905500  0.41921000  1
  C  C24  1  0.51784400  0.74089600  0.41691400  1
  C  C25  1  0.50865000  0.69317800  0.50250800  1
  C  C26  1  0.50473500  0.73445200  0.58912300  1
  C  C27  1  0.51249300  0.82295400  0.59030700  1
  C  C28  1  0.52487800  0.86935800  0.50530400  1
  C  C29  1  0.46398300  0.54819000  0.42255400  1
  C  C30  1  0.46525800  0.46200800  0.42012800  1
  C  C31  1  0.50960900  0.42635300  0.49678800  1
  C  C32  1  0.55242700  0.47839900  0.57607400  1
  C  C33  1  0.55119800  0.56461800  0.57847600  1
  C  C34  1  0.50695900  0.60030700  0.50172500  1
  C  C35  1  0.51281300  0.29300800  0.40866600  1
  C  C36  1  0.50526500  0.20459200  0.40682900  1
  C  C37  1  0.49249300  0.15761000  0.49134700  1
  C  C38  1  0.49017100  0.19718300  0.57767700  1
  C  C39  1  0.49893900  0.28533100  0.58074900  1
  C  C40  1  0.50833700  0.33361000  0.49553000  1
  C  C41  1  0.22045700  0.97518800  0.74431900  1
  C  C42  1  0.23416200  0.89929500  0.71107400  1
  C  C43  1  0.23221300  0.88607100  0.61214600  1
  C  C44  1  0.21493600  0.94791500  0.54597900  1
  C  C45  1  0.19910000  0.02277500  0.57873100  1
  C  C46  1  0.20128600  0.03614000  0.67767100  1
  O  O1  1  0.53580000  0.14234300  0.73414500  1
  O  O2  1  0.42814200  0.09858600  0.90553800  1
  O  O3  1  0.40961400  0.07015400  0.64811800  1
  O  O4  1  0.40046100  0.96605600  0.83445100  1
  O  O5  1  0.59582800  0.02855000  0.91271300  1
  O  O6  1  0.68113800  0.99187000  0.81008800  1
  O  O7  1  0.52511100  0.95571500  0.67291400  1
  O  O8  1  0.48850700  0.83072500  0.76016600  1
  O  O9  1  0.49254700  0.07224900  0.32383400  1
  O  O10  1  0.53117100  0.19753500  0.23749500  1
  O  O11  1  0.42533400  0.99982100  0.08322700  1
  O  O12  1  0.33932200  0.03286000  0.18687900  1
  O  O13  1  0.60968600  0.95338800  0.34641300  1
  O  O14  1  0.62002300  0.05943000  0.16627200  1
  O  O15  1  0.48004000  0.88493200  0.26376000  1
  O  O16  1  0.58345200  0.93087600  0.08487700  1
