# generated using pymatgen
data_Zn2H23C24N2ClO8
_symmetry_space_group_name_H-M   'P 1'
_cell_length_a   10.01249200
_cell_length_b   10.76188500
_cell_length_c   11.25720800
_cell_angle_alpha   89.99842500
_cell_angle_beta   92.44639100
_cell_angle_gamma   80.88001700
_symmetry_Int_Tables_number   1
_chemical_formula_structural   Zn2H23C24N2ClO8
_chemical_formula_sum   'Zn2 H23 C24 N2 Cl1 O8'
_cell_volume   1196.54719001
_cell_formula_units_Z   1
loop_
 _symmetry_equiv_pos_site_id
 _symmetry_equiv_pos_as_xyz
  1  'x, y, z'
loop_
 _atom_site_type_symbol
 _atom_site_label
 _atom_site_symmetry_multiplicity
 _atom_site_fract_x
 _atom_site_fract_y
 _atom_site_fract_z
 _atom_site_occupancy
  Zn  Zn1  1  0.65026500  0.48194500  0.48477200  1
  Zn  Zn2  1  0.34841100  0.52733600  0.52778400  1
  H  H1  1  0.64633400  0.08746000  0.36979900  1
  H  H2  1  0.47221400  0.11083700  0.31445400  1
  H  H3  1  0.47734400  0.90079200  0.31572200  1
  H  H4  1  0.65042700  0.87921500  0.37374500  1
  H  H5  1  0.69895900  0.07994600  0.58932500  1
  H  H6  1  0.69936600  0.87222400  0.59344400  1
  H  H7  1  0.32286800  0.13328100  0.61365500  1
  H  H8  1  0.28472600  0.13866100  0.45477500  1
  H  H9  1  0.28707400  0.93193900  0.45393800  1
  H  H10  1  0.32249900  0.92695200  0.61322000  1
  H  H11  1  0.56271400  0.10232900  0.69102200  1
  H  H12  1  0.56113400  0.89323800  0.69315100  1
  H  H13  1  0.38378300  0.53895400  0.91146800  1
  H  H14  1  0.61831400  0.46592800  0.10736500  1
  H  H15  1  0.31337300  0.55301900  0.11414600  1
  H  H16  1  0.88362900  0.58180700  0.58099500  1
  H  H17  1  0.11504900  0.42749200  0.43158700  1
  H  H18  1  0.89501000  0.38924100  0.39540200  1
  H  H19  1  0.10369600  0.61996300  0.61726600  1
  H  H20  1  0.74043500  0.26393100  0.83352800  1
  H  H21  1  0.98045100  0.20257200  0.89384600  1
  H  H22  1  0.98827000  0.56767600  0.03744800  1
  H  H23  1  0.74826000  0.62978400  0.97671300  1
  C  C1  1  0.44563900  0.51486800  0.27659000  1
  C  C2  1  0.49783600  0.26165500  0.50461600  1
  C  C3  1  0.55335500  0.49418500  0.73592000  1
  C  C4  1  0.50072400  0.74765200  0.50795400  1
  C  C5  1  0.54335200  0.06789900  0.38678700  1
  C  C6  1  0.54586500  0.92677100  0.38833900  1
  C  C7  1  0.59483400  0.06211900  0.60413900  1
  C  C8  1  0.35679800  0.09541500  0.52639000  1
  C  C9  1  0.49812700  0.12276000  0.50541600  1
  C  C10  1  0.49998700  0.88662400  0.50721900  1
  C  C11  1  0.59494300  0.92133100  0.60596700  1
  C  C12  1  0.35765400  0.95477300  0.52641200  1
  C  C13  1  0.41664100  0.52371300  0.14768000  1
  C  C14  1  0.51654500  0.49800700  0.07225900  1
  C  C15  1  0.58585200  0.48672600  0.86438400  1
  C  C16  1  0.48800400  0.51095300  0.94288700  1
  C  C17  1  0.07240000  0.49494700  0.49668800  1
  C  C18  1  0.92628500  0.51431800  0.51592500  1
  C  C19  1  0.72851300  0.45007400  0.90295100  1
  C  C20  1  0.79453800  0.33082900  0.87853800  1
  C  C21  1  0.92924200  0.29626300  0.91242200  1
  C  C22  1  0.99868400  0.38113300  0.96989000  1
  C  C23  1  0.93356100  0.50087100  0.99301900  1
  C  C24  1  0.79873900  0.53554600  0.95922200  1
  N  N1  1  0.15019000  0.55770200  0.55673300  1
  N  N2  1  0.84849800  0.45156000  0.45588100  1
  Cl  Cl1  1  0.16974400  0.33684600  0.01282000  1
  O  O1  1  0.57257200  0.49499300  0.31538500  1
  O  O2  1  0.34358200  0.52997700  0.34757300  1
  O  O3  1  0.61252300  0.30255900  0.48875500  1
  O  O4  1  0.38352400  0.33686600  0.52103700  1
  O  O5  1  0.65501700  0.47958600  0.66480800  1
  O  O6  1  0.42608700  0.51425000  0.69736700  1
  O  O7  1  0.61513200  0.67248700  0.49140900  1
  O  O8  1  0.38620900  0.70664000  0.52391800  1
