# generated using pymatgen
data_VH8C17O9
_symmetry_space_group_name_H-M   'P 1'
_cell_length_a   25.04780000
_cell_length_b   6.81800000
_cell_length_c   21.15369800
_cell_angle_alpha   90.00000000
_cell_angle_beta   100.24390600
_cell_angle_gamma   90.00000000
_symmetry_Int_Tables_number   1
_chemical_formula_structural   VH8C17O9
_chemical_formula_sum   'V4 H32 C68 O36'
_cell_volume   3554.95652689
_cell_formula_units_Z   4
loop_
 _symmetry_equiv_pos_site_id
 _symmetry_equiv_pos_as_xyz
  1  'x, y, z'
loop_
 _atom_site_type_symbol
 _atom_site_label
 _atom_site_symmetry_multiplicity
 _atom_site_fract_x
 _atom_site_fract_y
 _atom_site_fract_z
 _atom_site_occupancy
  V  V1  1  0.74903100  0.17635700  0.23933300  1
  V  V2  1  0.25101900  0.82225100  0.76066300  1
  V  V3  1  0.75096900  0.67635800  0.26066800  1
  V  V4  1  0.24898100  0.32225200  0.73933700  1
  H  H1  1  0.42999100  0.31927400  0.54957700  1
  H  H2  1  0.56968100  0.67989500  0.45003200  1
  H  H3  1  0.07000900  0.81927400  0.95042300  1
  H  H4  1  0.93031900  0.17989500  0.04996800  1
  H  H5  1  0.37312300  0.71636800  0.64662200  1
  H  H6  1  0.62705700  0.28281400  0.35350100  1
  H  H7  1  0.12687700  0.21636900  0.85337800  1
  H  H8  1  0.87294300  0.78281400  0.14649900  1
  H  H9  1  0.90411000  0.26056400  0.35657400  1
  H  H10  1  0.09577200  0.73779800  0.64361200  1
  H  H11  1  0.59589100  0.76056600  0.14342500  1
  H  H12  1  0.40422800  0.23779700  0.85638800  1
  H  H13  1  0.87205300  0.68949600  0.42301700  1
  H  H14  1  0.12783100  0.30879500  0.57709300  1
  H  H15  1  0.62794700  0.18949700  0.07698300  1
  H  H16  1  0.37216800  0.80879600  0.92290800  1
  H  H17  1  0.32481000  0.38559900  0.58518600  1
  H  H18  1  0.67528400  0.61407600  0.41351000  1
  H  H19  1  0.17519100  0.88560200  0.91481300  1
  H  H20  1  0.82471600  0.11407800  0.08649000  1
  H  H21  1  0.47889400  0.65183200  0.61018400  1
  H  H22  1  0.57599100  0.38334100  0.46494400  1
  H  H23  1  0.02110600  0.15183200  0.88981700  1
  H  H24  1  0.92400900  0.88333900  0.03505600  1
  H  H25  1  0.93384100  0.43786800  0.47702900  1
  H  H26  1  0.06589100  0.56098300  0.52310500  1
  H  H27  1  0.56615900  0.93786900  0.02297100  1
  H  H28  1  0.43410900  0.06098600  0.97689600  1
  H  H29  1  0.00021700  0.56730500  0.64023800  1
  H  H30  1  0.99899900  0.42988000  0.35968200  1
  H  H31  1  0.49978200  0.06730400  0.85976200  1
  H  H32  1  0.50100300  0.92987900  0.14031800  1
  C  C1  1  0.66730800  0.45875700  0.16605000  1
  C  C2  1  0.33277100  0.53977000  0.83383500  1
  C  C3  1  0.83269000  0.95875900  0.33394800  1
  C  C4  1  0.16722800  0.03977400  0.66616400  1
  C  C5  1  0.81997100  0.45890200  0.17984000  1
  C  C6  1  0.18013400  0.53980300  0.82030800  1
  C  C7  1  0.68003000  0.95890400  0.32016000  1
  C  C8  1  0.31986600  0.03980500  0.67969100  1
  C  C9  1  0.41769600  0.18590800  0.57062200  1
  C  C10  1  0.58206100  0.81322200  0.42906000  1
  C  C11  1  0.08230500  0.68590800  0.92937800  1
  C  C12  1  0.91794000  0.31322200  0.07094000  1
  C  C13  1  0.37844300  0.19447400  0.60963600  1
  C  C14  1  0.62128100  0.80450100  0.39001300  1
  C  C15  1  0.12155700  0.69447200  0.89036500  1
  C  C16  1  0.87871900  0.30450000  0.10998700  1
  C  C17  1  0.36173600  0.02650200  0.63756600  1
  C  C18  1  0.63814000  0.97245700  0.36224500  1
  C  C19  1  0.13826400  0.52650100  0.86243500  1
  C  C20  1  0.86186000  0.47245700  0.13775500  1
  C  C21  1  0.38532900  0.84957800  0.62540800  1
  C  C22  1  0.61471900  0.14956800  0.37457300  1
  C  C23  1  0.11467100  0.34957800  0.87459200  1
  C  C24  1  0.88528100  0.64956600  0.12542700  1
  C  C25  1  0.42462100  0.84097800  0.58621300  1
  C  C26  1  0.57539900  0.15827600  0.41373300  1
  C  C27  1  0.07538000  0.34097600  0.91378700  1
  C  C28  1  0.92460100  0.65827500  0.08626700  1
  C  C29  1  0.44128200  0.00942000  0.55834800  1
  C  C30  1  0.55858600  0.98981100  0.44144100  1
  C  C31  1  0.05871800  0.50942200  0.94165200  1
  C  C32  1  0.94141400  0.48981300  0.05856000  1
  C  C33  1  0.48267900  0.00219600  0.51710300  1
  C  C34  1  0.51718300  0.99712700  0.48267700  1
  C  C35  1  0.01732100  0.50219600  0.98289700  1
  C  C36  1  0.98281700  0.49712700  0.01732300  1
  C  C37  1  0.91484800  0.13927300  0.38927500  1
  C  C38  1  0.08501400  0.85914400  0.61093500  1
  C  C39  1  0.58515300  0.63927000  0.11072500  1
  C  C40  1  0.41498500  0.35914900  0.88906500  1
  C  C41  1  0.88214700  0.97382500  0.38411800  1
  C  C42  1  0.11772400  0.02459300  0.61606100  1
  C  C43  1  0.61785400  0.47382800  0.11588300  1
  C  C44  1  0.38227700  0.52459400  0.88394000  1
  C  C45  1  0.89709200  0.81951400  0.42624800  1
  C  C46  1  0.10275700  0.17888900  0.57393300  1
  C  C47  1  0.60290900  0.31951500  0.07375300  1
  C  C48  1  0.39724300  0.67888900  0.92606700  1
  C  C49  1  0.94361000  0.83080500  0.47294400  1
  C  C50  1  0.05620000  0.16768600  0.52730200  1
  C  C51  1  0.55638900  0.33080000  0.02705400  1
  C  C52  1  0.44380000  0.66768700  0.97269900  1
  C  C53  1  0.97639100  0.99444800  0.47711300  1
  C  C54  1  0.02340700  0.00406700  0.52316500  1
  C  C55  1  0.52361000  0.49445300  0.02288900  1
  C  C56  1  0.47659300  0.50406800  0.97683500  1
  C  C57  1  0.96207700  0.14836800  0.43511400  1
  C  C58  1  0.03774000  0.85012500  0.56514500  1
  C  C59  1  0.53792200  0.64837000  0.06488500  1
  C  C60  1  0.46226000  0.35012100  0.93485500  1
  C  C61  1  0.95754100  0.67796300  0.51557800  1
  C  C62  1  0.04225600  0.32057500  0.48469600  1
  C  C63  1  0.54245900  0.17796900  0.98442300  1
  C  C64  1  0.45774500  0.82057400  0.01530500  1
  C  C65  1  0.00440200  0.68745900  0.56142400  1
  C  C66  1  0.99538800  0.31108600  0.43885900  1
  C  C67  1  0.49559900  0.18746600  0.93857800  1
  C  C68  1  0.50461100  0.81108300  0.06114000  1
  O  O1  1  0.80443800  0.62723200  0.20426400  1
  O  O2  1  0.19559400  0.37139800  0.79584700  1
  O  O3  1  0.69556100  0.12723200  0.29573600  1
  O  O4  1  0.30440500  0.87139500  0.70415300  1
  O  O5  1  0.68915500  0.27964500  0.17476300  1
  O  O6  1  0.31095800  0.71895200  0.82514800  1
  O  O7  1  0.81084600  0.77964800  0.32523800  1
  O  O8  1  0.18904200  0.21895200  0.67485200  1
  O  O9  1  0.79907300  0.27995700  0.18472600  1
  O  O10  1  0.20105800  0.71866900  0.81537500  1
  O  O11  1  0.70092600  0.77995700  0.31527300  1
  O  O12  1  0.29894100  0.21867200  0.68462500  1
  O  O13  1  0.81301300  0.12700900  0.30631300  1
  O  O14  1  0.18697000  0.87157200  0.69377600  1
  O  O15  1  0.68698800  0.62701200  0.19368800  1
  O  O16  1  0.31303000  0.37157400  0.80622400  1
  O  O17  1  0.75390600  0.44876400  0.28948400  1
  O  O18  1  0.24600800  0.54984400  0.71051800  1
  O  O19  1  0.74609400  0.94876500  0.21051600  1
  O  O20  1  0.25399200  0.04984500  0.78948200  1
  O  O21  1  0.35614500  0.37125100  0.62069500  1
  O  O22  1  0.64337300  0.62755900  0.37870800  1
  O  O23  1  0.14385500  0.87125200  0.87930500  1
  O  O24  1  0.85662700  0.12756000  0.12129200  1
  O  O25  1  0.44706300  0.66439300  0.57522800  1
  O  O26  1  0.55314500  0.33501900  0.42493300  1
  O  O27  1  0.05293700  0.16439400  0.92477300  1
  O  O28  1  0.94685500  0.83501900  0.07506700  1
  O  O29  1  0.92465500  0.51720800  0.51276400  1
  O  O30  1  0.07516000  0.48128900  0.48749200  1
  O  O31  1  0.57534600  0.01720600  0.98723600  1
  O  O32  1  0.42484000  0.98129100  0.01250900  1
  O  O33  1  0.01778700  0.53507000  0.60315400  1
  O  O34  1  0.98200100  0.46341400  0.39710600  1
  O  O35  1  0.48221200  0.03506700  0.89684600  1
  O  O36  1  0.51800000  0.96341600  0.10289400  1
