# generated using pymatgen
data_Zn3H6(C11O6)2
_symmetry_space_group_name_H-M   'P 1'
_cell_length_a   23.83079900
_cell_length_b   21.51748400
_cell_length_c   23.83209300
_cell_angle_alpha   90.00000000
_cell_angle_beta   90.00000000
_cell_angle_gamma   90.00000000
_symmetry_Int_Tables_number   1
_chemical_formula_structural   Zn3H6(C11O6)2
_chemical_formula_sum   'Zn12 H24 C88 O48'
_cell_volume   12220.59291251
_cell_formula_units_Z   4
loop_
 _symmetry_equiv_pos_site_id
 _symmetry_equiv_pos_as_xyz
  1  'x, y, z'
loop_
 _atom_site_type_symbol
 _atom_site_label
 _atom_site_symmetry_multiplicity
 _atom_site_fract_x
 _atom_site_fract_y
 _atom_site_fract_z
 _atom_site_occupancy
  Zn  Zn1  1  0.56458800  0.50003300  0.00151100  1
  Zn  Zn2  1  0.06455500  0.00004400  0.49841500  1
  Zn  Zn3  1  0.43742300  0.49996000  0.99793300  1
  Zn  Zn4  1  0.93740000  0.99995300  0.50212500  1
  Zn  Zn5  1  0.50174000  0.00004200  0.06389100  1
  Zn  Zn6  1  0.49789800  0.99995700  0.93675100  1
  Zn  Zn7  1  0.99803400  0.49995700  0.56326400  1
  Zn  Zn8  1  0.00166000  0.50004500  0.43611900  1
  Zn  Zn9  1  0.50006300  0.42955000  0.49974700  1
  Zn  Zn10  1  0.49998200  0.57049100  0.49968600  1
  Zn  Zn11  1  0.00003500  0.92955300  0.00026000  1
  Zn  Zn12  1  0.99995800  0.07049400  0.00029000  1
  H  H1  1  0.40798200  0.21207500  0.97563000  1
  H  H2  1  0.40669800  0.78881200  0.97741000  1
  H  H3  1  0.90823700  0.71207000  0.52528100  1
  H  H4  1  0.90692700  0.28885800  0.52353700  1
  H  H5  1  0.47544700  0.28899300  0.90712600  1
  H  H6  1  0.43260600  0.71069900  0.06915000  1
  H  H7  1  0.43440600  0.28935500  0.06778700  1
  H  H8  1  0.47370000  0.71184100  0.90849700  1
  H  H9  1  0.93375000  0.78930200  0.43283600  1
  H  H10  1  0.97460500  0.21188500  0.59178200  1
  H  H11  1  0.97635100  0.78903800  0.59309600  1
  H  H12  1  0.93185500  0.21069700  0.43156600  1
  H  H13  1  0.56764800  0.21070100  0.93085200  1
  H  H14  1  0.52533400  0.78762000  0.09345300  1
  H  H15  1  0.52665200  0.21153600  0.09164300  1
  H  H16  1  0.56639700  0.78923600  0.93269400  1
  H  H17  1  0.02577100  0.71150800  0.40812400  1
  H  H18  1  0.06707000  0.28923900  0.56660700  1
  H  H19  1  0.06833700  0.71075600  0.56850100  1
  H  H20  1  0.02435300  0.28756900  0.40627600  1
  H  H21  1  0.59420500  0.28741700  0.02303800  1
  H  H22  1  0.59241400  0.71166900  0.02446500  1
  H  H23  1  0.09397000  0.78744200  0.47602300  1
  H  H24  1  0.09212300  0.21163200  0.47459900  1
  C  C1  1  0.50282700  0.50032800  0.89007200  1
  C  C2  1  0.49916400  0.49967500  0.10937200  1
  C  C3  1  0.99905100  0.99969100  0.39061100  1
  C  C4  1  0.00288600  0.00031900  0.60993000  1
  C  C5  1  0.50202300  0.37857600  0.99935800  1
  C  C6  1  0.49965700  0.62141800  0.00012000  1
  C  C7  1  0.00200200  0.87857600  0.50061900  1
  C  C8  1  0.99962100  0.12142100  0.49988800  1
  C  C9  1  0.48701700  0.27038500  0.94894200  1
  C  C10  1  0.46294800  0.72940400  0.03818500  1
  C  C11  1  0.46462900  0.27060700  0.03672400  1
  C  C12  1  0.48537300  0.73008700  0.95041400  1
  C  C13  1  0.96427400  0.77059100  0.46362000  1
  C  C14  1  0.98585100  0.23010200  0.54973800  1
  C  C15  1  0.98751500  0.77040200  0.55118000  1
  C  C16  1  0.96252800  0.22940800  0.46220100  1
  C  C17  1  0.45019200  0.23022800  0.98633900  1
  C  C18  1  0.44878600  0.77025600  0.98803300  1
  C  C19  1  0.95033600  0.73022700  0.51415300  1
  C  C20  1  0.94889600  0.27027800  0.51248800  1
  C  C21  1  0.50057600  0.19045200  0.99932400  1
  C  C22  1  0.49941600  0.80954400  0.00126500  1
  C  C23  1  0.00060100  0.69045900  0.50069200  1
  C  C24  1  0.99940300  0.30954100  0.49873000  1
  C  C25  1  0.53741700  0.22943500  0.96191500  1
  C  C26  1  0.51354800  0.76986000  0.05139600  1
  C  C27  1  0.51497200  0.22966300  0.04968300  1
  C  C28  1  0.53602900  0.77054500  0.96364300  1
  C  C29  1  0.01449900  0.72965700  0.45018600  1
  C  C30  1  0.03638200  0.27053500  0.53598200  1
  C  C31  1  0.03779800  0.72946300  0.53772900  1
  C  C32  1  0.01300300  0.26984000  0.44846300  1
  C  C33  1  0.55184100  0.26978300  0.01223700  1
  C  C34  1  0.55017400  0.72972000  0.01372900  1
  C  C35  1  0.05172100  0.76980000  0.48726000  1
  C  C36  1  0.05000000  0.22969700  0.48576000  1
  C  C37  1  0.50145800  0.30958500  0.99929300  1
  C  C38  1  0.49953800  0.69041000  0.00053500  1
  C  C39  1  0.00145400  0.80958800  0.50068200  1
  C  C40  1  0.99949200  0.19041100  0.49948000  1
  C  C41  1  0.50444900  0.50047200  0.82992000  1
  C  C42  1  0.49738700  0.49950700  0.16952000  1
  C  C43  1  0.99721600  0.99953200  0.33045500  1
  C  C44  1  0.00457100  0.00045500  0.67009000  1
  C  C45  1  0.50494000  0.50062400  0.77937300  1
  C  C46  1  0.49647300  0.49933700  0.22006200  1
  C  C47  1  0.99630200  0.99937000  0.27991100  1
  C  C48  1  0.00506600  0.00059700  0.72064000  1
  C  C49  1  0.50467300  0.50082900  0.72013700  1
  C  C50  1  0.49608800  0.49911200  0.27929700  1
  C  C51  1  0.99591200  0.99915700  0.22067800  1
  C  C52  1  0.00480300  0.00079100  0.77987400  1
  C  C53  1  0.50398200  0.50101700  0.66958600  1
  C  C54  1  0.49626300  0.49891200  0.32985200  1
  C  C55  1  0.99612200  0.99896100  0.17012600  1
  C  C56  1  0.00407700  0.00097600  0.83042200  1
  C  C57  1  0.39016000  0.00032400  0.00235300  1
  C  C58  1  0.89018500  0.50031400  0.49786200  1
  C  C59  1  0.50017400  0.12146800  0.99914300  1
  C  C60  1  0.49945600  0.87853100  0.00150100  1
  C  C61  1  0.00020300  0.62147200  0.50087900  1
  C  C62  1  0.99947700  0.37853000  0.49850000  1
  C  C63  1  0.60949100  0.99967400  0.99828900  1
  C  C64  1  0.10952200  0.49968800  0.50152200  1
  C  C65  1  0.39025400  0.49883900  0.50271500  1
  C  C66  1  0.89022600  0.99882500  0.99726200  1
  C  C67  1  0.50280300  0.50124300  0.60940300  1
  C  C68  1  0.49706300  0.49868100  0.39004000  1
  C  C69  1  0.99698600  0.99871800  0.10994500  1
  C  C70  1  0.00283300  0.00121200  0.89059700  1
  C  C71  1  0.60952600  0.50119700  0.49672100  1
  C  C72  1  0.10950000  0.00121700  0.00328300  1
  C  C73  1  0.33000500  0.00048300  0.00416000  1
  C  C74  1  0.83002900  0.50046600  0.49613900  1
  C  C75  1  0.27945800  0.00063500  0.00487100  1
  C  C76  1  0.77948300  0.50061500  0.49544500  1
  C  C77  1  0.72025200  0.50080500  0.49534500  1
  C  C78  1  0.22022500  0.00082400  0.00491300  1
  C  C79  1  0.66970200  0.50097900  0.49573700  1
  C  C80  1  0.16967500  0.00099600  0.00440600  1
  C  C81  1  0.66966400  0.99952500  0.99648000  1
  C  C82  1  0.16969600  0.49954600  0.50324500  1
  C  C83  1  0.72022200  0.99938500  0.99575900  1
  C  C84  1  0.22025300  0.49940600  0.50394400  1
  C  C85  1  0.27950100  0.49922300  0.50405800  1
  C  C86  1  0.77947100  0.99920900  0.99569200  1
  C  C87  1  0.33006100  0.49905500  0.50368100  1
  C  C88  1  0.83003300  0.99904300  0.99617000  1
  O  O1  1  0.55047700  0.49883100  0.91766200  1
  O  O2  1  0.54843200  0.49825600  0.08492800  1
  O  O3  1  0.04834400  0.99827200  0.41500700  1
  O  O4  1  0.05050300  0.99882700  0.58227600  1
  O  O5  1  0.45358300  0.50173900  0.91452500  1
  O  O6  1  0.45153200  0.50116900  0.08177400  1
  O  O7  1  0.95145100  0.00117600  0.41827100  1
  O  O8  1  0.95361600  0.00172600  0.58552400  1
  O  O9  1  0.55067800  0.40680900  0.00238100  1
  O  O10  1  0.54816100  0.59277300  0.00287500  1
  O  O11  1  0.05064900  0.90681900  0.49753400  1
  O  O12  1  0.04812700  0.09278400  0.49706000  1
  O  O13  1  0.45383300  0.40794500  0.99660700  1
  O  O14  1  0.45131100  0.59246300  0.99709200  1
  O  O15  1  0.95381000  0.90793700  0.50344100  1
  O  O16  1  0.95128300  0.09245800  0.50297700  1
  O  O17  1  0.41786200  0.99883000  0.04993500  1
  O  O18  1  0.41450700  0.00172700  0.95304600  1
  O  O19  1  0.91461100  0.50172700  0.54712900  1
  O  O20  1  0.91781000  0.49882300  0.45023400  1
  O  O21  1  0.50306500  0.09246600  0.04748000  1
  O  O22  1  0.49656500  0.90752700  0.95315700  1
  O  O23  1  0.49703300  0.09286800  0.95065500  1
  O  O24  1  0.50259600  0.90713600  0.04998300  1
  O  O25  1  0.99714100  0.59287100  0.54937200  1
  O  O26  1  0.00254300  0.40713700  0.45001500  1
  O  O27  1  0.00301000  0.59246700  0.45253800  1
  O  O28  1  0.99667500  0.40752800  0.54685000  1
  O  O29  1  0.58513300  0.99827100  0.04759300  1
  O  O30  1  0.58177800  0.00116900  0.95070900  1
  O  O31  1  0.08188600  0.50117900  0.54914700  1
  O  O32  1  0.08508400  0.49827500  0.45225700  1
  O  O33  1  0.41609900  0.44506300  0.50065300  1
  O  O34  1  0.41647500  0.55247100  0.50323700  1
  O  O35  1  0.91606800  0.94504600  0.99933000  1
  O  O36  1  0.91645500  0.05245300  0.99672200  1
  O  O37  1  0.50073600  0.44764700  0.58322300  1
  O  O38  1  0.49874100  0.55228500  0.41623600  1
  O  O39  1  0.49631200  0.44490500  0.41593000  1
  O  O40  1  0.50313700  0.55502600  0.58351300  1
  O  O41  1  0.99625300  0.94493500  0.08407100  1
  O  O42  1  0.00315600  0.05500300  0.91647100  1
  O  O43  1  0.00072700  0.94762100  0.91678000  1
  O  O44  1  0.99870500  0.05231700  0.08374500  1
  O  O45  1  0.58330800  0.44758500  0.49619100  1
  O  O46  1  0.58368500  0.55495500  0.49879400  1
  O  O47  1  0.08327600  0.94760800  0.00383100  1
  O  O48  1  0.08366400  0.05497800  0.00120900  1
