# generated using pymatgen
data_ZnH5C14N3O8
_symmetry_space_group_name_H-M   'P 1'
_cell_length_a   8.52105500
_cell_length_b   13.07704000
_cell_length_c   14.29869500
_cell_angle_alpha   90.58680400
_cell_angle_beta   90.54331600
_cell_angle_gamma   93.50633200
_symmetry_Int_Tables_number   1
_chemical_formula_structural   ZnH5C14N3O8
_chemical_formula_sum   'Zn2 H10 C28 N6 O16'
_cell_volume   1590.15854593
_cell_formula_units_Z   2
loop_
 _symmetry_equiv_pos_site_id
 _symmetry_equiv_pos_as_xyz
  1  'x, y, z'
loop_
 _atom_site_type_symbol
 _atom_site_label
 _atom_site_symmetry_multiplicity
 _atom_site_fract_x
 _atom_site_fract_y
 _atom_site_fract_z
 _atom_site_occupancy
  Zn  Zn1  1  0.49919100  0.49049400  0.10399900  1
  Zn  Zn2  1  0.50080900  0.50950700  0.89600100  1
  H  H1  1  0.13609900  0.00177200  0.93058900  1
  H  H2  1  0.86390100  0.99822800  0.06941100  1
  H  H3  1  0.28036800  0.84475000  0.98054800  1
  H  H4  1  0.71963300  0.15525000  0.01945200  1
  H  H5  1  0.00891300  0.57288800  0.04789000  1
  H  H6  1  0.99108800  0.42711200  0.95210900  1
  H  H7  1  0.73141600  0.41194500  0.45134700  1
  H  H8  1  0.26858400  0.58805500  0.54865300  1
  H  H9  1  0.73354700  0.60528600  0.55008500  1
  H  H10  1  0.26645300  0.39471400  0.44991500  1
  C  C1  1  0.15900000  0.70268300  0.01492000  1
  C  C2  1  0.84100000  0.29731700  0.98507900  1
  C  C3  1  0.16733600  0.80513500  0.99238100  1
  C  C4  1  0.83266500  0.19486500  0.00761900  1
  C  C5  1  0.03140500  0.85791600  0.98810500  1
  C  C6  1  0.96859500  0.14208400  0.01189400  1
  C  C7  1  0.88556200  0.80499000  0.99494500  1
  C  C8  1  0.11443800  0.19501000  0.00505500  1
  C  C9  1  0.87890200  0.70246100  0.01861800  1
  C  C10  1  0.12109800  0.29753900  0.98138100  1
  C  C11  1  0.01544100  0.65368900  0.03268800  1
  C  C12  1  0.98455900  0.34631100  0.96731200  1
  C  C13  1  0.04532200  0.96933500  0.97591000  1
  C  C14  1  0.95467800  0.03066500  0.02408900  1
  C  C15  1  0.29557300  0.64052200  0.01017800  1
  C  C16  1  0.70442700  0.35947900  0.98982200  1
  C  C17  1  0.26663400  0.36186000  0.98742000  1
  C  C18  1  0.73336600  0.63814000  0.01258000  1
  C  C19  1  0.62954000  0.55570600  0.52752900  1
  C  C20  1  0.37046100  0.44429400  0.47247000  1
  C  C21  1  0.62839900  0.45386300  0.47327000  1
  C  C22  1  0.37160100  0.54613700  0.52673000  1
  C  C23  1  0.50029000  0.58795000  0.46338600  1
  C  C24  1  0.49971000  0.41205000  0.53661400  1
  C  C25  1  0.49916900  0.48916100  0.40964100  1
  C  C26  1  0.50083100  0.51083900  0.59035900  1
  C  C27  1  0.49845900  0.48343100  0.30738600  1
  C  C28  1  0.50154100  0.51656900  0.69261400  1
  N  N1  1  0.49814200  0.48100000  0.22647500  1
  N  N2  1  0.50185800  0.51900000  0.77352500  1
  N  N3  1  0.74476200  0.85331600  0.97122800  1
  N  N4  1  0.25523800  0.14668400  0.02877100  1
  N  N5  1  0.49942600  0.31240100  0.58026900  1
  N  N6  1  0.50057400  0.68759900  0.41973100  1
  O  O1  1  0.34252000  0.61277700  0.92700400  1
  O  O2  1  0.65748100  0.38722400  0.07299600  1
  O  O3  1  0.34636600  0.60087200  0.08796600  1
  O  O4  1  0.65363400  0.39912800  0.91203400  1
  O  O5  1  0.31954500  0.38880700  0.07107300  1
  O  O6  1  0.68045500  0.61119300  0.92892600  1
  O  O7  1  0.32516200  0.40059100  0.91008400  1
  O  O8  1  0.67483800  0.59940900  0.08991600  1
  O  O9  1  0.61001700  0.81851700  0.00362700  1
  O  O10  1  0.74843400  0.92583500  0.90959800  1
  O  O11  1  0.25156600  0.07416500  0.09040200  1
  O  O12  1  0.38998300  0.18148300  0.99637300  1
  O  O13  1  0.49847500  0.22994000  0.52865800  1
  O  O14  1  0.50013000  0.30541600  0.67089600  1
  O  O15  1  0.50152500  0.77006000  0.47134200  1
  O  O16  1  0.49987000  0.69458400  0.32910300  1
