# generated using pymatgen
data_ZnH5C12BrN3O4
_symmetry_space_group_name_H-M   'P 1'
_cell_length_a   8.54350100
_cell_length_b   15.00024400
_cell_length_c   9.15020600
_cell_angle_alpha   90.96334500
_cell_angle_beta   90.08130400
_cell_angle_gamma   90.01755800
_symmetry_Int_Tables_number   1
_chemical_formula_structural   ZnH5C12BrN3O4
_chemical_formula_sum   'Zn2 H10 C24 Br2 N6 O8'
_cell_volume   1172.47399580
_cell_formula_units_Z   2
loop_
 _symmetry_equiv_pos_site_id
 _symmetry_equiv_pos_as_xyz
  1  'x, y, z'
loop_
 _atom_site_type_symbol
 _atom_site_label
 _atom_site_symmetry_multiplicity
 _atom_site_fract_x
 _atom_site_fract_y
 _atom_site_fract_z
 _atom_site_occupancy
  Zn  Zn1  1  0.49984600  0.50528000  0.83749900  1
  Zn  Zn2  1  0.50015500  0.49471900  0.16250100  1
  H  H1  1  0.00024800  0.56233800  0.05804200  1
  H  H2  1  0.99975200  0.43766200  0.94195800  1
  H  H3  1  0.25126500  0.80116800  0.98864500  1
  H  H4  1  0.74873600  0.19883200  0.01135500  1
  H  H5  1  0.74887000  0.80106900  0.98907000  1
  H  H6  1  0.25113100  0.19893000  0.01093000  1
  H  H7  1  0.27753000  0.41949400  0.41296300  1
  H  H8  1  0.72247000  0.58050600  0.58703700  1
  H  H9  1  0.27741800  0.58057200  0.58584800  1
  H  H10  1  0.72258300  0.41942800  0.41415200  1
  C  C1  1  0.13975100  0.67587700  0.01783800  1
  C  C2  1  0.86025000  0.32412300  0.98216200  1
  C  C3  1  0.14066500  0.76683800  0.99849500  1
  C  C4  1  0.85933500  0.23316200  0.00150500  1
  C  C5  1  0.00008300  0.81319600  0.99645100  1
  C  C6  1  0.99991800  0.18680400  0.00354900  1
  C  C7  1  0.85952600  0.76678900  0.99876500  1
  C  C8  1  0.14047500  0.23321100  0.00123500  1
  C  C9  1  0.86053800  0.67583800  0.01814600  1
  C  C10  1  0.13946300  0.32416200  0.98185400  1
  C  C11  1  0.00019100  0.63246600  0.03675000  1
  C  C12  1  0.99980900  0.36753400  0.96325000  1
  C  C13  1  0.99996300  0.08914400  0.00518300  1
  C  C14  1  0.00003800  0.91085600  0.99481700  1
  C  C15  1  0.71833200  0.62184500  0.01206700  1
  C  C16  1  0.28166900  0.37815500  0.98793300  1
  C  C17  1  0.71807300  0.37808600  0.98822400  1
  C  C18  1  0.28192800  0.62191400  0.01177600  1
  C  C19  1  0.37999500  0.54217600  0.54554600  1
  C  C20  1  0.62000500  0.45782400  0.45445300  1
  C  C21  1  0.38006000  0.45786600  0.45380700  1
  C  C22  1  0.61994100  0.54213400  0.54619300  1
  C  C23  1  0.50017500  0.57339400  0.43924800  1
  C  C24  1  0.49982600  0.42660600  0.56075200  1
  Br  Br1  1  0.50047400  0.68775300  0.34493900  1
  Br  Br2  1  0.49952600  0.31224700  0.65506100  1
  N  N1  1  0.86389200  0.95588700  0.99788700  1
  N  N2  1  0.13610800  0.04411300  0.00211300  1
  N  N3  1  0.86385100  0.04402400  0.00236300  1
  N  N4  1  0.13614900  0.95597600  0.99763700  1
  N  N5  1  0.50023200  0.49029900  0.35415700  1
  N  N6  1  0.49976900  0.50970100  0.64584300  1
  O  O1  1  0.66939800  0.58632700  0.13372800  1
  O  O2  1  0.33060300  0.41367300  0.86627200  1
  O  O3  1  0.66324800  0.59872900  0.88278500  1
  O  O4  1  0.33675300  0.40127100  0.11721500  1
  O  O5  1  0.66894000  0.41362800  0.86654100  1
  O  O6  1  0.33106100  0.58637200  0.13345900  1
  O  O7  1  0.66331000  0.40121600  0.11747600  1
  O  O8  1  0.33669100  0.59878400  0.88252400  1
