# generated using pymatgen
data_ZnH17C27NO12
_symmetry_space_group_name_H-M   'P 1'
_cell_length_a   15.29312100
_cell_length_b   11.87331300
_cell_length_c   12.82070200
_cell_angle_alpha   90.18282200
_cell_angle_beta   90.00000000
_cell_angle_gamma   90.00000000
_symmetry_Int_Tables_number   1
_chemical_formula_structural   ZnH17C27NO12
_chemical_formula_sum   'Zn2 H34 C54 N2 O24'
_cell_volume   2327.97137671
_cell_formula_units_Z   2
loop_
 _symmetry_equiv_pos_site_id
 _symmetry_equiv_pos_as_xyz
  1  'x, y, z'
loop_
 _atom_site_type_symbol
 _atom_site_label
 _atom_site_symmetry_multiplicity
 _atom_site_fract_x
 _atom_site_fract_y
 _atom_site_fract_z
 _atom_site_occupancy
  Zn  Zn1  1  0.49939900  0.50008700  0.88927600  1
  Zn  Zn2  1  0.49551400  0.50348200  0.12039000  1
  H  H1  1  0.28601500  0.72680900  0.83223900  1
  H  H2  1  0.71429700  0.27571900  0.17396900  1
  H  H3  1  0.29951200  0.76418900  0.16301900  1
  H  H4  1  0.68481500  0.23357800  0.84531500  1
  H  H5  1  0.16003600  0.85041000  0.82742800  1
  H  H6  1  0.84066600  0.15062300  0.17149400  1
  H  H7  1  0.28622700  0.27177100  0.17001200  1
  H  H8  1  0.68387300  0.76356700  0.83813200  1
  H  H9  1  0.15927800  0.14936000  0.17259300  1
  H  H10  1  0.81203400  0.88225600  0.82751600  1
  H  H11  1  0.19212400  0.89237400  0.42015200  1
  H  H12  1  0.07602500  0.87291400  0.39931300  1
  H  H13  1  0.13080000  0.99510800  0.34587800  1
  H  H14  1  0.85093700  0.00066300  0.65492300  1
  H  H15  1  0.89795800  0.12453500  0.59498800  1
  H  H16  1  0.78225900  0.09567000  0.58104800  1
  H  H17  1  0.08265300  0.02218100  0.65025900  1
  H  H18  1  0.18573800  0.02067700  0.58066800  1
  H  H19  1  0.13435500  0.15346900  0.61355000  1
  H  H20  1  0.92432800  0.99236400  0.33648900  1
  H  H21  1  0.89743600  0.85238500  0.38229300  1
  H  H22  1  0.82775500  0.97039600  0.41560100  1
  H  H23  1  0.39681000  0.26028400  0.65022100  1
  H  H24  1  0.44804200  0.12304300  0.65734900  1
  H  H25  1  0.50301900  0.24488600  0.71138100  1
  H  H26  1  0.68973800  0.63435900  0.36355700  1
  H  H27  1  0.80409900  0.63536700  0.40018200  1
  H  H28  1  0.75693600  0.51129100  0.33990900  1
  H  H29  1  0.03452900  0.57868200  0.89244800  1
  H  H30  1  0.06208100  0.62162200  0.76178300  1
  H  H31  1  0.95031000  0.58388800  0.79254400  1
  H  H32  1  0.00581100  0.46122800  0.06130000  1
  H  H33  1  0.89883400  0.40713500  0.09451400  1
  H  H34  1  0.91531100  0.47481700  0.97033800  1
  C  C1  1  0.30090300  0.73615800  0.99875000  1
  C  C2  1  0.69227200  0.26492800  0.00879200  1
  C  C3  1  0.07611400  0.94462400  0.98886900  1
  C  C4  1  0.91860800  0.05991200  0.00354000  1
  C  C5  1  0.19487000  0.85196000  0.08674300  1
  C  C6  1  0.79330900  0.14767000  0.91467100  1
  C  C7  1  0.26237500  0.76267600  0.90447900  1
  C  C8  1  0.73459300  0.23853100  0.10083700  1
  C  C9  1  0.26778800  0.78229300  0.08970800  1
  C  C10  1  0.72029800  0.21678800  0.91636500  1
  C  C11  1  0.15756100  0.87918100  0.99177000  1
  C  C12  1  0.83550600  0.12186700  0.00707700  1
  C  C13  1  0.19100400  0.83320200  0.90133600  1
  C  C14  1  0.80596500  0.16745700  0.09978000  1
  C  C15  1  0.30512000  0.26066500  0.00404500  1
  C  C16  1  0.69351800  0.73732900  0.00366900  1
  C  C17  1  0.07597100  0.05941600  0.00827000  1
  C  C18  1  0.91903300  0.94474800  0.98460400  1
  C  C19  1  0.19829000  0.14661000  0.91387900  1
  C  C20  1  0.81131900  0.83831500  0.08686100  1
  C  C21  1  0.26407800  0.23524400  0.09739900  1
  C  C22  1  0.71882400  0.78311000  0.90914400  1
  C  C23  1  0.27465500  0.21084700  0.91190900  1
  C  C24  1  0.74140300  0.76309100  0.09299300  1
  C  C25  1  0.15794400  0.12354500  0.00793300  1
  C  C26  1  0.83801200  0.87872100  0.99107100  1
  C  C27  1  0.19167500  0.16629100  0.09936200  1
  C  C28  1  0.79141700  0.85130900  0.90266600  1
  C  C29  1  0.99789900  0.88843300  0.97435400  1
  C  C30  1  0.99758200  0.11680500  0.01666200  1
  C  C31  1  0.62084100  0.65538100  0.00505900  1
  C  C32  1  0.37514100  0.34670000  0.00437600  1
  C  C33  1  0.62102400  0.34779800  0.00769800  1
  C  C34  1  0.37355000  0.65534500  0.00178800  1
  C  C35  1  0.49924800  0.50013900  0.66202800  1
  C  C36  1  0.49555700  0.50427300  0.34763800  1
  C  C37  1  0.49799600  0.50178500  0.55184200  1
  C  C38  1  0.49680900  0.50309200  0.45782900  1
  C  C39  1  0.15657400  0.84031200  0.26687400  1
  C  C40  1  0.13761400  0.90432500  0.36425500  1
  C  C41  1  0.82108700  0.15615700  0.73071400  1
  C  C42  1  0.83922600  0.09001600  0.63428800  1
  C  C43  1  0.19424600  0.06774900  0.74076800  1
  C  C44  1  0.14613700  0.06588600  0.63986000  1
  C  C45  1  0.81755000  0.91321100  0.25839200  1
  C  C46  1  0.87016100  0.93338500  0.35432000  1
  C  C47  1  0.39536700  0.18420300  0.80068300  1
  C  C48  1  0.43854900  0.20450200  0.69837100  1
  C  C49  1  0.77943900  0.64903800  0.23700300  1
  C  C50  1  0.75606100  0.60467200  0.34185700  1
  C  C51  1  0.99228500  0.74338700  0.85114200  1
  C  C52  1  0.01068300  0.62414100  0.82276700  1
  C  C53  1  0.96908500  0.30974500  0.98274100  1
  C  C54  1  0.94601700  0.42043800  0.03007000  1
  N  N1  1  0.49999800  0.49890200  0.75229300  1
  N  N2  1  0.49480100  0.50488200  0.25737000  1
  O  O1  1  0.59142500  0.61721600  0.09456600  1
  O  O2  1  0.40339600  0.38667200  0.91518100  1
  O  O3  1  0.58999700  0.62017600  0.91513200  1
  O  O4  1  0.40530100  0.38275400  0.09454100  1
  O  O5  1  0.59378700  0.38573000  0.91733300  1
  O  O6  1  0.40073200  0.61741500  0.09220900  1
  O  O7  1  0.58917700  0.38357800  0.09683000  1
  O  O8  1  0.40601600  0.62014500  0.91301400  1
  O  O9  1  0.15983400  0.89530900  0.17481400  1
  O  O10  1  0.16301700  0.73799800  0.27026200  1
  O  O11  1  0.82480100  0.10454100  0.82451500  1
  O  O12  1  0.80997200  0.25763500  0.72450800  1
  O  O13  1  0.15656600  0.11546700  0.82532400  1
  O  O14  1  0.26372500  0.01816800  0.74820700  1
  O  O15  1  0.85647300  0.87037500  0.17239400  1
  O  O16  1  0.74056700  0.93995100  0.25668300  1
  O  O17  1  0.31555100  0.22861900  0.82021900  1
  O  O18  1  0.43082300  0.12428700  0.86515800  1
  O  O19  1  0.72133900  0.71267800  0.18405300  1
  O  O20  1  0.84966200  0.62445600  0.19805500  1
  O  O21  1  0.99927400  0.77780200  0.95129200  1
  O  O22  1  0.97660200  0.81139500  0.78259200  1
  O  O23  1  0.99929100  0.22650000  0.04421300  1
  O  O24  1  0.96011300  0.29450900  0.88929300  1
