# generated using pymatgen
data_ZnH21C28NO4
_symmetry_space_group_name_H-M   'P 1'
_cell_length_a   15.31582500
_cell_length_b   11.78583300
_cell_length_c   13.34337600
_cell_angle_alpha   90.16200800
_cell_angle_beta   89.99002100
_cell_angle_gamma   90.00000000
_symmetry_Int_Tables_number   1
_chemical_formula_structural   ZnH21C28NO4
_chemical_formula_sum   'Zn2 H42 C56 N2 O8'
_cell_volume   2408.59987692
_cell_formula_units_Z   2
loop_
 _symmetry_equiv_pos_site_id
 _symmetry_equiv_pos_as_xyz
  1  'x, y, z'
loop_
 _atom_site_type_symbol
 _atom_site_label
 _atom_site_symmetry_multiplicity
 _atom_site_fract_x
 _atom_site_fract_y
 _atom_site_fract_z
 _atom_site_occupancy
  Zn  Zn1  1  0.49842500  0.50629600  0.88903900  1
  Zn  Zn2  1  0.50147100  0.49346100  0.11098300  1
  H  H1  1  0.30310500  0.77889500  0.86100700  1
  H  H2  1  0.69681300  0.22088900  0.13902000  1
  H  H3  1  0.28369100  0.70103500  0.16990600  1
  H  H4  1  0.71617800  0.29868700  0.83010400  1
  H  H5  1  0.17683600  0.90117300  0.87469400  1
  H  H6  1  0.82308000  0.09860700  0.12532500  1
  H  H7  1  0.14108400  0.17488400  0.84633500  1
  H  H8  1  0.85880000  0.82490400  0.15368800  1
  H  H9  1  0.32540100  0.20976000  0.14615600  1
  H  H10  1  0.67450800  0.78996800  0.85385300  1
  H  H11  1  0.26922200  0.29652000  0.84171000  1
  H  H12  1  0.73066100  0.70326700  0.15831800  1
  H  H13  1  0.19811900  0.08862600  0.14939500  1
  H  H14  1  0.80179100  0.91109700  0.85060800  1
  H  H15  1  0.99690100  0.79462200  0.02906100  1
  H  H16  1  0.00299400  0.20513300  0.97094600  1
  H  H17  1  0.36613900  0.48434200  0.25052500  1
  H  H18  1  0.63375700  0.51541600  0.74949700  1
  H  H19  1  0.64081000  0.49208200  0.25449600  1
  H  H20  1  0.35908600  0.50767600  0.74552600  1
  H  H21  1  0.71823200  0.50067100  0.41203000  1
  H  H22  1  0.28166400  0.49909000  0.58799100  1
  H  H23  1  0.71547200  0.51122100  0.59542800  1
  H  H24  1  0.28442400  0.48853900  0.40459400  1
  H  H25  1  0.17527500  0.65218000  0.27390300  1
  H  H26  1  0.07820400  0.67147800  0.19889700  1
  H  H27  1  0.08072600  0.71665600  0.32811500  1
  H  H28  1  0.27390700  0.80452100  0.30678900  1
  H  H29  1  0.19414800  0.88491100  0.37225400  1
  H  H30  1  0.25049000  0.94753200  0.26763000  1
  H  H31  1  0.01242500  0.86907600  0.20843400  1
  H  H32  1  0.08499200  0.99255800  0.21457000  1
  H  H33  1  0.05783200  0.91362700  0.32285300  1
  H  H34  1  0.72594600  0.19515200  0.69324200  1
  H  H35  1  0.74940300  0.05215500  0.73240300  1
  H  H36  1  0.80571500  0.11478900  0.62776600  1
  H  H37  1  0.82455900  0.34752700  0.72606200  1
  H  H38  1  0.91912500  0.28307400  0.67187100  1
  H  H39  1  0.92163100  0.32828700  0.80108000  1
  H  H40  1  0.91490900  0.00719400  0.78544300  1
  H  H41  1  0.98745400  0.13069900  0.79156900  1
  H  H42  1  0.94204800  0.08612200  0.67715300  1
  C  C1  1  0.30142100  0.73251100  0.01595500  1
  C  C2  1  0.69847400  0.26724400  0.98406500  1
  C  C3  1  0.07673400  0.94226800  0.02279300  1
  C  C4  1  0.92316100  0.05748800  0.97721500  1
  C  C5  1  0.18722300  0.81901500  0.11828300  1
  C  C6  1  0.81265900  0.18072600  0.88172800  1
  C  C7  1  0.27208300  0.78963400  0.93315800  1
  C  C8  1  0.72782400  0.21013700  0.06686500  1
  C  C9  1  0.25961000  0.74815400  0.10680400  1
  C  C10  1  0.74027100  0.25158400  0.89321000  1
  C  C11  1  0.15724900  0.87537300  0.03126500  1
  C  C12  1  0.84264600  0.12438300  0.96874800  1
  C  C13  1  0.20094400  0.85982500  0.94140000  1
  C  C14  1  0.79896200  0.13994400  0.05861900  1
  C  C15  1  0.30677800  0.26172800  0.99356500  1
  C  C16  1  0.69311700  0.73803100  0.00645400  1
  C  C17  1  0.07899800  0.05763000  0.00188100  1
  C  C18  1  0.92089700  0.94212600  0.99812800  1
  C  C19  1  0.18215600  0.18119000  0.91193700  1
  C  C20  1  0.81773200  0.81858500  0.08808300  1
  C  C21  1  0.28630200  0.20161200  0.07911800  1
  C  C22  1  0.71360000  0.79813000  0.92089400  1
  C  C23  1  0.25516900  0.24960000  0.90927600  1
  C  C24  1  0.74471900  0.75017400  0.09074600  1
  C  C25  1  0.16106400  0.12203900  0.99780000  1
  C  C26  1  0.83883100  0.87771800  0.00221200  1
  C  C27  1  0.21421500  0.13174800  0.08092100  1
  C  C28  1  0.78568800  0.86799200  0.91908700  1
  C  C29  1  0.99798700  0.88535800  0.01739800  1
  C  C30  1  0.00190800  0.11439700  0.98260800  1
  C  C31  1  0.62104100  0.65632600  0.00524400  1
  C  C32  1  0.37885500  0.34343100  0.99477800  1
  C  C33  1  0.62535100  0.34761100  0.99210800  1
  C  C34  1  0.37454500  0.65214500  0.00791400  1
  C  C35  1  0.42653300  0.48634200  0.29230200  1
  C  C36  1  0.57336300  0.51341600  0.70772000  1
  C  C37  1  0.57947100  0.49061200  0.29449400  1
  C  C38  1  0.42042500  0.50914600  0.70552800  1
  C  C39  1  0.57903500  0.49565600  0.39795500  1
  C  C40  1  0.42086100  0.50410400  0.60206700  1
  C  C41  1  0.50074500  0.49653300  0.44851500  1
  C  C42  1  0.49915100  0.50322700  0.55150700  1
  C  C43  1  0.42399900  0.49132400  0.39552400  1
  C  C44  1  0.57589700  0.50843500  0.60449800  1
  C  C45  1  0.65632800  0.50116600  0.45096400  1
  C  C46  1  0.34356800  0.49859400  0.54905800  1
  C  C47  1  0.65475100  0.50730600  0.55426900  1
  C  C48  1  0.34514500  0.49245400  0.44575300  1
  C  C49  1  0.14989500  0.82692700  0.22537400  1
  C  C50  1  0.11964800  0.70947900  0.25831700  1
  C  C51  1  0.22148100  0.86807300  0.29675800  1
  C  C52  1  0.07205400  0.90582500  0.24166500  1
  C  C53  1  0.84997500  0.17280400  0.77463100  1
  C  C54  1  0.77838800  0.13162200  0.70326500  1
  C  C55  1  0.88019800  0.29025400  0.74166500  1
  C  C56  1  0.92783000  0.09392800  0.75834200  1
  N  N1  1  0.50361600  0.48593600  0.24335200  1
  N  N2  1  0.49628000  0.51382100  0.75667000  1
  O  O1  1  0.59580900  0.61099600  0.09020600  1
  O  O2  1  0.40408600  0.38876100  0.90981600  1
  O  O3  1  0.58789700  0.62725900  0.91821600  1
  O  O4  1  0.41199900  0.37249700  0.08180600  1
  O  O5  1  0.59438500  0.39175600  0.90935900  1
  O  O6  1  0.40551000  0.60800000  0.09066300  1
  O  O7  1  0.59564900  0.37542900  0.08121600  1
  O  O8  1  0.40424700  0.62432800  0.91880500  1
