# generated using pymatgen
data_ZnH9C11(NO2)2
_symmetry_space_group_name_H-M   'P 1'
_cell_length_a   12.75595100
_cell_length_b   9.05957100
_cell_length_c   8.56348900
_cell_angle_alpha   90.00000000
_cell_angle_beta   95.01884300
_cell_angle_gamma   90.00000000
_symmetry_Int_Tables_number   1
_chemical_formula_structural   ZnH9C11(NO2)2
_chemical_formula_sum   'Zn2 H18 C22 N4 O8'
_cell_volume   985.83203356
_cell_formula_units_Z   2
loop_
 _symmetry_equiv_pos_site_id
 _symmetry_equiv_pos_as_xyz
  1  'x, y, z'
loop_
 _atom_site_type_symbol
 _atom_site_label
 _atom_site_symmetry_multiplicity
 _atom_site_fract_x
 _atom_site_fract_y
 _atom_site_fract_z
 _atom_site_occupancy
  Zn  Zn1  1  0.49644200  0.83676700  0.49935100  1
  Zn  Zn2  1  0.50334900  0.16332800  0.50041300  1
  H  H1  1  0.85778000  0.02117000  0.29443300  1
  H  H2  1  0.85146600  0.01985000  0.79168100  1
  H  H3  1  0.14190600  0.97844300  0.70544200  1
  H  H4  1  0.14795800  0.97976400  0.20818200  1
  H  H5  1  0.57313400  0.94846100  0.01254600  1
  H  H6  1  0.42630600  0.05197500  0.98766000  1
  H  H7  1  0.33493900  0.59317700  0.43238400  1
  H  H8  1  0.33828200  0.35357600  0.51020200  1
  H  H9  1  0.36655500  0.62287600  0.63981100  1
  H  H10  1  0.41604300  0.39525900  0.69273100  1
  H  H11  1  0.47102100  0.63779700  0.24947800  1
  H  H12  1  0.42158800  0.39887700  0.27718400  1
  H  H13  1  0.65270600  0.64004700  0.59462600  1
  H  H14  1  0.66543400  0.40274300  0.53295600  1
  H  H15  1  0.55389200  0.60781900  0.73193900  1
  H  H16  1  0.60055100  0.37681500  0.71109900  1
  H  H17  1  0.60387200  0.60238500  0.33120000  1
  H  H18  1  0.56088100  0.36818300  0.27327900  1
  C  C1  1  0.70745300  0.99284100  0.16714500  1
  C  C2  1  0.81518300  0.01170200  0.18007600  1
  C  C3  1  0.86918200  0.01131700  0.04626900  1
  C  C4  1  0.81341000  0.00953000  0.89910100  1
  C  C5  1  0.70571900  0.99235900  0.88838900  1
  C  C6  1  0.65547600  0.97304300  0.02188700  1
  C  C7  1  0.18443500  0.98803000  0.81984000  1
  C  C8  1  0.29214800  0.00719200  0.83290900  1
  C  C9  1  0.34399600  0.02718700  0.97821400  1
  C  C10  1  0.29371000  0.00767000  0.11164000  1
  C  C11  1  0.18605100  0.99023300  0.10080700  1
  C  C12  1  0.13035400  0.98837300  0.95358000  1
  C  C13  1  0.64135800  0.99641900  0.73886100  1
  C  C14  1  0.35559600  0.00378200  0.69864800  1
  C  C15  1  0.35808900  0.00349800  0.26113600  1
  C  C16  1  0.64416500  0.99634500  0.30157800  1
  C  C17  1  0.39492600  0.57572800  0.53244000  1
  C  C18  1  0.40888900  0.41195400  0.56395900  1
  C  C19  1  0.51957100  0.58379800  0.34673600  1
  C  C20  1  0.49992800  0.41879500  0.34019300  1
  C  C21  1  0.57626700  0.58693000  0.61161400  1
  C  C22  1  0.59242200  0.42279700  0.59115800  1
  N  N1  1  0.98041900  0.01280300  0.06270200  1
  N  N2  1  0.01911600  0.98684300  0.93706300  1
  N  N3  1  0.49437600  0.64209900  0.49740100  1
  N  N4  1  0.50303400  0.35799200  0.49839600  1
  O  O1  1  0.61123900  0.12544000  0.68126400  1
  O  O2  1  0.60277400  0.87155000  0.68272400  1
  O  O3  1  0.38627600  0.87492400  0.64911200  1
  O  O4  1  0.39443800  0.12883300  0.65290400  1
  O  O5  1  0.38793800  0.87376800  0.31857600  1
  O  O6  1  0.39587700  0.12915000  0.31787900  1
  O  O7  1  0.61288000  0.12540300  0.35007100  1
  O  O8  1  0.60508900  0.87117400  0.34695100  1
