# generated using pymatgen
data_Cu3H34C59(ClO6)2
_symmetry_space_group_name_H-M   'P 1'
_cell_length_a   18.86935400
_cell_length_b   18.50222900
_cell_length_c   18.75413600
_cell_angle_alpha   71.45022200
_cell_angle_beta   70.13314400
_cell_angle_gamma   109.86886000
_symmetry_Int_Tables_number   1
_chemical_formula_structural   Cu3H34C59(ClO6)2
_chemical_formula_sum   'Cu6 H68 C118 Cl4 O24'
_cell_volume   5047.58943561
_cell_formula_units_Z   2
loop_
 _symmetry_equiv_pos_site_id
 _symmetry_equiv_pos_as_xyz
  1  'x, y, z'
loop_
 _atom_site_type_symbol
 _atom_site_label
 _atom_site_symmetry_multiplicity
 _atom_site_fract_x
 _atom_site_fract_y
 _atom_site_fract_z
 _atom_site_occupancy
  Cu  Cu1  1  0.92479500  0.99605600  0.57033000  1
  Cu  Cu2  1  0.04103400  0.98690300  0.45413000  1
  Cu  Cu3  1  0.49497300  0.42559900  0.56208500  1
  Cu  Cu4  1  0.50402100  0.55035000  0.43762900  1
  Cu  Cu5  1  0.05928200  0.54821200  0.00082700  1
  Cu  Cu6  1  0.93671300  0.42532400  0.99838200  1
  H  H1  1  0.97216300  0.87680000  0.88769900  1
  H  H2  1  0.55788600  0.54926400  0.18438000  1
  H  H3  1  0.46909100  0.40932800  0.32124500  1
  H  H4  1  0.92242500  0.28908100  0.60286700  1
  H  H5  1  0.81146000  0.26273000  0.55867800  1
  H  H6  1  0.83558000  0.24008000  0.43229000  1
  H  H7  1  0.08317900  0.27277900  0.39231600  1
  H  H8  1  0.05842000  0.29417700  0.51939700  1
  H  H9  1  0.96846100  0.35559800  0.26484000  1
  H  H10  1  0.02034500  0.12009200  0.23960800  1
  H  H11  1  0.92524800  0.09253900  0.16368100  1
  H  H12  1  0.03223700  0.12021600  0.69255100  1
  H  H13  1  0.96273400  0.07703400  0.03293200  1
  H  H14  1  0.09228500  0.19838400  0.89349400  1
  H  H15  1  0.18433400  0.33501200  0.88543900  1
  H  H16  1  0.14552000  0.35270700  0.01513200  1
  H  H17  1  0.75605600  0.12750200  0.36873800  1
  H  H18  1  0.71699200  0.04364400  0.52057700  1
  H  H19  1  0.71031700  0.90091200  0.57312400  1
  H  H20  1  0.78417800  0.92606900  0.32092500  1
  H  H21  1  0.78741600  0.06753200  0.26987500  1
  H  H22  1  0.65176500  0.76622300  0.44631100  1
  H  H23  1  0.21025400  0.02546800  0.64606600  1
  H  H24  1  0.83438000  0.71342700  0.56614500  1
  H  H25  1  0.72189300  0.55400100  0.68507100  1
  H  H26  1  0.73376100  0.42074300  0.72128600  1
  H  H27  1  0.75972000  0.36638500  0.61657600  1
  H  H28  1  0.77551300  0.44691000  0.47436500  1
  H  H29  1  0.76556700  0.58110800  0.43678700  1
  H  H30  1  0.93678400  0.59593800  0.77757100  1
  H  H31  1  0.03571700  0.74458600  0.80459600  1
  H  H32  1  0.97583900  0.72583500  0.64212100  1
  H  H33  1  0.95781400  0.80535500  0.76284700  1
  H  H34  1  0.11034300  0.89454500  0.79068900  1
  H  H35  1  0.35318200  0.11373700  0.48885600  1
  H  H36  1  0.43051700  0.16000800  0.56251300  1
  H  H37  1  0.57398700  0.29381200  0.47846100  1
  H  H38  1  0.56331800  0.33605200  0.24592700  1
  H  H39  1  0.42046600  0.20123400  0.33035900  1
  H  H40  1  0.71503500  0.35657300  0.22636500  1
  H  H41  1  0.77231200  0.60446700  0.28496000  1
  H  H42  1  0.92735200  0.62975600  0.26237500  1
  H  H43  1  0.06566000  0.76997500  0.17642400  1
  H  H44  1  0.12732100  0.85811800  0.01892100  1
  H  H45  1  0.26788000  0.21096500  0.62554400  1
  H  H46  1  0.04936000  0.80652000  0.94791100  1
  H  H47  1  0.90980300  0.66768900  0.03359500  1
  H  H48  1  0.63772900  0.66267800  0.72360900  1
  H  H49  1  0.55974900  0.50973400  0.75499000  1
  H  H50  1  0.42178000  0.45348600  0.75636800  1
  H  H51  1  0.57655400  0.75884200  0.69414800  1
  H  H52  1  0.28170500  0.55675500  0.83409600  1
  H  H53  1  0.22690500  0.43931300  0.64646400  1
  H  H54  1  0.07178300  0.30431100  0.77706200  1
  H  H55  1  0.93669700  0.25126500  0.77148100  1
  H  H56  1  0.21602300  0.26954200  0.37925200  1
  H  H57  1  0.87686100  0.34891600  0.74021900  1
  H  H58  1  0.95303600  0.50026000  0.71334800  1
  H  H59  1  0.08844900  0.55406200  0.71864800  1
  H  H60  1  0.69435700  0.85830600  0.97876700  1
  H  H61  1  0.85445100  0.11009700  0.93952400  1
  H  H62  1  0.98387800  0.11628400  0.84137900  1
  H  H63  1  0.39255100  0.84303800  0.54859400  1
  H  H64  1  0.34062000  0.81039300  0.79947000  1
  H  H65  1  0.40213800  0.71271300  0.81558000  1
  H  H66  1  0.24121700  0.42524700  0.35256000  1
  H  H67  1  0.33022800  0.56483100  0.21511100  1
  H  H68  1  0.48870400  0.62751900  0.13105300  1
  C  C1  1  0.98883300  0.11000000  0.39173900  1
  C  C2  1  0.01432400  0.93311800  0.82297000  1
  C  C3  1  0.33698000  0.53825700  0.72742400  1
  C  C4  1  0.04557200  0.34742200  0.76381900  1
  C  C5  1  0.96964000  0.31749000  0.76072400  1
  C  C6  1  0.93612900  0.37222800  0.74314500  1
  C  C7  1  0.97874300  0.45703900  0.72834300  1
  C  C8  1  0.05459300  0.48703800  0.73163200  1
  C  C9  1  0.08771700  0.43189300  0.75045400  1
  C  C10  1  0.91272100  0.99011400  0.85468900  1
  C  C11  1  0.83082100  0.91744500  0.89378200  1
  C  C12  1  0.75823700  0.91457800  0.94901400  1
  C  C13  1  0.25804200  0.22424100  0.57030000  1
  C  C14  1  0.76660100  0.98347900  0.96565300  1
  C  C15  1  0.84774000  0.05590600  0.92662800  1
  C  C16  1  0.92045500  0.05937300  0.87106600  1
  C  C17  1  0.42993000  0.72063600  0.69210600  1
  C  C18  1  0.42821400  0.75847000  0.61657200  1
  C  C19  1  0.39368400  0.81343100  0.60773800  1
  C  C20  1  0.36154700  0.83153500  0.67361300  1
  C  C21  1  0.36506800  0.79564500  0.74803500  1
  C  C22  1  0.39983300  0.74097300  0.75689500  1
  C  C23  1  0.31159700  0.30635100  0.49681200  1
  C  C24  1  0.29533600  0.32379300  0.42782800  1
  C  C25  1  0.22703600  0.25800600  0.43369900  1
  C  C26  1  0.17297800  0.17704400  0.50793000  1
  C  C27  1  0.18760300  0.16069600  0.57703000  1
  C  C28  1  0.31080300  0.45214900  0.31593700  1
  C  C29  1  0.36076700  0.53076700  0.23873300  1
  C  C30  1  0.44956900  0.56592000  0.19161300  1
  C  C31  1  0.10296100  0.10832700  0.51097100  1
  C  C32  1  0.48832600  0.52215200  0.22154400  1
  C  C33  1  0.43840200  0.44359400  0.29874800  1
  C  C34  1  0.34958000  0.40876600  0.34694000  1
  C  C35  1  0.87089800  0.26425100  0.52248700  1
  C  C36  1  0.88455100  0.25163600  0.45143700  1
  C  C37  1  0.95999800  0.25267100  0.40556800  1
  C  C38  1  0.02279900  0.26901500  0.42963200  1
  C  C39  1  0.00920100  0.28174700  0.50059100  1
  C  C40  1  0.93308300  0.27903000  0.54725800  1
  C  C41  1  0.97894100  0.30311500  0.25969500  1
  C  C42  1  0.97568700  0.87203000  0.63283700  1
  C  C43  1  0.99642100  0.29876800  0.18401300  1
  C  C44  1  0.01031700  0.23176800  0.17700400  1
  C  C45  1  0.00830300  0.17162300  0.24535300  1
  C  C46  1  0.99125900  0.17632800  0.32094500  1
  C  C47  1  0.97544700  0.24222300  0.32845700  1
  C  C48  1  0.98127400  0.14682400  0.10239600  1
  C  C49  1  0.00243300  0.13784300  0.02897200  1
  C  C50  1  0.07493800  0.20583200  0.95083500  1
  C  C51  1  0.12617600  0.28276900  0.94621000  1
  C  C52  1  0.10405500  0.29262700  0.01917900  1
  C  C53  1  0.86275400  0.87445600  0.51387400  1
  C  C54  1  0.03102700  0.22476400  0.09759500  1
  C  C55  1  0.73211600  0.01791700  0.47666000  1
  C  C56  1  0.72933000  0.93801400  0.50585700  1
  C  C57  1  0.74961900  0.90521600  0.44978700  1
  C  C58  1  0.76939300  0.95154200  0.36514400  1
  C  C59  1  0.77160900  0.03121900  0.33619700  1
  C  C60  1  0.75376600  0.06480100  0.39167500  1
  C  C61  1  0.69173900  0.75414400  0.47284600  1
  C  C62  1  0.68504800  0.67221100  0.50239900  1
  C  C63  1  0.73638700  0.65677700  0.53670900  1
  C  C64  1  0.99165800  0.99602500  0.79548600  1
  C  C65  1  0.79125100  0.72304700  0.54314000  1
  C  C66  1  0.79540800  0.80363200  0.51636900  1
  C  C67  1  0.74553300  0.81963500  0.48072700  1
  C  C68  1  0.73321200  0.53063600  0.63859300  1
  C  C69  1  0.73978600  0.45558000  0.65915200  1
  C  C70  1  0.75433500  0.42509200  0.60048700  1
  C  C71  1  0.76298500  0.47009300  0.52091200  1
  C  C72  1  0.75645600  0.54515700  0.50024600  1
  C  C73  1  0.74001000  0.57499300  0.55962100  1
  C  C74  1  0.96509700  0.66164200  0.76947000  1
  C  C75  1  0.04810800  0.06936800  0.71393800  1
  C  C76  1  0.99948100  0.67767500  0.81807900  1
  C  C77  1  0.97304000  0.73316400  0.69793500  1
  C  C78  1  0.96994100  0.80233900  0.70348100  1
  C  C79  1  0.61112900  0.47716000  0.38811300  1
  C  C80  1  0.38068600  0.37333000  0.49723100  1
  C  C81  1  0.38772300  0.49772500  0.61267500  1
  C  C82  1  0.61994200  0.60311400  0.50023700  1
  C  C83  1  0.11691200  0.49220100  0.87518700  1
  C  C84  1  0.99969400  0.36631000  0.11372700  1
  C  C85  1  0.87907000  0.48537900  0.12016900  1
  C  C86  1  0.12592300  0.07939000  0.65983300  1
  C  C87  1  0.99727200  0.60743200  0.88478900  1
  C  C88  1  0.45949700  0.19917300  0.49300800  1
  C  C89  1  0.53973800  0.27512800  0.44574300  1
  C  C90  1  0.57669400  0.32589900  0.35699200  1
  C  C91  1  0.53448900  0.29769000  0.31551500  1
  C  C92  1  0.45402100  0.22203900  0.36290800  1
  C  C93  1  0.41627000  0.17302700  0.45172700  1
  C  C94  1  0.72829200  0.41201500  0.23798800  1
  C  C95  1  0.81095400  0.48555600  0.18816600  1
  C  C96  1  0.82703100  0.55556400  0.20559600  1
  C  C97  1  0.14842800  0.01674200  0.68760200  1
  C  C98  1  0.76090600  0.54948400  0.27266800  1
  C  C99  1  0.67923100  0.47583400  0.32254100  1
  C  C100  1  0.66264400  0.40601000  0.30568100  1
  C  C101  1  0.95379000  0.66847300  0.19325900  1
  C  C102  1  0.03160500  0.74715900  0.14504000  1
  C  C103  1  0.06614000  0.79657400  0.05680700  1
  C  C104  1  0.02237800  0.76770400  0.01697500  1
  C  C105  1  0.94423500  0.68937900  0.06515400  1
  C  C106  1  0.91054800  0.63854000  0.15327200  1
  C  C107  1  0.53416700  0.55297600  0.73956800  1
  C  C108  1  0.09232900  0.94335000  0.76887900  1
  C  C109  1  0.45707200  0.52184300  0.73891500  1
  C  C110  1  0.42321500  0.57615100  0.71965000  1
  C  C111  1  0.46654300  0.66226300  0.70376500  1
  C  C112  1  0.54334900  0.69246800  0.70543500  1
  C  C113  1  0.57759200  0.63844200  0.72235900  1
  C  C114  1  0.26912600  0.53387000  0.79111700  1
  C  C115  1  0.18598700  0.49745100  0.80300100  1
  C  C116  1  0.17110700  0.46493300  0.74870100  1
  C  C117  1  0.23820400  0.46543400  0.68800800  1
  C  C118  1  0.32047100  0.50102900  0.67727900  1
  Cl  Cl1  1  0.81579600  0.83069700  0.87038200  1
  Cl  Cl2  1  0.67402100  0.97942300  0.03547200  1
  Cl  Cl3  1  0.47376900  0.74175200  0.52939400  1
  Cl  Cl4  1  0.31781100  0.90140500  0.66204800  1
  O  O1  1  0.92085100  0.06757700  0.47103100  1
  O  O2  1  0.57134200  0.51745900  0.36263400  1
  O  O3  1  0.42132100  0.34746700  0.53582700  1
  O  O4  1  0.39683200  0.45535900  0.46263200  1
  O  O5  1  0.39346900  0.42567900  0.63693100  1
  O  O6  1  0.43530100  0.56385400  0.53199800  1
  O  O7  1  0.57024600  0.52318000  0.56881700  1
  O  O8  1  0.60989000  0.62605400  0.43171100  1
  O  O9  1  0.14077400  0.54031600  0.91012500  1
  O  O10  1  0.03484900  0.43847200  0.90398900  1
  O  O11  1  0.05508500  0.44892400  0.08411900  1
  O  O12  1  0.05401800  0.09387700  0.37222900  1
  O  O13  1  0.94338900  0.34253900  0.08791600  1
  O  O14  1  0.96095200  0.53435800  0.09556700  1
  O  O15  1  0.85495200  0.43429200  0.08788100  1
  O  O16  1  0.05210300  0.63113800  0.91206700  1
  O  O17  1  0.94172700  0.52470900  0.91415800  1
  O  O18  1  0.02525000  0.10096100  0.54249500  1
  O  O19  1  0.12167100  0.05868000  0.47932700  1
  O  O20  1  0.94680800  0.92311300  0.65153800  1
  O  O21  1  0.00968700  0.88113600  0.55406500  1
  O  O22  1  0.84242700  0.88968200  0.58019300  1
  O  O23  1  0.94235800  0.91655400  0.44697900  1
  O  O24  1  0.59787900  0.44480000  0.46799900  1
