# generated using pymatgen
data_CuH16C27(NO4)2
_symmetry_space_group_name_H-M   'P 1'
_cell_length_a   23.33188500
_cell_length_b   10.89359500
_cell_length_c   9.46076300
_cell_angle_alpha   89.98646200
_cell_angle_beta   89.98882700
_cell_angle_gamma   90.01229800
_symmetry_Int_Tables_number   1
_chemical_formula_structural   CuH16C27(NO4)2
_chemical_formula_sum   'Cu2 H32 C54 N4 O16'
_cell_volume   2404.62404265
_cell_formula_units_Z   2
loop_
 _symmetry_equiv_pos_site_id
 _symmetry_equiv_pos_as_xyz
  1  'x, y, z'
loop_
 _atom_site_type_symbol
 _atom_site_label
 _atom_site_symmetry_multiplicity
 _atom_site_fract_x
 _atom_site_fract_y
 _atom_site_fract_z
 _atom_site_occupancy
  Cu  Cu1  1  0.49954200  0.48325800  0.66881500  1
  Cu  Cu2  1  0.49869800  0.48588800  0.38624400  1
  H  H1  1  0.94391200  0.18654400  0.55865200  1
  H  H2  1  0.04713700  0.18081700  0.55840200  1
  H  H3  1  0.05567800  0.79015600  0.53199700  1
  H  H4  1  0.21735500  0.59166000  0.71391100  1
  H  H5  1  0.32161300  0.58434000  0.70993000  1
  H  H6  1  0.21076600  0.35526600  0.35644200  1
  H  H7  1  0.78506800  0.55118700  0.31276500  1
  H  H8  1  0.68029900  0.54931400  0.30884900  1
  H  H9  1  0.67903300  0.43758800  0.74268300  1
  H  H10  1  0.78333900  0.43743100  0.74372400  1
  H  H11  1  0.48857900  0.09480500  0.30657400  1
  H  H12  1  0.56537900  0.18463400  0.76441800  1
  H  H13  1  0.55691800  0.08834200  0.99260900  1
  H  H14  1  0.50314800  0.89576100  0.01777800  1
  H  H15  1  0.46523600  0.79443900  0.81428200  1
  H  H16  1  0.48206100  0.87339800  0.31103900  1
  H  H17  1  0.43979800  0.34651600  0.15737300  1
  H  H18  1  0.57024700  0.66684500  0.28085500  1
  H  H19  1  0.63039700  0.79814400  0.15585000  1
  H  H20  1  0.63376500  0.79111600  0.89785700  1
  H  H21  1  0.57691800  0.65368900  0.77332000  1
  H  H22  1  0.44064100  0.34348500  0.89918900  1
  H  H23  1  0.86573900  0.00194300  0.60285400  1
  H  H24  1  0.92114400  0.01944100  0.73626900  1
  H  H25  1  0.80589800  0.88747900  0.77463700  1
  H  H26  1  0.82405700  0.03876100  0.84013400  1
  H  H27  1  0.86116400  0.90498700  0.90749700  1
  H  H28  1  0.31693800  0.09812000  0.18758900  1
  H  H29  1  0.35732000  0.21213700  0.08939700  1
  H  H30  1  0.23102300  0.14411200  0.04294100  1
  H  H31  1  0.29089700  0.09737900  0.93365700  1
  H  H32  1  0.27133500  0.25794400  0.94499200  1
  C  C1  1  0.50557900  0.24843400  0.52514200  1
  C  C2  1  0.38922500  0.46890800  0.53005300  1
  C  C3  1  0.49130800  0.72143500  0.53185900  1
  C  C4  1  0.60936900  0.49229700  0.52519900  1
  C  C5  1  0.88080700  0.60066100  0.52099800  1
  C  C6  1  0.87950000  0.38648900  0.54583700  1
  C  C7  1  0.93858300  0.38317200  0.54610500  1
  C  C8  1  0.96924700  0.49124700  0.53912400  1
  C  C9  1  0.94048500  0.60235800  0.53324500  1
  C  C10  1  0.96707900  0.27220300  0.55351300  1
  C  C11  1  0.02599500  0.26892800  0.55307400  1
  C  C12  1  0.05689300  0.37678800  0.54493000  1
  C  C13  1  0.02847200  0.48747800  0.53845200  1
  C  C14  1  0.05969100  0.59418400  0.53093000  1
  C  C15  1  0.03154800  0.70555100  0.52970600  1
  C  C16  1  0.97244200  0.71095200  0.53608300  1
  C  C17  1  0.11614000  0.37455700  0.54418100  1
  C  C18  1  0.11900700  0.58908000  0.52869800  1
  C  C19  1  0.23880700  0.53823300  0.63346600  1
  C  C20  1  0.29777400  0.53216300  0.63257600  1
  C  C21  1  0.32633700  0.46333200  0.53204100  1
  C  C22  1  0.29476600  0.39651100  0.43340200  1
  C  C23  1  0.23562600  0.40577800  0.43323800  1
  C  C24  1  0.20747400  0.47580400  0.53304700  1
  C  C25  1  0.76163300  0.52651500  0.40718200  1
  C  C26  1  0.70246500  0.52475700  0.40506600  1
  C  C27  1  0.67218900  0.49360300  0.52555000  1
  C  C28  1  0.70164500  0.46299000  0.64737600  1
  C  C29  1  0.76067200  0.46220300  0.64823600  1
  C  C30  1  0.79081700  0.49465800  0.52866200  1
  C  C31  1  0.54120100  0.10046500  0.77107000  1
  C  C32  1  0.53844700  0.04442900  0.90084300  1
  C  C33  1  0.50938900  0.93599900  0.91447800  1
  C  C34  1  0.49003900  0.87606700  0.79591400  1
  C  C35  1  0.49865400  0.92527500  0.66140900  1
  C  C36  1  0.51577000  0.04715200  0.65294200  1
  C  C37  1  0.50775800  0.11234900  0.52723300  1
  C  C38  1  0.49431500  0.04768900  0.40608400  1
  C  C39  1  0.48905500  0.92147200  0.40939900  1
  C  C40  1  0.49038900  0.85803600  0.53620000  1
  C  C41  1  0.56856000  0.65512100  0.16992600  1
  C  C42  1  0.60408400  0.73338000  0.09855700  1
  C  C43  1  0.60591100  0.72953600  0.95543300  1
  C  C44  1  0.57204700  0.64783100  0.88424100  1
  C  C45  1  0.53528600  0.56601600  0.95358900  1
  C  C46  1  0.53385100  0.56932800  0.10083300  1
  C  C47  1  0.46690700  0.41032400  0.10121000  1
  C  C48  1  0.46768900  0.40807900  0.95455100  1
  C  C49  1  0.94693000  0.83233600  0.56155700  1
  C  C50  1  0.88590700  0.96001700  0.69742600  1
  C  C51  1  0.84127100  0.94693600  0.81262800  1
  C  C52  1  0.32126100  0.30800500  0.33550500  1
  C  C53  1  0.31425900  0.18607700  0.12883400  1
  C  C54  1  0.27419900  0.17032500  0.00427600  1
  N  N1  1  0.85186400  0.49397000  0.53117400  1
  N  N2  1  0.14627600  0.47998700  0.53508800  1
  N  N3  1  0.49897300  0.49152300  0.17415200  1
  N  N4  1  0.50211500  0.48416600  0.88082000  1
  O  O1  1  0.50005000  0.30525800  0.64681800  1
  O  O2  1  0.50275600  0.30708400  0.40290300  1
  O  O3  1  0.41621600  0.47401000  0.65203700  1
  O  O4  1  0.41578300  0.46909700  0.40730300  1
  O  O5  1  0.49498200  0.66119800  0.64962500  1
  O  O6  1  0.49050800  0.66346500  0.41046200  1
  O  O7  1  0.58269500  0.48316500  0.64543300  1
  O  O8  1  0.58202500  0.49301400  0.40519900  1
  O  O9  1  0.85104000  0.70358800  0.49447700  1
  O  O10  1  0.84915100  0.28195500  0.55513400  1
  O  O11  1  0.14391600  0.26698700  0.55610300  1
  O  O12  1  0.14968400  0.69302600  0.51713800  1
  O  O13  1  0.96635500  0.92236700  0.50170400  1
  O  O14  1  0.90712000  0.84635400  0.66375700  1
  O  O15  1  0.36519000  0.25438700  0.36813800  1
  O  O16  1  0.29346100  0.27628800  0.21598300  1
