# generated using pymatgen
data_ZnH20C17NO4
_symmetry_space_group_name_H-M   'P 1'
_cell_length_a   10.83163300
_cell_length_b   12.95354600
_cell_length_c   14.08572200
_cell_angle_alpha   88.90969200
_cell_angle_beta   90.01454900
_cell_angle_gamma   93.63897300
_symmetry_Int_Tables_number   1
_chemical_formula_structural   ZnH20C17NO4
_chemical_formula_sum   'Zn2 H40 C34 N2 O8'
_cell_volume   1971.99754735
_cell_formula_units_Z   2
loop_
 _symmetry_equiv_pos_site_id
 _symmetry_equiv_pos_as_xyz
  1  'x, y, z'
loop_
 _atom_site_type_symbol
 _atom_site_label
 _atom_site_symmetry_multiplicity
 _atom_site_fract_x
 _atom_site_fract_y
 _atom_site_fract_z
 _atom_site_occupancy
  Zn  Zn1  1  0.48983900  0.38892100  0.48636400  1
  Zn  Zn2  1  0.50322600  0.62316700  0.50150800  1
  H  H1  1  0.86296300  0.34816800  0.54193800  1
  H  H2  1  0.10162600  0.39851000  0.61436900  1
  H  H3  1  0.89335300  0.41213800  0.37154700  1
  H  H4  1  0.10292000  0.44093300  0.34816600  1
  H  H5  1  0.92112400  0.67470700  0.47958400  1
  H  H6  1  0.89876000  0.63135500  0.59881000  1
  H  H7  1  0.10300000  0.59937100  0.61453400  1
  H  H8  1  0.12120000  0.66910400  0.50353100  1
  H  H9  1  0.09844800  0.57787700  0.35739600  1
  H  H10  1  0.48762900  0.38795300  0.00301200  1
  H  H11  1  0.49676600  0.62392700  0.98487100  1
  H  H12  1  0.57325300  0.01316100  0.58494000  1
  H  H13  1  0.41990400  0.99890600  0.40287900  1
  H  H14  1  0.91413700  0.64473800  0.32350200  1
  H  H15  1  0.77156200  0.56657800  0.32196700  1
  H  H16  1  0.84884900  0.45239200  0.20545200  1
  H  H17  1  0.00039100  0.51922900  0.20705600  1
  H  H18  1  0.91459900  0.68059400  0.15186800  1
  H  H19  1  0.75992100  0.61945600  0.15440400  1
  H  H20  1  0.97640800  0.55347600  0.03327400  1
  H  H21  1  0.84837900  0.62523500  0.99192300  1
  H  H22  1  0.82063200  0.49350700  0.03511000  1
  H  H23  1  0.79857400  0.47409300  0.67247300  1
  H  H24  1  0.96056500  0.49230600  0.69784800  1
  H  H25  1  0.97287400  0.30669700  0.72822600  1
  H  H26  1  0.81271200  0.28239200  0.69265200  1
  H  H27  1  0.74706500  0.39145800  0.82357200  1
  H  H28  1  0.90689800  0.41836100  0.85723800  1
  H  H29  1  0.76895900  0.20357700  0.85280100  1
  H  H30  1  0.80494000  0.27841900  0.95739300  1
  H  H31  1  0.92859200  0.23096400  0.88756600  1
  H  H32  1  0.14767700  0.30155200  0.44574900  1
  H  H33  1  0.98692100  0.28353700  0.44391300  1
  H  H34  1  0.98382400  0.19616200  0.59901500  1
  H  H35  1  0.14888800  0.22559500  0.61286500  1
  H  H36  1  0.18791800  0.12385800  0.46974800  1
  H  H37  1  0.02324400  0.09696700  0.45453000  1
  H  H38  1  0.17625200  0.03634000  0.62843700  1
  H  H39  1  0.12053700  0.95125000  0.53534900  1
  H  H40  1  0.01155700  0.00854900  0.61249400  1
  C  C1  1  0.49501400  0.48823100  0.67911100  1
  C  C2  1  0.73878800  0.50908400  0.49450100  1
  C  C3  1  0.49744800  0.52383900  0.30876200  1
  C  C4  1  0.25362700  0.50245300  0.49314800  1
  C  C5  1  0.91702700  0.42013900  0.56045500  1
  C  C6  1  0.05439100  0.40413400  0.54490800  1
  C  C7  1  0.92440000  0.49162500  0.39201600  1
  C  C8  1  0.93727700  0.61003700  0.52952900  1
  C  C9  1  0.87760900  0.50866400  0.49403700  1
  C  C10  1  0.11379200  0.50050500  0.49188700  1
  C  C11  1  0.06577700  0.50292800  0.39081700  1
  C  C12  1  0.07552800  0.59952700  0.53873300  1
  C  C13  1  0.49596800  0.53328100  0.20709400  1
  C  C14  1  0.49367200  0.54846200  0.01970600  1
  C  C15  1  0.49025100  0.46340700  0.96817900  1
  C  C16  1  0.49142800  0.47153400  0.86621000  1
  C  C17  1  0.49465700  0.54039300  0.12167200  1
  C  C18  1  0.49295600  0.47872200  0.78078400  1
  C  C19  1  0.46938600  0.03505100  0.46167500  1
  C  C20  1  0.52382400  0.97704900  0.52610300  1
  C  C21  1  0.51702500  0.86635300  0.51785600  1
  C  C22  1  0.47590100  0.14573600  0.46999500  1
  C  C23  1  0.87315700  0.56474100  0.31637800  1
  C  C24  1  0.90017000  0.52796400  0.21686400  1
  C  C25  1  0.85903100  0.60636900  0.14387600  1
  C  C26  1  0.87742100  0.56686700  0.04460000  1
  C  C27  1  0.88880300  0.43918600  0.66580700  1
  C  C28  1  0.88086800  0.33911100  0.72451900  1
  C  C29  1  0.84023300  0.36076000  0.82492300  1
  C  C30  1  0.83545700  0.26182000  0.88441200  1
  C  C31  1  0.06586600  0.30082600  0.49207000  1
  C  C32  1  0.07304400  0.20979700  0.56122100  1
  C  C33  1  0.09787000  0.11293600  0.50715400  1
  C  C34  1  0.10175300  0.02138900  0.57550600  1
  N  N1  1  0.48098500  0.23480700  0.47651400  1
  N  N2  1  0.51163900  0.77727400  0.51137600  1
  O  O1  1  0.49078800  0.40357200  0.62933000  1
  O  O2  1  0.50007000  0.58136900  0.64083300  1
  O  O3  1  0.67542700  0.41979200  0.48765800  1
  O  O4  1  0.68598900  0.59747200  0.50062600  1
  O  O5  1  0.49183400  0.43068600  0.34703500  1
  O  O6  1  0.50307200  0.60853800  0.35854000  1
  O  O7  1  0.30754500  0.41502600  0.48813200  1
  O  O8  1  0.31740400  0.59202000  0.49927300  1
