# generated using pymatgen
data_Zn3H19C39NO12
_symmetry_space_group_name_H-M   'P 1'
_cell_length_a   41.39476900
_cell_length_b   35.55033800
_cell_length_c   22.06438000
_cell_angle_alpha   90.00000000
_cell_angle_beta   120.80967500
_cell_angle_gamma   90.00000000
_symmetry_Int_Tables_number   1
_chemical_formula_structural   Zn3H19C39NO12
_chemical_formula_sum   'Zn12 H76 C156 N4 O48'
_cell_volume   27887.53247837
_cell_formula_units_Z   4
loop_
 _symmetry_equiv_pos_site_id
 _symmetry_equiv_pos_as_xyz
  1  'x, y, z'
loop_
 _atom_site_type_symbol
 _atom_site_label
 _atom_site_symmetry_multiplicity
 _atom_site_fract_x
 _atom_site_fract_y
 _atom_site_fract_z
 _atom_site_occupancy
  Zn  Zn1  1  0.50029100  0.53020000  0.00033100  1
  Zn  Zn2  1  0.00029100  0.03020000  0.00033100  1
  Zn  Zn3  1  0.50011900  0.44499600  0.99999800  1
  Zn  Zn4  1  0.00011900  0.94499600  0.99999800  1
  Zn  Zn5  1  0.54213400  0.50462100  0.54701600  1
  Zn  Zn6  1  0.45732600  0.50475700  0.45265100  1
  Zn  Zn7  1  0.04213400  0.00462100  0.54701600  1
  Zn  Zn8  1  0.95732600  0.00475700  0.45265100  1
  Zn  Zn9  1  0.00069800  0.50415800  0.43213400  1
  Zn  Zn10  1  0.99962200  0.50450200  0.56821700  1
  Zn  Zn11  1  0.50069800  0.00415800  0.43213400  1
  Zn  Zn12  1  0.49962200  0.00450200  0.56821700  1
  H  H1  1  0.44053600  0.69302400  0.43859300  1
  H  H2  1  0.56001500  0.69327500  0.56502000  1
  H  H3  1  0.94053600  0.19302400  0.43859300  1
  H  H4  1  0.06001500  0.19327500  0.56502000  1
  H  H5  1  0.54184100  0.52779700  0.73803300  1
  H  H6  1  0.45649000  0.52619000  0.26075400  1
  H  H7  1  0.04184100  0.02779700  0.73803300  1
  H  H8  1  0.95649000  0.02619000  0.26075400  1
  H  H9  1  0.52105100  0.54353700  0.82832000  1
  H  H10  1  0.47641300  0.54346900  0.16985500  1
  H  H11  1  0.02105100  0.04353700  0.82832000  1
  H  H12  1  0.97641300  0.04346900  0.16985500  1
  H  H13  1  0.50187700  0.46027500  0.79361400  1
  H  H14  1  0.49994400  0.46125900  0.20772000  1
  H  H15  1  0.00187700  0.96027500  0.79361400  1
  H  H16  1  0.99994400  0.96125900  0.20772000  1
  H  H17  1  0.18805500  0.49608000  0.78133200  1
  H  H18  1  0.81223400  0.49824500  0.21861500  1
  H  H19  1  0.68805500  0.99608000  0.78133200  1
  H  H20  1  0.31223400  0.99824500  0.21861500  1
  H  H21  1  0.11962300  0.50079000  0.71531300  1
  H  H22  1  0.88065300  0.50324100  0.28488000  1
  H  H23  1  0.61962300  0.00079000  0.71531300  1
  H  H24  1  0.38065300  0.00324100  0.28488000  1
  H  H25  1  0.12081100  0.50355200  0.52234200  1
  H  H26  1  0.87958200  0.50022600  0.47795700  1
  H  H27  1  0.62081100  0.00355200  0.52234200  1
  H  H28  1  0.37958200  0.00022600  0.47795700  1
  H  H29  1  0.18926400  0.49882200  0.58969200  1
  H  H30  1  0.81115700  0.49525200  0.41037500  1
  H  H31  1  0.68926400  0.99882200  0.58969200  1
  H  H32  1  0.31115700  0.99525200  0.41037500  1
  H  H33  1  0.31023700  0.43097600  0.80393100  1
  H  H34  1  0.69053300  0.42977600  0.19083300  1
  H  H35  1  0.81023700  0.93097600  0.80393100  1
  H  H36  1  0.19053300  0.92977600  0.19083300  1
  H  H37  1  0.37896100  0.42898400  0.87331900  1
  H  H38  1  0.62182000  0.42746200  0.12163600  1
  H  H39  1  0.87896100  0.92898400  0.87331900  1
  H  H40  1  0.12182000  0.92746200  0.12163600  1
  H  H41  1  0.38142600  0.54947100  0.87852400  1
  H  H42  1  0.61858500  0.54782900  0.12701000  1
  H  H43  1  0.88142600  0.04947100  0.87852400  1
  H  H44  1  0.11858500  0.04782900  0.12701000  1
  H  H45  1  0.31305300  0.55063100  0.80946900  1
  H  H46  1  0.68696100  0.54931000  0.19580200  1
  H  H47  1  0.81305300  0.05063100  0.80946900  1
  H  H48  1  0.18696100  0.04931000  0.19580200  1
  H  H49  1  0.44026800  0.62442700  0.43798100  1
  H  H50  1  0.56059900  0.62469000  0.56531000  1
  H  H51  1  0.94026800  0.12442700  0.43798100  1
  H  H52  1  0.06059900  0.12469000  0.56531000  1
  H  H53  1  0.99876000  0.69302600  0.40077800  1
  H  H54  1  0.00080500  0.69299400  0.59558000  1
  H  H55  1  0.49876000  0.19302600  0.40077800  1
  H  H56  1  0.50080500  0.19299400  0.59558000  1
  H  H57  1  0.99898300  0.62441700  0.40029500  1
  H  H58  1  0.00104100  0.62438800  0.59643700  1
  H  H59  1  0.49898300  0.12441700  0.40029500  1
  H  H60  1  0.50104100  0.12438800  0.59643700  1
  H  H61  1  0.43961100  0.31584500  0.43372700  1
  H  H62  1  0.55900100  0.31624200  0.56218600  1
  H  H63  1  0.93961100  0.81584500  0.43372700  1
  H  H64  1  0.05900100  0.81624200  0.56218600  1
  H  H65  1  0.43895600  0.38445400  0.43339900  1
  H  H66  1  0.55917100  0.38484500  0.56273800  1
  H  H67  1  0.93895600  0.88445400  0.43339900  1
  H  H68  1  0.05917100  0.88484500  0.56273800  1
  H  H69  1  0.00121100  0.31585100  0.59927700  1
  H  H70  1  0.99909300  0.31585800  0.40440500  1
  H  H71  1  0.50121100  0.81585100  0.59927700  1
  H  H72  1  0.49909300  0.81585800  0.40440500  1
  H  H73  1  0.00124600  0.38444400  0.60000100  1
  H  H74  1  0.99911300  0.38445000  0.40374200  1
  H  H75  1  0.50124600  0.88444400  0.60000100  1
  H  H76  1  0.49911300  0.88445000  0.40374200  1
  C  C1  1  0.42656000  0.48857400  0.92351500  1
  C  C2  1  0.57384100  0.48679500  0.07681800  1
  C  C3  1  0.92656000  0.98857400  0.92351500  1
  C  C4  1  0.07384100  0.98679500  0.07681800  1
  C  C5  1  0.50390500  0.48691700  0.88540400  1
  C  C6  1  0.49651800  0.48819100  0.11492400  1
  C  C7  1  0.00390500  0.98691700  0.88540400  1
  C  C8  1  0.99651800  0.98819100  0.11492400  1
  C  C9  1  0.46683000  0.67784000  0.46636200  1
  C  C10  1  0.53378900  0.67798100  0.53721500  1
  C  C11  1  0.96683000  0.17784000  0.46636200  1
  C  C12  1  0.03378900  0.17798100  0.53721500  1
  C  C13  1  0.00018400  0.38946000  0.50187600  1
  C  C14  1  0.50018400  0.88946000  0.50187600  1
  C  C15  1  0.50019300  0.73757200  0.50183100  1
  C  C16  1  0.00019300  0.23757200  0.50183100  1
  C  C17  1  0.50044400  0.61954300  0.50163100  1
  C  C18  1  0.00044400  0.11954300  0.50163100  1
  C  C19  1  0.51648400  0.51673100  0.73426200  1
  C  C20  1  0.48237500  0.51651400  0.26492400  1
  C  C21  1  0.01648400  0.01673100  0.73426200  1
  C  C22  1  0.98237500  0.01651400  0.26492400  1
  C  C23  1  0.48796200  0.50518200  0.67212500  1
  C  C24  1  0.51144700  0.50629000  0.32748500  1
  C  C25  1  0.98796200  0.00518200  0.67212500  1
  C  C26  1  0.01144700  0.00629000  0.32748500  1
  C  C27  1  0.51333200  0.51791200  0.79740700  1
  C  C28  1  0.48547200  0.51817600  0.20174500  1
  C  C29  1  0.01333200  0.01791200  0.79740700  1
  C  C30  1  0.98547200  0.01817600  0.20174500  1
  C  C31  1  0.50571600  0.48667900  0.82108800  1
  C  C32  1  0.49472700  0.48754000  0.17925300  1
  C  C33  1  0.00571600  0.98667900  0.82108800  1
  C  C34  1  0.99472700  0.98754000  0.17925300  1
  C  C35  1  0.17314900  0.49775500  0.72440200  1
  C  C36  1  0.82716400  0.49872100  0.27562500  1
  C  C37  1  0.67314900  0.99775500  0.72440200  1
  C  C38  1  0.32716400  0.99872100  0.27562500  1
  C  C39  1  0.13444400  0.50050600  0.68681100  1
  C  C40  1  0.86585900  0.50162300  0.31335700  1
  C  C41  1  0.63444400  0.00050600  0.68681100  1
  C  C42  1  0.36585900  0.00162300  0.31335700  1
  C  C43  1  0.11514900  0.50258100  0.61388800  1
  C  C44  1  0.88518200  0.50216200  0.38637600  1
  C  C45  1  0.61514900  0.00258100  0.61388800  1
  C  C46  1  0.38518200  0.00216200  0.38637600  1
  C  C47  1  0.13511300  0.50204600  0.57921700  1
  C  C48  1  0.86525900  0.49994300  0.42101400  1
  C  C49  1  0.63511300  0.00204600  0.57921700  1
  C  C50  1  0.36525900  0.99994300  0.42101400  1
  C  C51  1  0.17382800  0.49929200  0.61705500  1
  C  C52  1  0.82656000  0.49704500  0.38304000  1
  C  C53  1  0.67382800  0.99929200  0.61705500  1
  C  C54  1  0.32656000  0.99704500  0.38304000  1
  C  C55  1  0.19286400  0.49700800  0.68961100  1
  C  C56  1  0.80749400  0.49629400  0.31037500  1
  C  C57  1  0.69286400  0.99700800  0.68961100  1
  C  C58  1  0.30749400  0.99629400  0.31037500  1
  C  C59  1  0.23318000  0.49423900  0.72899400  1
  C  C60  1  0.76719300  0.49335200  0.27088900  1
  C  C61  1  0.73318000  0.99423900  0.72899400  1
  C  C62  1  0.26719300  0.99335200  0.27088900  1
  C  C63  1  0.26704500  0.49234200  0.76233000  1
  C  C64  1  0.73333700  0.49130100  0.23755400  1
  C  C65  1  0.76704500  0.99234200  0.76233000  1
  C  C66  1  0.23333700  0.99130100  0.23755400  1
  C  C67  1  0.32606200  0.45692500  0.82037700  1
  C  C68  1  0.67454300  0.45562300  0.17675100  1
  C  C69  1  0.82606200  0.95692500  0.82037700  1
  C  C70  1  0.17454300  0.95562300  0.17675100  1
  C  C71  1  0.36489600  0.45592600  0.85959100  1
  C  C72  1  0.63571400  0.45444200  0.13766500  1
  C  C73  1  0.86489600  0.95592600  0.85959100  1
  C  C74  1  0.13571400  0.95444200  0.13766500  1
  C  C75  1  0.38528500  0.48907400  0.88107200  1
  C  C76  1  0.61511300  0.48747000  0.11919000  1
  C  C77  1  0.88528500  0.98907400  0.88107200  1
  C  C78  1  0.11511300  0.98747000  0.11919000  1
  C  C79  1  0.36635400  0.52310200  0.86259900  1
  C  C80  1  0.63382900  0.52155200  0.14055000  1
  C  C81  1  0.86635400  0.02310200  0.86259900  1
  C  C82  1  0.13382900  0.02155200  0.14055000  1
  C  C83  1  0.32763000  0.52394900  0.82347500  1
  C  C84  1  0.67255100  0.52258000  0.17953800  1
  C  C85  1  0.82763000  0.02394900  0.82347500  1
  C  C86  1  0.17255100  0.02258000  0.17953800  1
  C  C87  1  0.30742500  0.49094800  0.80240700  1
  C  C88  1  0.69296500  0.48970500  0.19758800  1
  C  C89  1  0.80742500  0.99094800  0.80240700  1
  C  C90  1  0.19296500  0.98970500  0.19758800  1
  C  C91  1  0.50026700  0.69726400  0.50182200  1
  C  C92  1  0.00026700  0.19726400  0.50182200  1
  C  C93  1  0.46684100  0.63907500  0.46618800  1
  C  C94  1  0.53395500  0.63921900  0.53720300  1
  C  C95  1  0.96684100  0.13907500  0.46618800  1
  C  C96  1  0.03395500  0.13921900  0.53720300  1
  C  C97  1  0.00015900  0.27143200  0.50183500  1
  C  C98  1  0.50015900  0.77143200  0.50183500  1
  C  C99  1  0.00014500  0.31174000  0.50183300  1
  C  C100  1  0.50014500  0.81174000  0.50183300  1
  C  C101  1  0.49890600  0.43098700  0.49824800  1
  C  C102  1  0.99890600  0.93098700  0.49824800  1
  C  C103  1  0.49192500  0.50461400  0.61010300  1
  C  C104  1  0.50752300  0.50530000  0.38953700  1
  C  C105  1  0.99192500  0.00461400  0.61010300  1
  C  C106  1  0.00752300  0.00530000  0.38953700  1
  C  C107  1  0.50055500  0.57833100  0.50142700  1
  C  C108  1  0.00055500  0.07833100  0.50142700  1
  C  C109  1  0.00020000  0.43067200  0.50189200  1
  C  C110  1  0.50020000  0.93067200  0.50189200  1
  C  C111  1  0.07387300  0.50426100  0.57367900  1
  C  C112  1  0.92644900  0.50400700  0.42667600  1
  C  C113  1  0.57387300  0.00426100  0.57367900  1
  C  C114  1  0.42644900  0.00400700  0.42667600  1
  C  C115  1  0.00010800  0.57806700  0.49844500  1
  C  C116  1  0.50010800  0.07806700  0.49844500  1
  C  C117  1  0.99926600  0.67779900  0.44365700  1
  C  C118  1  0.00041100  0.67778100  0.55279400  1
  C  C119  1  0.49926600  0.17779900  0.44365700  1
  C  C120  1  0.50041100  0.17778100  0.55279400  1
  C  C121  1  0.99939800  0.63900300  0.44364300  1
  C  C122  1  0.00054300  0.63898700  0.55302200  1
  C  C123  1  0.49939800  0.13900300  0.44364300  1
  C  C124  1  0.50054300  0.13898700  0.55302200  1
  C  C125  1  0.00003000  0.61934600  0.49838100  1
  C  C126  1  0.50003000  0.11934600  0.49838100  1
  C  C127  1  0.99976600  0.69719800  0.49816600  1
  C  C128  1  0.49976600  0.19719800  0.49816600  1
  C  C129  1  0.99960400  0.73757600  0.49804400  1
  C  C130  1  0.49960400  0.23757600  0.49804400  1
  C  C131  1  0.49947000  0.27147800  0.49797500  1
  C  C132  1  0.99947000  0.77147800  0.49797500  1
  C  C133  1  0.46580800  0.33115300  0.46198100  1
  C  C134  1  0.53269700  0.33137500  0.53395100  1
  C  C135  1  0.96580800  0.83115300  0.46198100  1
  C  C136  1  0.03269700  0.83137500  0.53395100  1
  C  C137  1  0.46559600  0.36994800  0.46196500  1
  C  C138  1  0.53263400  0.37016800  0.53409400  1
  C  C139  1  0.96559600  0.86994800  0.46196500  1
  C  C140  1  0.03263400  0.87016800  0.53409400  1
  C  C141  1  0.49904500  0.38970800  0.49807700  1
  C  C142  1  0.99904500  0.88970800  0.49807700  1
  C  C143  1  0.49932200  0.31185600  0.49794600  1
  C  C144  1  0.99932200  0.81185600  0.49794600  1
  C  C145  1  0.00074700  0.33109200  0.55645000  1
  C  C146  1  0.99956100  0.33109600  0.44723800  1
  C  C147  1  0.50074700  0.83109200  0.55645000  1
  C  C148  1  0.49956100  0.83109600  0.44723800  1
  C  C149  1  0.00076500  0.36985500  0.55659500  1
  C  C150  1  0.99957900  0.36985900  0.44713200  1
  C  C151  1  0.50076500  0.86985500  0.55659500  1
  C  C152  1  0.49957900  0.86985900  0.44713200  1
  C  C153  1  0.45184800  0.49642600  0.66338000  1
  C  C154  1  0.54797000  0.49952000  0.33656400  1
  C  C155  1  0.95184800  0.99642600  0.66338000  1
  C  C156  1  0.04797000  0.99952000  0.33656400  1
  N  N1  1  0.42281300  0.48939400  0.65628800  1
  N  N2  1  0.57733300  0.49408400  0.34392400  1
  N  N3  1  0.92281300  0.98939400  0.65628800  1
  N  N4  1  0.07733300  0.99408400  0.34392400  1
  O  O1  1  0.44413600  0.52094800  0.94299400  1
  O  O2  1  0.55603900  0.51910700  0.06001000  1
  O  O3  1  0.94413600  0.02094800  0.94299400  1
  O  O4  1  0.05603900  0.01910700  0.06001000  1
  O  O5  1  0.44425100  0.45608700  0.94074700  1
  O  O6  1  0.55637900  0.45426700  0.05688500  1
  O  O7  1  0.94425100  0.95608700  0.94074700  1
  O  O8  1  0.05637900  0.95426700  0.05688500  1
  O  O9  1  0.50232900  0.51933500  0.91217600  1
  O  O10  1  0.49640300  0.52076400  0.08694200  1
  O  O11  1  0.00232900  0.01933500  0.91217600  1
  O  O12  1  0.99640300  0.02076400  0.08694200  1
  O  O13  1  0.50360300  0.45439100  0.91296800  1
  O  O14  1  0.49849700  0.45584300  0.08855800  1
  O  O15  1  0.00360300  0.95439100  0.91296800  1
  O  O16  1  0.99849700  0.95584300  0.08855800  1
  O  O17  1  0.53119900  0.44871900  0.53321200  1
  O  O18  1  0.46651500  0.44853300  0.46354400  1
  O  O19  1  0.03119900  0.94871900  0.53321200  1
  O  O20  1  0.96651500  0.94853300  0.46354400  1
  O  O21  1  0.52583500  0.50552700  0.61934900  1
  O  O22  1  0.47361100  0.50438100  0.38028800  1
  O  O23  1  0.02583500  0.00552700  0.61934900  1
  O  O24  1  0.97361100  0.00438100  0.38028800  1
  O  O25  1  0.46117600  0.50333400  0.54789300  1
  O  O26  1  0.53829700  0.50560400  0.45177300  1
  O  O27  1  0.96117600  0.00333400  0.54789300  1
  O  O28  1  0.03829700  0.00560400  0.45177300  1
  O  O29  1  0.53300300  0.56083300  0.53550500  1
  O  O30  1  0.46819700  0.56064900  0.46705100  1
  O  O31  1  0.03300300  0.06083300  0.53550500  1
  O  O32  1  0.96819700  0.06064900  0.46705100  1
  O  O33  1  0.99969700  0.44827800  0.44913600  1
  O  O34  1  0.00072000  0.44826700  0.55463800  1
  O  O35  1  0.49969700  0.94827800  0.44913600  1
  O  O36  1  0.50072000  0.94826700  0.55463800  1
  O  O37  1  0.05648900  0.50513400  0.50449900  1
  O  O38  1  0.94383300  0.50343900  0.49586200  1
  O  O39  1  0.55648900  0.00513400  0.50449900  1
  O  O40  1  0.44383300  0.00343900  0.49586200  1
  O  O41  1  0.05593700  0.50361000  0.60840200  1
  O  O42  1  0.94438100  0.50498700  0.39195300  1
  O  O43  1  0.55593700  0.00361000  0.60840200  1
  O  O44  1  0.44438100  0.00498700  0.39195300  1
  O  O45  1  0.99961300  0.56042600  0.44577000  1
  O  O46  1  0.00060000  0.56041200  0.55113900  1
  O  O47  1  0.49961300  0.06042600  0.44577000  1
  O  O48  1  0.50060000  0.06041200  0.55113900  1
