# generated using pymatgen
data_CuH16C30NO5
_symmetry_space_group_name_H-M   'P 1'
_cell_length_a   12.19751100
_cell_length_b   13.41524000
_cell_length_c   14.97677800
_cell_angle_alpha   78.68598400
_cell_angle_beta   102.33347500
_cell_angle_gamma   116.38619300
_symmetry_Int_Tables_number   1
_chemical_formula_structural   CuH16C30NO5
_chemical_formula_sum   'Cu2 H32 C60 N2 O10'
_cell_volume   2130.30126301
_cell_formula_units_Z   2
loop_
 _symmetry_equiv_pos_site_id
 _symmetry_equiv_pos_as_xyz
  1  'x, y, z'
loop_
 _atom_site_type_symbol
 _atom_site_label
 _atom_site_symmetry_multiplicity
 _atom_site_fract_x
 _atom_site_fract_y
 _atom_site_fract_z
 _atom_site_occupancy
  Cu  Cu1  1  0.10276100  0.46310700  0.49995600  1
  Cu  Cu2  1  0.90797100  0.51390000  0.46394100  1
  H  H1  1  0.90299100  0.59250300  0.16403900  1
  H  H2  1  0.07913900  0.36909100  0.23729200  1
  H  H3  1  0.13549500  0.30957800  0.12075500  1
  H  H4  1  0.14918500  0.31710800  0.95883700  1
  H  H5  1  0.11007500  0.38529900  0.80009300  1
  H  H6  1  0.93746600  0.61143900  0.72776700  1
  H  H7  1  0.88941600  0.67636500  0.84537200  1
  H  H8  1  0.87069000  0.66533700  0.00632100  1
  H  H9  1  0.09708900  0.86085500  0.35302500  1
  H  H10  1  0.44763400  0.18950100  0.30984400  1
  H  H11  1  0.24340300  0.05080000  0.30904300  1
  H  H12  1  0.38277400  0.79464500  0.52936800  1
  H  H13  1  0.91559400  0.11814600  0.59666500  1
  H  H14  1  0.56933600  0.84512600  0.55940600  1
  H  H15  1  0.66270400  0.25783000  0.36486800  1
  H  H16  1  0.17507800  0.30217800  0.63529600  1
  H  H17  1  0.55522700  0.29534300  0.65781800  1
  H  H18  1  0.35567900  0.26050900  0.67767300  1
  H  H19  1  0.33714500  0.54688600  0.42539800  1
  H  H20  1  0.84483100  0.67210200  0.33259100  1
  H  H21  1  0.49437800  0.63874500  0.36272700  1
  H  H22  1  0.73157900  0.39332000  0.58361100  1
  H  H23  1  0.77560500  0.69051300  0.65598000  1
  H  H24  1  0.64136600  0.52266300  0.74556600  1
  H  H25  1  0.50524800  0.53610700  0.83782400  1
  H  H26  1  0.50429300  0.71827300  0.84116600  1
  H  H27  1  0.63842300  0.88642600  0.75230500  1
  H  H28  1  0.65338500  0.94087700  0.18442200  1
  H  H29  1  0.48395800  0.95249900  0.06792400  1
  H  H30  1  0.31111400  0.78085900  0.01574200  1
  H  H31  1  0.30961500  0.59709300  0.07971100  1
  H  H32  1  0.47822900  0.58362600  0.19560200  1
  C  C1  1  0.85927700  0.27790500  0.49685100  1
  C  C2  1  0.01994400  0.49572600  0.65467600  1
  C  C3  1  0.15049800  0.69822900  0.46212000  1
  C  C4  1  0.99184200  0.48196700  0.30936000  1
  C  C5  1  0.94232500  0.54318400  0.14472700  1
  C  C6  1  0.98943200  0.47989700  0.21145200  1
  C  C7  1  0.04228700  0.41934400  0.18584900  1
  C  C8  1  0.04809000  0.42201100  0.09434400  1
  C  C9  1  0.00365000  0.48726700  0.02810600  1
  C  C10  1  0.95122100  0.54812000  0.05335700  1
  C  C11  1  0.10026300  0.36090000  0.06914000  1
  C  C12  1  0.10826000  0.36533200  0.97783500  1
  C  C13  1  0.06433300  0.43109500  0.91132900  1
  C  C14  1  0.01218200  0.49206200  0.93670500  1
  C  C15  1  0.96881200  0.55819500  0.87065500  1
  C  C16  1  0.91994100  0.62161600  0.89628400  1
  C  C17  1  0.91005500  0.61588800  0.98723200  1
  C  C18  1  0.07129400  0.43495600  0.81959200  1
  C  C19  1  0.02360200  0.49809800  0.75288300  1
  C  C20  1  0.97342700  0.56042000  0.77900000  1
  C  C21  1  0.27615600  0.99546000  0.35768800  1
  C  C22  1  0.23464000  0.81639700  0.44281400  1
  C  C23  1  0.82040100  0.08620300  0.56415100  1
  C  C24  1  0.74444000  0.97500400  0.58385900  1
  C  C25  1  0.62156900  0.93372400  0.54637200  1
  C  C26  1  0.57110700  0.00246600  0.48926300  1
  C  C27  1  0.65020600  0.11376200  0.46501100  1
  C  C28  1  0.44400800  0.96164300  0.45413600  1
  C  C29  1  0.40036000  0.03141000  0.39210500  1
  C  C30  1  0.48089000  0.13709300  0.36181200  1
  C  C31  1  0.60430000  0.17729700  0.39636500  1
  C  C32  1  0.35823600  0.85330800  0.47953400  1
  C  C33  1  0.19319900  0.88846000  0.38305600  1
  C  C34  1  0.77468400  0.15729100  0.50657400  1
  C  C35  1  0.35394200  0.32387200  0.62100600  1
  C  C36  1  0.76498300  0.63088100  0.36814300  1
  C  C37  1  0.66823600  0.66150200  0.34017300  1
  C  C38  1  0.56502500  0.60852500  0.38427400  1
  C  C39  1  0.55765700  0.52299100  0.45569700  1
  C  C40  1  0.65938900  0.49611600  0.48258200  1
  C  C41  1  0.45276300  0.46451700  0.50203000  1
  C  C42  1  0.45350500  0.38218300  0.57377500  1
  C  C43  1  0.55432400  0.35833900  0.60061500  1
  C  C44  1  0.65578800  0.41486000  0.55646900  1
  C  C45  1  0.34631100  0.48462000  0.47990000  1
  C  C46  1  0.25225300  0.34694300  0.59707000  1
  C  C47  1  0.79461800  0.89922300  0.64313200  1
  C  C48  1  0.71563300  0.79933400  0.69801700  1
  C  C49  1  0.71668000  0.69717100  0.69695200  1
  C  C50  1  0.64065300  0.60265300  0.74675000  1
  C  C51  1  0.56441500  0.61017000  0.79856100  1
  C  C52  1  0.56384900  0.71223000  0.80038500  1
  C  C53  1  0.63910800  0.80664000  0.75013400  1
  C  C54  1  0.68117400  0.75618600  0.26775000  1
  C  C55  1  0.57606700  0.76135200  0.20034700  1
  C  C56  1  0.57792100  0.86463100  0.16237200  1
  C  C57  1  0.48247700  0.87153000  0.09676100  1
  C  C58  1  0.38559400  0.77541100  0.06756700  1
  C  C59  1  0.38447200  0.67236900  0.10375700  1
  C  C60  1  0.47934800  0.66509900  0.16982100  1
  N  N1  1  0.24894300  0.42500900  0.52651900  1
  N  N2  1  0.76152300  0.55063000  0.43872200  1
  O  O1  1  0.97916600  0.30795300  0.51315600  1
  O  O2  1  0.81263800  0.35164100  0.47790000  1
  O  O3  1  0.09621600  0.46631000  0.62857300  1
  O  O4  1  0.93705300  0.52077000  0.59642000  1
  O  O5  1  0.19878900  0.62534100  0.48728700  1
  O  O6  1  0.03078800  0.66899600  0.44793000  1
  O  O7  1  0.07654300  0.45902800  0.36730700  1
  O  O8  1  0.91260800  0.50838000  0.33537300  1
  O  O9  1  0.90201700  0.91711300  0.64422300  1
  O  O10  1  0.78324400  0.83317700  0.26317900  1
