# generated using pymatgen
data_Zn3H20C52N2(ClO4)4
_symmetry_space_group_name_H-M   'P 1'
_cell_length_a   21.80946400
_cell_length_b   21.80948700
_cell_length_c   46.84412200
_cell_angle_alpha   90.00000000
_cell_angle_beta   90.00000000
_cell_angle_gamma   90.00000000
_symmetry_Int_Tables_number   1
_chemical_formula_structural   Zn3H20C52N2(ClO4)4
_chemical_formula_sum   'Zn12 H80 C208 N8 Cl16 O64'
_cell_volume   22281.55754162
_cell_formula_units_Z   4
loop_
 _symmetry_equiv_pos_site_id
 _symmetry_equiv_pos_as_xyz
  1  'x, y, z'
loop_
 _atom_site_type_symbol
 _atom_site_label
 _atom_site_symmetry_multiplicity
 _atom_site_fract_x
 _atom_site_fract_y
 _atom_site_fract_z
 _atom_site_occupancy
  Zn  Zn1  1  0.49984300  0.49923900  0.97534300  1
  Zn  Zn2  1  0.99978200  0.99999900  0.47534100  1
  Zn  Zn3  1  0.50011100  0.49970600  0.03999900  1
  Zn  Zn4  1  0.00026300  0.99965600  0.53999700  1
  Zn  Zn5  1  0.43043100  0.99416100  0.00680100  1
  Zn  Zn6  1  0.00529200  0.43020300  0.00687800  1
  Zn  Zn7  1  0.56893400  0.00484400  0.00675000  1
  Zn  Zn8  1  0.99468400  0.56871300  0.00671300  1
  Zn  Zn9  1  0.93093600  0.49450700  0.50676100  1
  Zn  Zn10  1  0.50537900  0.93095200  0.50682500  1
  Zn  Zn11  1  0.06944800  0.50510900  0.50682900  1
  Zn  Zn12  1  0.49470000  0.06945300  0.50672500  1
  H  H1  1  0.54858900  0.08370900  0.14940000  1
  H  H2  1  0.91624800  0.54980300  0.14971000  1
  H  H3  1  0.45028800  0.91465900  0.14966700  1
  H  H4  1  0.08532300  0.45154300  0.14939100  1
  H  H5  1  0.04967400  0.58358100  0.64977300  1
  H  H6  1  0.41474600  0.05022700  0.64954900  1
  H  H7  1  0.95132800  0.41455800  0.64933200  1
  H  H8  1  0.58376500  0.95187200  0.64951700  1
  H  H9  1  0.44964300  0.69308100  0.03931300  1
  H  H10  1  0.30622300  0.44535500  0.03787100  1
  H  H11  1  0.55420900  0.30516600  0.03868500  1
  H  H12  1  0.69415100  0.55026200  0.04008900  1
  H  H13  1  0.94583400  0.19360500  0.53785200  1
  H  H14  1  0.80569300  0.94572800  0.53875300  1
  H  H15  1  0.05073700  0.80567600  0.54010500  1
  H  H16  1  0.19361000  0.05029100  0.53925000  1
  H  H17  1  0.60714700  0.63838300  0.97350500  1
  H  H18  1  0.36132600  0.61047300  0.97633700  1
  H  H19  1  0.38845900  0.36147000  0.97777500  1
  H  H20  1  0.63824000  0.39182800  0.97500000  1
  H  H21  1  0.11113900  0.13840000  0.47645100  1
  H  H22  1  0.86202600  0.11132300  0.47775500  1
  H  H23  1  0.89251000  0.86148500  0.47488300  1
  H  H24  1  0.13893800  0.89263800  0.47351600  1
  H  H25  1  0.66687200  0.69404700  0.93892500  1
  H  H26  1  0.30588000  0.67433200  0.94332100  1
  H  H27  1  0.32406900  0.30662900  0.94475900  1
  H  H28  1  0.69328400  0.33148400  0.94043900  1
  H  H29  1  0.17521600  0.19381900  0.44351600  1
  H  H30  1  0.80720400  0.17561800  0.44469400  1
  H  H31  1  0.83239600  0.80641400  0.44024400  1
  H  H32  1  0.19461900  0.83282600  0.43897500  1
  H  H33  1  0.65329300  0.80493900  0.93298600  1
  H  H34  1  0.19501300  0.66156600  0.93690900  1
  H  H35  1  0.33656600  0.19584200  0.93794500  1
  H  H36  1  0.80409300  0.34484000  0.93406900  1
  H  H37  1  0.16261400  0.30471200  0.43712900  1
  H  H38  1  0.69642300  0.16309400  0.43787000  1
  H  H39  1  0.84592300  0.69563100  0.43385400  1
  H  H40  1  0.30551600  0.84637900  0.43304400  1
  H  H41  1  0.58197000  0.86035700  0.96231600  1
  H  H42  1  0.13939800  0.58684500  0.96426100  1
  H  H43  1  0.41156600  0.13968900  0.96489400  1
  H  H44  1  0.86005800  0.41656500  0.96295900  1
  H  H45  1  0.08783300  0.36037600  0.46442400  1
  H  H46  1  0.64025600  0.08817400  0.46485800  1
  H  H47  1  0.91758100  0.63971600  0.46280100  1
  H  H48  1  0.36092300  0.91777700  0.46234200  1
  H  H49  1  0.44696900  0.80445300  0.03838900  1
  H  H50  1  0.19484400  0.44297600  0.03683100  1
  H  H51  1  0.55647900  0.19382100  0.03723500  1
  H  H52  1  0.80550100  0.55279600  0.03877700  1
  H  H53  1  0.94354300  0.30499100  0.53682200  1
  H  H54  1  0.69434700  0.94350300  0.53731700  1
  H  H55  1  0.05336200  0.69433300  0.53878500  1
  H  H56  1  0.30498100  0.05300800  0.53831400  1
  H  H57  1  0.98641100  0.40152400  0.86375500  1
  H  H58  1  0.59653300  0.98713300  0.86357100  1
  H  H59  1  0.01298700  0.59491400  0.86382500  1
  H  H60  1  0.40311200  0.01347100  0.86396600  1
  H  H61  1  0.48746400  0.90266200  0.36368000  1
  H  H62  1  0.09680500  0.48671000  0.36399300  1
  H  H63  1  0.51384800  0.09607800  0.36385900  1
  H  H64  1  0.90343600  0.51343900  0.36358500  1
  H  H65  1  0.98659500  0.40080900  0.91583000  1
  H  H66  1  0.59763300  0.98712700  0.91564000  1
  H  H67  1  0.01288600  0.59544700  0.91590000  1
  H  H68  1  0.40296400  0.01318200  0.91604600  1
  H  H69  1  0.48768100  0.90179900  0.41575000  1
  H  H70  1  0.09690100  0.48672600  0.41607000  1
  H  H71  1  0.51378000  0.09646400  0.41593900  1
  H  H72  1  0.90228600  0.51316900  0.41565800  1
  H  H73  1  0.34783000  0.99573400  0.23078300  1
  H  H74  1  0.00486800  0.34832900  0.23052600  1
  H  H75  1  0.65204200  0.00323700  0.23040600  1
  H  H76  1  0.99716300  0.65253700  0.23070000  1
  H  H77  1  0.84804500  0.49480500  0.73048800  1
  H  H78  1  0.50289200  0.84863000  0.73048000  1
  H  H79  1  0.15226000  0.50225800  0.73074000  1
  H  H80  1  0.49548800  0.15284600  0.73070800  1
  C  C1  1  0.61921800  0.48597700  0.00813200  1
  C  C2  1  0.51354300  0.61870600  0.00690600  1
  C  C3  1  0.38074600  0.51295500  0.00721300  1
  C  C4  1  0.48637600  0.38026100  0.00843900  1
  C  C5  1  0.11925400  0.98626800  0.50689000  1
  C  C6  1  0.01350800  0.11905500  0.50724300  1
  C  C7  1  0.88080900  0.01343300  0.50845200  1
  C  C8  1  0.98653400  0.88058300  0.50809800  1
  C  C9  1  0.52757800  0.04589500  0.10865700  1
  C  C10  1  0.95365100  0.52921600  0.10884200  1
  C  C11  1  0.47069600  0.95222500  0.10880900  1
  C  C12  1  0.04733100  0.47235300  0.10865900  1
  C  C13  1  0.02922400  0.54623400  0.60887900  1
  C  C14  1  0.45249700  0.02968200  0.60874200  1
  C  C15  1  0.97231600  0.45258100  0.60862600  1
  C  C16  1  0.54614900  0.97276900  0.60872200  1
  C  C17  1  0.49948700  0.99918200  0.15299700  1
  C  C18  1  0.00080300  0.50065000  0.15301500  1
  C  C19  1  0.00046400  0.49905000  0.65301700  1
  C  C20  1  0.49923400  0.00100800  0.65299600  1
  C  C21  1  0.99222800  0.44402000  0.87531400  1
  C  C22  1  0.55411700  0.99287800  0.87520200  1
  C  C23  1  0.00715200  0.55238200  0.87535300  1
  C  C24  1  0.44573800  0.00766800  0.87542300  1
  C  C25  1  0.49329100  0.94512700  0.37526300  1
  C  C26  1  0.05417800  0.49253800  0.37544700  1
  C  C27  1  0.50810700  0.05350300  0.37536300  1
  C  C28  1  0.94582900  0.50754800  0.37521900  1
  C  C29  1  0.52738100  0.04608800  0.13807600  1
  C  C30  1  0.95374700  0.52869600  0.13825800  1
  C  C31  1  0.47136300  0.95219100  0.13822700  1
  C  C32  1  0.04765800  0.47270000  0.13807900  1
  C  C33  1  0.02858000  0.54611200  0.63829500  1
  C  C34  1  0.45232600  0.02910700  0.63816000  1
  C  C35  1  0.97253800  0.45223100  0.63804700  1
  C  C36  1  0.54620500  0.97305900  0.63814100  1
  C  C37  1  0.59912100  0.68698700  0.97154300  1
  C  C38  1  0.31272400  0.60273800  0.97411700  1
  C  C39  1  0.39607500  0.31288700  0.97537400  1
  C  C40  1  0.68682200  0.39976300  0.97284400  1
  C  C41  1  0.10347700  0.18701600  0.47424200  1
  C  C42  1  0.81344600  0.10369300  0.47535000  1
  C  C43  1  0.90052000  0.81291700  0.47271900  1
  C  C44  1  0.18754500  0.90065300  0.47155800  1
  C  C45  1  0.63417600  0.71841700  0.95203700  1
  C  C46  1  0.28142000  0.64012400  0.95552800  1
  C  C47  1  0.35839600  0.28192700  0.95678800  1
  C  C48  1  0.71790000  0.36435800  0.95335200  1
  C  C49  1  0.14098200  0.21830300  0.45569900  1
  C  C50  1  0.78249700  0.14132300  0.45673900  1
  C  C51  1  0.86524200  0.78182100  0.45318300  1
  C  C52  1  0.21898400  0.86555100  0.45207300  1
  C  C53  1  0.62690700  0.78050700  0.94886300  1
  C  C54  1  0.21934300  0.63329100  0.95210000  1
  C  C55  1  0.36508200  0.21989200  0.95313500  1
  C  C56  1  0.77994600  0.37150400  0.94993900  1
  C  C57  1  0.13424000  0.28039300  0.45228400  1
  C  C58  1  0.72046500  0.13462300  0.45308100  1
  C  C59  1  0.87248200  0.71978900  0.44975900  1
  C  C60  1  0.28107700  0.87280700  0.44890300  1
  C  C61  1  0.58668300  0.81186800  0.96611400  1
  C  C62  1  0.18786500  0.59107400  0.96823800  1
  C  C63  1  0.40746600  0.18809800  0.96904300  1
  C  C64  1  0.81162800  0.41196400  0.96694200  1
  C  C65  1  0.09198300  0.31189800  0.46838800  1
  C  C66  1  0.68866300  0.09228600  0.46901300  1
  C  C67  1  0.91289700  0.68813500  0.46679500  1
  C  C68  1  0.31243100  0.91307500  0.46613500  1
  C  C69  1  0.55290400  0.78122200  0.98686500  1
  C  C70  1  0.21837600  0.55483500  0.98811300  1
  C  C71  1  0.44401600  0.21824200  0.98891600  1
  C  C72  1  0.78135500  0.44610200  0.98768400  1
  C  C73  1  0.05561500  0.28140100  0.48821700  1
  C  C74  1  0.71879500  0.05579600  0.48891400  1
  C  C75  1  0.94689900  0.71842200  0.48758100  1
  C  C76  1  0.28177300  0.94691100  0.48686200  1
  C  C77  1  0.55646300  0.71762300  0.98835200  1
  C  C78  1  0.28196700  0.55814500  0.98974900  1
  C  C79  1  0.44081200  0.28181500  0.99077900  1
  C  C80  1  0.71777800  0.44264700  0.98939900  1
  C  C81  1  0.05885300  0.21780500  0.48984100  1
  C  C82  1  0.78236800  0.05899400  0.49077700  1
  C  C83  1  0.94336900  0.78199300  0.48930700  1
  C  C84  1  0.21817600  0.94334600  0.48834800  1
  C  C85  1  0.51823400  0.68571700  0.00699200  1
  C  C86  1  0.31375300  0.51769100  0.00738500  1
  C  C87  1  0.48152400  0.31327300  0.00841300  1
  C  C88  1  0.68621400  0.48121000  0.00801500  1
  C  C89  1  0.01829200  0.18604200  0.50743200  1
  C  C90  1  0.81382000  0.01831600  0.50843100  1
  C  C91  1  0.98181800  0.81358000  0.50796700  1
  C  C92  1  0.18626400  0.98160700  0.50697200  1
  C  C93  1  0.47978800  0.71754700  0.02497300  1
  C  C94  1  0.28183000  0.47719200  0.02431800  1
  C  C95  1  0.52217900  0.28103200  0.02513100  1
  C  C96  1  0.71836000  0.51987800  0.02576500  1
  C  C97  1  0.97775000  0.21798400  0.52433300  1
  C  C98  1  0.78156700  0.97772700  0.52518000  1
  C  C99  1  0.02043800  0.78145300  0.52574700  1
  C  C100  1  0.21808300  0.02011500  0.52492700  1
  C  C101  1  0.47755500  0.78041400  0.02411600  1
  C  C102  1  0.21896300  0.47516000  0.02336800  1
  C  C103  1  0.52414000  0.21818200  0.02394800  1
  C  C104  1  0.78121100  0.52202000  0.02468800  1
  C  C105  1  0.97577400  0.28085300  0.52339000  1
  C  C106  1  0.71871500  0.97578900  0.52400400  1
  C  C107  1  0.02263900  0.71860400  0.52466400  1
  C  C108  1  0.28094800  0.02237100  0.52406400  1
  C  C109  1  0.51397900  0.81274100  0.00540400  1
  C  C110  1  0.18674400  0.51379200  0.00559300  1
  C  C111  1  0.48526400  0.18628200  0.00616300  1
  C  C112  1  0.81320500  0.48527600  0.00598600  1
  C  C113  1  0.01451600  0.31305200  0.50566000  1
  C  C114  1  0.68682300  0.01461200  0.50619000  1
  C  C115  1  0.98601100  0.68659200  0.50592000  1
  C  C116  1  0.31328200  0.98589700  0.50537600  1
  C  C117  1  0.49903200  0.99901000  0.09387200  1
  C  C118  1  0.00036700  0.50080600  0.09389000  1
  C  C119  1  0.00086800  0.49953500  0.59389200  1
  C  C120  1  0.49933900  0.00127900  0.59387100  1
  C  C121  1  0.49872400  0.99898800  0.06264400  1
  C  C122  1  0.00013100  0.50087300  0.06266200  1
  C  C123  1  0.00116200  0.49974300  0.56266400  1
  C  C124  1  0.49943300  0.00144300  0.56264300  1
  C  C125  1  0.50980500  0.87982600  0.00607700  1
  C  C126  1  0.11965100  0.50964900  0.00614400  1
  C  C127  1  0.48941800  0.11917400  0.00645800  1
  C  C128  1  0.88030000  0.48940100  0.00642700  1
  C  C129  1  0.01038200  0.38014400  0.50619600  1
  C  C130  1  0.61971300  0.01046400  0.50648300  1
  C  C131  1  0.99014200  0.61949600  0.50637500  1
  C  C132  1  0.38036500  0.99007700  0.50605100  1
  C  C133  1  0.99256800  0.44382500  0.90473300  1
  C  C134  1  0.55452800  0.99311000  0.90461900  1
  C  C135  1  0.00686900  0.55247300  0.90477300  1
  C  C136  1  0.44586400  0.00728000  0.90484400  1
  C  C137  1  0.49364600  0.94485000  0.40468100  1
  C  C138  1  0.05402300  0.49277900  0.40486600  1
  C  C139  1  0.50784100  0.05351200  0.40478400  1
  C  C140  1  0.94538700  0.50716400  0.40463700  1
  C  C141  1  0.50063000  0.00002900  0.95086800  1
  C  C142  1  0.99985900  0.49805600  0.95088900  1
  C  C143  1  0.99923900  0.49985600  0.45088700  1
  C  C144  1  0.50064600  0.99897200  0.45086900  1
  C  C145  1  0.99975500  0.49812000  0.91962000  1
  C  C146  1  0.50033400  0.00016200  0.91959900  1
  C  C147  1  0.50075400  0.99911300  0.41960000  1
  C  C148  1  0.99955400  0.49993100  0.41961900  1
  C  C149  1  0.05363500  0.50033200  0.81642700  1
  C  C150  1  0.49743700  0.05425200  0.81640500  1
  C  C151  1  0.94603400  0.49624900  0.81634100  1
  C  C152  1  0.50149900  0.94665000  0.81632400  1
  C  C153  1  0.55422300  0.00158200  0.31629900  1
  C  C154  1  0.99847100  0.55399600  0.31641200  1
  C  C155  1  0.44662300  0.99748500  0.31643000  1
  C  C156  1  0.00264800  0.44639800  0.31635400  1
  C  C157  1  0.94467100  0.49657300  0.78661500  1
  C  C158  1  0.50111900  0.94527600  0.78659900  1
  C  C159  1  0.05521600  0.50014700  0.78670500  1
  C  C160  1  0.49756500  0.05582200  0.78668200  1
  C  C161  1  0.44498200  0.99774700  0.28670800  1
  C  C162  1  0.00259000  0.44500800  0.28662900  1
  C  C163  1  0.55552700  0.00133800  0.28657300  1
  C  C164  1  0.99892000  0.55555000  0.28669000  1
  C  C165  1  0.99999800  0.49840300  0.77187700  1
  C  C166  1  0.49930200  0.00059900  0.77185700  1
  C  C167  1  0.50017100  0.99952500  0.27185800  1
  C  C168  1  0.00082500  0.50031900  0.27187600  1
  C  C169  1  0.88982400  0.49521400  0.77111500  1
  C  C170  1  0.50244300  0.89042200  0.77110400  1
  C  C171  1  0.11017900  0.50158000  0.77129700  1
  C  C172  1  0.49611500  0.11077900  0.77126800  1
  C  C173  1  0.38998900  0.99634700  0.27132200  1
  C  C174  1  0.00413300  0.39014800  0.27114200  1
  C  C175  1  0.61034300  0.00274700  0.27105000  1
  C  C176  1  0.99758000  0.61049700  0.27126700  1
  C  C177  1  0.39108700  0.99679700  0.24199800  1
  C  C178  1  0.00373200  0.39149000  0.24181900  1
  C  C179  1  0.60891400  0.00219000  0.24172900  1
  C  C180  1  0.99819400  0.60931300  0.24194400  1
  C  C181  1  0.89119600  0.49581600  0.74179200  1
  C  C182  1  0.50188500  0.89178600  0.74178200  1
  C  C183  1  0.10902400  0.50117300  0.74197300  1
  C  C184  1  0.49656200  0.10961400  0.74194400  1
  C  C185  1  0.44572600  0.99818400  0.22738000  1
  C  C186  1  0.00227200  0.44624900  0.22729900  1
  C  C187  1  0.55411100  0.00070000  0.22724500  1
  C  C188  1  0.99968700  0.55463200  0.22736200  1
  C  C189  1  0.94597100  0.49730800  0.72728600  1
  C  C190  1  0.50045900  0.94655700  0.72727100  1
  C  C191  1  0.05435700  0.49980500  0.72737700  1
  C  C192  1  0.49797900  0.05494300  0.72735200  1
  C  C193  1  0.50000400  0.99947400  0.24226400  1
  C  C194  1  0.00093800  0.50039900  0.24228200  1
  C  C195  1  0.00010800  0.49850100  0.74228300  1
  C  C196  1  0.49924100  0.00069900  0.74226300  1
  C  C197  1  0.44615300  0.99859000  0.19785500  1
  C  C198  1  0.00180200  0.44692200  0.19777400  1
  C  C199  1  0.55334800  0.00012100  0.19772100  1
  C  C200  1  0.00020700  0.55411700  0.19783800  1
  C  C201  1  0.94667800  0.49794000  0.69776200  1
  C  C202  1  0.49995000  0.94725400  0.69774700  1
  C  C203  1  0.05387400  0.49945200  0.69785300  1
  C  C204  1  0.49845300  0.05445000  0.69782800  1
  C  C205  1  0.99969000  0.49822500  0.86061100  1
  C  C206  1  0.49979500  0.00031200  0.86059000  1
  C  C207  1  0.50066300  0.99938100  0.36059000  1
  C  C208  1  0.00015200  0.50007600  0.36061000  1
  N  N1  1  0.99978400  0.49826600  0.83025300  1
  N  N2  1  0.49953700  0.00040600  0.83023200  1
  N  N3  1  0.50050100  0.99951700  0.33023300  1
  N  N4  1  0.00045200  0.50015900  0.33025200  1
  N  N5  1  0.49966800  0.99929900  0.18347300  1
  N  N6  1  0.00098600  0.50055900  0.18349100  1
  N  N7  1  0.00033200  0.49878200  0.68349200  1
  N  N8  1  0.49920200  0.00090100  0.68347200  1
  Cl  Cl1  1  0.81618600  0.49285700  0.78635700  1
  Cl  Cl2  1  0.50470600  0.81678700  0.78635100  1
  Cl  Cl3  1  0.18370600  0.50381200  0.78665800  1
  Cl  Cl4  1  0.49381700  0.18430800  0.78662500  1
  Cl  Cl5  1  0.31649200  0.99411700  0.28671500  1
  Cl  Cl6  1  0.00649200  0.31652800  0.28640300  1
  Cl  Cl7  1  0.68400900  0.00512700  0.28626200  1
  Cl  Cl8  1  0.99522000  0.68403800  0.28661000  1
  Cl  Cl9  1  0.56116900  0.10762500  0.09051600  1
  Cl  Cl10  1  0.89182200  0.56313900  0.09091800  1
  Cl  Cl11  1  0.43665500  0.89049900  0.09085600  1
  Cl  Cl12  1  0.10896300  0.43866100  0.09048500  1
  Cl  Cl13  1  0.06326800  0.60805200  0.59099700  1
  Cl  Cl14  1  0.39085900  0.06368200  0.59070800  1
  Cl  Cl15  1  0.93869200  0.39096600  0.59041300  1
  Cl  Cl16  1  0.60794900  0.93910000  0.59066400  1
  O  O1  1  0.59062300  0.49090700  0.98359000  1
  O  O2  1  0.50832100  0.59047900  0.98229900  1
  O  O3  1  0.40899500  0.51057800  0.98251800  1
  O  O4  1  0.48861100  0.40886800  0.98381500  1
  O  O5  1  0.09102400  0.99150900  0.48228500  1
  O  O6  1  0.01112900  0.09083600  0.48254000  1
  O  O7  1  0.90941400  0.01121600  0.48382600  1
  O  O8  1  0.99146000  0.90920700  0.48356400  1
  O  O9  1  0.59102100  0.48876400  0.03283900  1
  O  O10  1  0.51094000  0.59014200  0.03154400  1
  O  O11  1  0.40928300  0.50766300  0.03176400  1
  O  O12  1  0.49200300  0.40842300  0.03305100  1
  O  O13  1  0.09069600  0.98884200  0.53153100  1
  O  O14  1  0.00821500  0.09049400  0.53178800  1
  O  O15  1  0.90897700  0.00777600  0.53306000  1
  O  O16  1  0.98931800  0.90875500  0.53281200  1
  O  O17  1  0.44577600  0.99617000  0.04943600  1
  O  O18  1  0.00297700  0.44806500  0.04930700  1
  O  O19  1  0.55142200  0.00201000  0.04920400  1
  O  O20  1  0.99718800  0.55371500  0.04936900  1
  O  O21  1  0.94845700  0.49687800  0.54922100  1
  O  O22  1  0.50247800  0.94868000  0.54925900  1
  O  O23  1  0.05410700  0.50266200  0.54945900  1
  O  O24  1  0.49664300  0.05432600  0.54937800  1
  O  O25  1  0.45503300  0.90458200  0.00722200  1
  O  O26  1  0.09484700  0.45484600  0.00613000  1
  O  O27  1  0.54423000  0.09439100  0.00627900  1
  O  O28  1  0.90509900  0.54416600  0.00740900  1
  O  O29  1  0.95558100  0.40495100  0.50608600  1
  O  O30  1  0.59492700  0.95565200  0.50635200  1
  O  O31  1  0.04489900  0.59469500  0.50745500  1
  O  O32  1  0.40512000  0.04485500  0.50714700  1
  O  O33  1  0.56049600  0.91223200  0.00619400  1
  O  O34  1  0.08729400  0.56029800  0.00742600  1
  O  O35  1  0.43879700  0.08676900  0.00773800  1
  O  O36  1  0.91267900  0.43869300  0.00654800  1
  O  O37  1  0.06102500  0.41249900  0.50755300  1
  O  O38  1  0.58730600  0.06109100  0.50770300  1
  O  O39  1  0.93943400  0.58711800  0.50642400  1
  O  O40  1  0.41276800  0.93938400  0.50622600  1
  O  O41  1  0.44788300  0.99752300  0.96432600  1
  O  O42  1  0.00225800  0.44516900  0.96420400  1
  O  O43  1  0.55361900  0.00231100  0.96409600  1
  O  O44  1  0.99753300  0.55091000  0.96426200  1
  O  O45  1  0.94624700  0.49748200  0.46411300  1
  O  O46  1  0.50290700  0.94604700  0.46415400  1
  O  O47  1  0.05198800  0.50220100  0.46434800  1
  O  O48  1  0.49812200  0.05178500  0.46427000  1
  O  O49  1  0.10508800  0.50198700  0.83210700  1
  O  O50  1  0.49584700  0.10571100  0.83208100  1
  O  O51  1  0.89446600  0.49452700  0.83193700  1
  O  O52  1  0.50327400  0.89508900  0.83192300  1
  O  O53  1  0.60582200  0.00325300  0.33187400  1
  O  O54  1  0.99661900  0.60546200  0.33207800  1
  O  O55  1  0.39520200  0.99576000  0.33213000  1
  O  O56  1  0.00425600  0.39484500  0.33196300  1
  O  O57  1  0.39295100  0.99968100  0.18338900  1
  O  O58  1  0.00070400  0.39384200  0.18321200  1
  O  O59  1  0.60638400  0.99896100  0.18312400  1
  O  O60  1  0.00130500  0.60727700  0.18333900  1
  O  O61  1  0.89361600  0.49914600  0.68318700  1
  O  O62  1  0.49880500  0.89418600  0.68317500  1
  O  O63  1  0.10704900  0.49838500  0.68336500  1
  O  O64  1  0.49959400  0.10761900  0.68333700  1
