# generated using pymatgen
data_ZnH18C23NO4
_symmetry_space_group_name_H-M   'P 1'
_cell_length_a   10.03925100
_cell_length_b   11.26388900
_cell_length_c   15.97551400
_cell_angle_alpha   89.98969600
_cell_angle_beta   80.69739300
_cell_angle_gamma   92.45147700
_symmetry_Int_Tables_number   1
_chemical_formula_structural   ZnH18C23NO4
_chemical_formula_sum   'Zn2 H36 C46 N2 O8'
_cell_volume   1781.09076022
_cell_formula_units_Z   2
loop_
 _symmetry_equiv_pos_site_id
 _symmetry_equiv_pos_as_xyz
  1  'x, y, z'
loop_
 _atom_site_type_symbol
 _atom_site_label
 _atom_site_symmetry_multiplicity
 _atom_site_fract_x
 _atom_site_fract_y
 _atom_site_fract_z
 _atom_site_occupancy
  Zn  Zn1  1  0.35064000  0.52091600  0.52321300  1
  Zn  Zn2  1  0.65208600  0.47832400  0.49163200  1
  H  H1  1  0.41850700  0.68397400  0.07540900  1
  H  H2  1  0.72154500  0.51405700  0.90841000  1
  H  H3  1  0.64845900  0.65491300  0.92578200  1
  H  H4  1  0.70980300  0.47198400  0.04565800  1
  H  H5  1  0.40624200  0.32850600  0.94168600  1
  H  H6  1  0.58653900  0.33214800  0.93891900  1
  H  H7  1  0.36520000  0.35798100  0.08453200  1
  H  H8  1  0.29360000  0.50583800  0.97255300  1
  H  H9  1  0.29784600  0.56483900  0.10380600  1
  H  H10  1  0.53805000  0.32075500  0.08304500  1
  H  H11  1  0.61842900  0.09418400  0.49348200  1
  H  H12  1  0.38078200  0.89885000  0.52811500  1
  H  H13  1  0.68758200  0.89158000  0.48249700  1
  H  H14  1  0.12371000  0.42199300  0.45783500  1
  H  H15  1  0.88643900  0.55782600  0.56788500  1
  H  H16  1  0.10482800  0.60951200  0.58561800  1
  H  H17  1  0.23392200  0.16641800  0.65642500  1
  H  H18  1  0.99297800  0.10508400  0.67794600  1
  H  H19  1  0.89503000  0.00751200  0.56285900  1
  H  H20  1  0.03810000  0.97220300  0.42577600  1
  H  H21  1  0.27894700  0.03395900  0.40375500  1
  H  H22  1  0.18689700  0.58894700  0.87622500  1
  H  H23  1  0.13192500  0.76137300  0.79857500  1
  H  H24  1  0.26326900  0.95016800  0.80087400  1
  H  H25  1  0.45031900  0.96568800  0.88275600  1
  H  H26  1  0.50642600  0.79666300  0.96180700  1
  H  H27  1  0.84068400  0.22149800  0.43565600  1
  H  H28  1  0.93416500  0.12910900  0.30071700  1
  H  H29  1  0.05249800  0.25301800  0.18265500  1
  H  H30  1  0.07568900  0.46960700  0.19926600  1
  H  H31  1  0.98201000  0.56234700  0.33379900  1
  H  H32  1  0.56006100  0.73045600  0.16006200  1
  H  H33  1  0.69654300  0.89516200  0.19769600  1
  H  H34  1  0.93482500  0.92266500  0.13292800  1
  H  H35  1  0.03590800  0.77937200  0.02802000  1
  H  H36  1  0.90052500  0.61034300  0.98776100  1
  C  C1  1  0.55430600  0.72925900  0.50213500  1
  C  C2  1  0.50302800  0.49953000  0.67082500  1
  C  C3  1  0.44808800  0.26997500  0.51314500  1
  C  C4  1  0.49983000  0.50012300  0.34399400  1
  C  C5  1  0.38188300  0.56861600  0.97152500  1
  C  C6  1  0.63677200  0.56079100  0.94566100  1
  C  C7  1  0.64487000  0.54764800  0.03935500  1
  C  C8  1  0.50006700  0.50270900  0.25415500  1
  C  C9  1  0.50415400  0.50431800  0.92752800  1
  C  C10  1  0.39581400  0.58970500  0.06367400  1
  C  C11  1  0.50404200  0.50991400  0.08665200  1
  C  C12  1  0.47167000  0.38409700  0.05860000  1
  C  C13  1  0.49264600  0.37855100  0.96238600  1
  C  C14  1  0.50139000  0.50583300  0.17860600  1
  C  C15  1  0.50421300  0.50190100  0.83595000  1
  C  C16  1  0.50383600  0.50051200  0.76056500  1
  C  C17  1  0.58362400  0.85811500  0.49777900  1
  C  C18  1  0.48365200  0.93369400  0.51133600  1
  C  C19  1  0.41547300  0.14152600  0.51574300  1
  C  C20  1  0.51349800  0.06298900  0.50510400  1
  C  C21  1  0.92986800  0.50338200  0.51537400  1
  C  C22  1  0.07711400  0.48735300  0.50158500  1
  C  C23  1  0.27217700  0.10263600  0.52912200  1
  C  C24  1  0.19123900  0.12359000  0.60566400  1
  C  C25  1  0.05599800  0.08911200  0.61782200  1
  C  C26  1  0.00107800  0.03441700  0.55331400  1
  C  C27  1  0.08131600  0.01452600  0.47651000  1
  C  C28  1  0.21658900  0.04890700  0.46428800  1
  C  C29  1  0.35201100  0.67804300  0.92450900  1
  C  C30  1  0.24595700  0.67102700  0.87866300  1
  C  C31  1  0.21453900  0.76824400  0.83436300  1
  C  C32  1  0.28810200  0.87395000  0.83553500  1
  C  C33  1  0.39303600  0.88245100  0.88128400  1
  C  C34  1  0.42507200  0.78542100  0.92559300  1
  C  C35  1  0.90815000  0.39724200  0.39401500  1
  C  C36  1  0.89291100  0.27605700  0.38393800  1
  C  C37  1  0.94536800  0.22420300  0.30824400  1
  C  C38  1  0.01166700  0.29364700  0.24206100  1
  C  C39  1  0.02492100  0.41503500  0.25143600  1
  C  C40  1  0.97273900  0.46695900  0.32715900  1
  C  C41  1  0.71886200  0.65571200  0.06904500  1
  C  C42  1  0.66325200  0.73725300  0.12889200  1
  C  C43  1  0.74093800  0.83243300  0.15125500  1
  C  C44  1  0.87444900  0.84799100  0.11507700  1
  C  C45  1  0.93085000  0.76782700  0.05635700  1
  C  C46  1  0.85375600  0.67263900  0.03370200  1
  N  N1  1  0.85005500  0.45015700  0.47061300  1
  N  N2  1  0.15265800  0.54901000  0.54419900  1
  O  O1  1  0.42753800  0.69044500  0.51523900  1
  O  O2  1  0.65624400  0.65841000  0.49169500  1
  O  O3  1  0.38826400  0.51540900  0.64395500  1
  O  O4  1  0.61727200  0.48391300  0.62004700  1
  O  O5  1  0.34665400  0.34100500  0.52333500  1
  O  O6  1  0.57512600  0.30862700  0.50016300  1
  O  O7  1  0.38570700  0.51604300  0.39477600  1
  O  O8  1  0.61445900  0.48414700  0.37091000  1
