# generated using pymatgen
data_Cu2H61C62(N3O4)3
_symmetry_space_group_name_H-M   'P 1'
_cell_length_a   23.36866200
_cell_length_b   14.46225200
_cell_length_c   15.85741700
_cell_angle_alpha   90.00000000
_cell_angle_beta   90.01346100
_cell_angle_gamma   90.00000000
_symmetry_Int_Tables_number   1
_chemical_formula_structural   Cu2H61C62(N3O4)3
_chemical_formula_sum   'Cu2 H61 C62 N9 O12'
_cell_volume   5359.22766535
_cell_formula_units_Z   1
loop_
 _symmetry_equiv_pos_site_id
 _symmetry_equiv_pos_as_xyz
  1  'x, y, z'
loop_
 _atom_site_type_symbol
 _atom_site_label
 _atom_site_symmetry_multiplicity
 _atom_site_fract_x
 _atom_site_fract_y
 _atom_site_fract_z
 _atom_site_occupancy
  Cu  Cu1  1  0.50279000  0.41365400  0.48216600  1
  Cu  Cu2  1  0.50262000  0.59855500  0.48340000  1
  H  H1  1  0.05183200  0.48117000  0.69148000  1
  H  H2  1  0.94853800  0.48274700  0.68965200  1
  H  H3  1  0.95222700  0.54264900  0.27306000  1
  H  H4  1  0.05544600  0.53798400  0.27453000  1
  H  H5  1  0.79044200  0.40206700  0.39127200  1
  H  H6  1  0.68066300  0.62287600  0.56219100  1
  H  H7  1  0.78492800  0.62737500  0.56253000  1
  H  H8  1  0.21587600  0.37458400  0.54360200  1
  H  H9  1  0.21649100  0.63815200  0.42718300  1
  H  H10  1  0.42291700  0.43249600  0.04897400  1
  H  H11  1  0.43243800  0.60372200  0.05558600  1
  H  H12  1  0.42920200  0.41721400  0.90758400  1
  H  H13  1  0.42768900  0.58914300  0.91401000  1
  H  H14  1  0.49366400  0.65384000  0.90730200  1
  H  H15  1  0.49680600  0.35740200  0.91655800  1
  H  H16  1  0.50279200  0.65503100  0.04903300  1
  H  H17  1  0.48552600  0.35986300  0.05793700  1
  H  H18  1  0.58823400  0.44529000  0.91013600  1
  H  H19  1  0.58645500  0.56997600  0.91675100  1
  H  H20  1  0.58213400  0.43203200  0.05174100  1
  H  H21  1  0.58968900  0.55612000  0.05850200  1
  H  H22  1  0.55866500  0.09165400  0.37011200  1
  H  H23  1  0.57497000  0.93900500  0.39058100  1
  H  H24  1  0.52063700  0.93361100  0.61837600  1
  H  H25  1  0.51992400  0.08030700  0.61556700  1
  H  H26  1  0.42037800  0.92989300  0.44350500  1
  H  H27  1  0.41484300  0.08473500  0.45443000  1
  H  H28  1  0.42836300  0.92394300  0.55612700  1
  H  H29  1  0.43049000  0.08011800  0.56506600  1
  H  H30  1  0.50451300  0.92135000  0.34983300  1
  H  H31  1  0.48503100  0.07177400  0.35336600  1
  H  H32  1  0.32312200  0.27733800  0.44722800  1
  H  H33  1  0.27430100  0.24441700  0.53073200  1
  H  H34  1  0.34941100  0.21777500  0.53939400  1
  H  H35  1  0.32954200  0.42146400  0.67463500  1
  H  H36  1  0.35011700  0.30115100  0.67422600  1
  H  H37  1  0.27579900  0.33245000  0.66180800  1
  H  H38  1  0.32316600  0.73510700  0.52302400  1
  H  H39  1  0.27489800  0.76779500  0.43868800  1
  H  H40  1  0.35010400  0.79377600  0.43082200  1
  H  H41  1  0.33036600  0.58920500  0.29660600  1
  H  H42  1  0.35092100  0.70952700  0.29636800  1
  H  H43  1  0.27656400  0.67828300  0.30842800  1
  H  H44  1  0.61759600  0.83640000  0.46338500  1
  H  H45  1  0.60176900  0.77655400  0.56179800  1
  H  H46  1  0.66962200  0.82952000  0.54387700  1
  H  H47  1  0.60348500  0.98360300  0.69171100  1
  H  H48  1  0.66711100  0.92095900  0.66399300  1
  H  H49  1  0.60221400  0.85939100  0.69032300  1
  H  H50  1  0.58867900  0.15195100  0.68702900  1
  H  H51  1  0.58279300  0.23612900  0.60289300  1
  H  H52  1  0.65151300  0.19127000  0.63348800  1
  H  H53  1  0.63563800  0.04875800  0.45146800  1
  H  H54  1  0.68011700  0.12497500  0.50977900  1
  H  H55  1  0.62041200  0.17300500  0.45392400  1
  H  H56  1  0.71516000  0.26921500  0.42430700  1
  H  H57  1  0.73802200  0.29875000  0.31790300  1
  H  H58  1  0.66896000  0.24841400  0.33512200  1
  H  H59  1  0.64126100  0.49526500  0.30171300  1
  H  H60  1  0.63847000  0.38294600  0.25243600  1
  H  H61  1  0.70574900  0.44467000  0.25928400  1
  C  C1  1  0.50451600  0.50533600  0.64462800  1
  C  C2  1  0.61267100  0.50684700  0.47948700  1
  C  C3  1  0.50137800  0.50687600  0.32097900  1
  C  C4  1  0.39241700  0.50557000  0.48520800  1
  C  C5  1  0.12095600  0.51624100  0.41052500  1
  C  C6  1  0.11978000  0.49863300  0.55751800  1
  C  C7  1  0.06057100  0.49931700  0.55748300  1
  C  C8  1  0.03153000  0.51020200  0.48266000  1
  C  C9  1  0.06182200  0.51914900  0.40875000  1
  C  C10  1  0.03019300  0.48985800  0.63178800  1
  C  C11  1  0.97122000  0.49071100  0.63073900  1
  C  C12  1  0.94215700  0.50200500  0.55548900  1
  C  C13  1  0.97249100  0.51203200  0.48171900  1
  C  C14  1  0.94349300  0.52376000  0.40697200  1
  C  C15  1  0.97385100  0.53343400  0.33269300  1
  C  C16  1  0.03278000  0.53062400  0.33351900  1
  C  C17  1  0.88297300  0.50241600  0.55334300  1
  C  C18  1  0.88432800  0.52573800  0.40702300  1
  C  C19  1  0.76528400  0.44878100  0.42918300  1
  C  C20  1  0.70591400  0.44607800  0.42795000  1
  C  C21  1  0.67538200  0.50817500  0.47724300  1
  C  C22  1  0.70415600  0.57370900  0.52429400  1
  C  C23  1  0.76304000  0.57580600  0.52517500  1
  C  C24  1  0.79384200  0.51282300  0.47824700  1
  C  C25  1  0.23972200  0.43220000  0.51825100  1
  C  C26  1  0.29895300  0.43142200  0.51891400  1
  C  C27  1  0.32918200  0.50581300  0.48550800  1
  C  C28  1  0.29922900  0.58055700  0.45217300  1
  C  C29  1  0.24006900  0.58036200  0.45275800  1
  C  C30  1  0.21022000  0.50640900  0.48531100  1
  C  C31  1  0.47276300  0.42026800  0.93519300  1
  C  C32  1  0.47310300  0.59135400  0.93420600  1
  C  C33  1  0.47615200  0.59529500  0.02950400  1
  C  C34  1  0.46840000  0.42466900  0.03036700  1
  C  C35  1  0.50147000  0.50734300  0.23052600  1
  C  C36  1  0.50374100  0.50542200  0.90330400  1
  C  C37  1  0.50251300  0.50660600  0.06236200  1
  C  C38  1  0.56372600  0.49915000  0.03153700  1
  C  C39  1  0.56462700  0.50533100  0.93622800  1
  C  C40  1  0.50184300  0.50720100  0.15456400  1
  C  C41  1  0.50435800  0.50487100  0.81108200  1
  C  C42  1  0.50460800  0.50480600  0.73510600  1
  C  C43  1  0.52937600  0.95405000  0.40139600  1
  C  C44  1  0.52078200  0.05736600  0.39741900  1
  C  C45  1  0.54419000  0.95396400  0.56061300  1
  C  C46  1  0.54297600  0.05973200  0.55756900  1
  C  C47  1  0.50798500  0.91773500  0.48580700  1
  C  C48  1  0.50497600  0.09425500  0.48431400  1
  C  C49  1  0.44546300  0.05785400  0.50190600  1
  C  C50  1  0.44691500  0.95303100  0.49748900  1
  C  C51  1  0.50280900  0.19544500  0.48189100  1
  C  C52  1  0.50372300  0.81665100  0.48387200  1
  C  C53  1  0.31804000  0.26947400  0.51638600  1
  C  C54  1  0.32037900  0.35273300  0.64671400  1
  C  C55  1  0.31847500  0.74249600  0.45375800  1
  C  C56  1  0.32110200  0.65815600  0.32399400  1
  C  C57  1  0.62305400  0.83692200  0.53234500  1
  C  C58  1  0.61979400  0.92159500  0.65867100  1
  C  C59  1  0.60572000  0.17365900  0.62485200  1
  C  C60  1  0.63526400  0.11224100  0.49023500  1
  C  C61  1  0.70129600  0.29609000  0.36207700  1
  C  C62  1  0.66485700  0.42963300  0.29200700  1
  N  N1  1  0.14905700  0.50671700  0.48445600  1
  N  N2  1  0.85497700  0.51424300  0.47961700  1
  N  N3  1  0.50173200  0.27544500  0.48034600  1
  N  N4  1  0.50121900  0.73675000  0.48270000  1
  N  N5  1  0.32861900  0.35698200  0.55684100  1
  N  N6  1  0.32905200  0.65463400  0.41395500  1
  N  N7  1  0.60332200  0.92186500  0.57082300  1
  N  N8  1  0.60015700  0.09983100  0.56405900  1
  N  N9  1  0.67620700  0.38641700  0.37208400  1
  O  O1  1  0.50215600  0.42619400  0.60479600  1
  O  O2  1  0.50580500  0.58511500  0.60584100  1
  O  O3  1  0.58588800  0.42719200  0.47707200  1
  O  O4  1  0.58581600  0.58608800  0.48461900  1
  O  O5  1  0.49938800  0.42704600  0.35973400  1
  O  O6  1  0.50353400  0.58615500  0.36075900  1
  O  O7  1  0.41958200  0.42631700  0.48123300  1
  O  O8  1  0.41955100  0.58485300  0.48793900  1
  O  O9  1  0.15059700  0.52105800  0.33803400  1
  O  O10  1  0.14832000  0.49212100  0.63086700  1
  O  O11  1  0.85316000  0.48851600  0.62468800  1
  O  O12  1  0.85589200  0.54074900  0.33462300  1
