# generated using pymatgen
data_ZnH15C35N(ClO2)2
_symmetry_space_group_name_H-M   'P 1'
_cell_length_a   8.55261200
_cell_length_b   13.51445300
_cell_length_c   17.65262900
_cell_angle_alpha   90.00000000
_cell_angle_beta   90.00000000
_cell_angle_gamma   90.00000000
_symmetry_Int_Tables_number   1
_chemical_formula_structural   ZnH15C35N(ClO2)2
_chemical_formula_sum   'Zn2 H30 C70 N2 Cl4 O8'
_cell_volume   2040.35922671
_cell_formula_units_Z   2
loop_
 _symmetry_equiv_pos_site_id
 _symmetry_equiv_pos_as_xyz
  1  'x, y, z'
loop_
 _atom_site_type_symbol
 _atom_site_label
 _atom_site_symmetry_multiplicity
 _atom_site_fract_x
 _atom_site_fract_y
 _atom_site_fract_z
 _atom_site_occupancy
  Zn  Zn1  1  0.50112000  0.49643500  0.08601900  1
  Zn  Zn2  1  0.50112000  0.50356500  0.91398100  1
  H  H1  1  0.25112400  0.83699200  0.99513000  1
  H  H2  1  0.75083300  0.16326300  0.00532600  1
  H  H3  1  0.25112400  0.16300800  0.00487000  1
  H  H4  1  0.75083300  0.83673700  0.99467400  1
  H  H5  1  0.00112300  0.56963900  0.02387400  1
  H  H6  1  0.00112300  0.43036100  0.97612600  1
  H  H7  1  0.49090700  0.25039300  0.31738400  1
  H  H8  1  0.49090700  0.74960700  0.68261700  1
  H  H9  1  0.50900200  0.74456100  0.31403600  1
  H  H10  1  0.50900200  0.25543900  0.68596400  1
  H  H11  1  0.49594700  0.16491500  0.43345100  1
  H  H12  1  0.49594700  0.83508500  0.56654900  1
  H  H13  1  0.50326700  0.83311500  0.42825600  1
  H  H14  1  0.50326700  0.16688500  0.57174400  1
  H  H15  1  0.66648900  0.11324400  0.13052700  1
  H  H16  1  0.39681100  0.05215900  0.11361800  1
  H  H17  1  0.17509100  0.15499500  0.15239600  1
  H  H18  1  0.22059400  0.32221400  0.20211000  1
  H  H19  1  0.66648900  0.88675600  0.86947300  1
  H  H20  1  0.39681100  0.94784100  0.88638200  1
  H  H21  1  0.17509100  0.84500500  0.84760400  1
  H  H22  1  0.22059400  0.67778600  0.79789000  1
  H  H23  1  0.32775300  0.87564800  0.12581700  1
  H  H24  1  0.59610300  0.93764200  0.10550300  1
  H  H25  1  0.82017300  0.83875200  0.14724000  1
  H  H26  1  0.77853400  0.67325400  0.20095900  1
  H  H27  1  0.32775300  0.12435200  0.87418300  1
  H  H28  1  0.59610300  0.06235800  0.89449700  1
  H  H29  1  0.82017300  0.16124800  0.85276000  1
  H  H30  1  0.77853400  0.32674600  0.79904100  1
  C  C1  1  0.14077400  0.69542500  0.00428600  1
  C  C2  1  0.86147000  0.30466200  0.99609100  1
  C  C3  1  0.14077400  0.30457500  0.99571400  1
  C  C4  1  0.86147000  0.69533800  0.00390900  1
  C  C5  1  0.14163300  0.79731500  0.99795600  1
  C  C6  1  0.86046600  0.20280700  0.00260100  1
  C  C7  1  0.14163300  0.20268500  0.00204400  1
  C  C8  1  0.86046600  0.79719300  0.99739900  1
  C  C9  1  0.00099100  0.84859900  0.99780600  1
  C  C10  1  0.00099100  0.15140100  0.00219400  1
  C  C11  1  0.00111500  0.64718200  0.01255400  1
  C  C12  1  0.00111500  0.35281800  0.98744700  1
  C  C13  1  0.00089800  0.95528200  0.99904600  1
  C  C14  1  0.00089800  0.04471800  0.00095400  1
  C  C15  1  0.28240700  0.63458200  0.00192100  1
  C  C16  1  0.71987200  0.36550300  0.99827800  1
  C  C17  1  0.28240700  0.36541800  0.99808000  1
  C  C18  1  0.71987200  0.63449700  0.00172200  1
  C  C19  1  0.49245900  0.40961200  0.22571800  1
  C  C20  1  0.49245900  0.59038800  0.77428200  1
  C  C21  1  0.50885300  0.58273600  0.22472600  1
  C  C22  1  0.50885300  0.41726400  0.77527400  1
  C  C23  1  0.49305900  0.32156400  0.34508700  1
  C  C24  1  0.49305900  0.67843600  0.65491400  1
  C  C25  1  0.50689900  0.67397300  0.34256500  1
  C  C26  1  0.50689900  0.32602700  0.65743500  1
  C  C27  1  0.49563000  0.40960900  0.30449000  1
  C  C28  1  0.49563000  0.59039100  0.69551000  1
  C  C29  1  0.50501800  0.58476900  0.30334000  1
  C  C30  1  0.50501800  0.41523100  0.69666000  1
  C  C31  1  0.50030700  0.49771900  0.34327500  1
  C  C32  1  0.50030700  0.50228100  0.65672600  1
  C  C33  1  0.49761400  0.23494600  0.46302800  1
  C  C34  1  0.49761400  0.76505400  0.53697200  1
  C  C35  1  0.50176600  0.76392500  0.45897700  1
  C  C36  1  0.50176600  0.23607500  0.54102300  1
  C  C37  1  0.49654100  0.32277300  0.42319800  1
  C  C38  1  0.49654100  0.67722700  0.57680200  1
  C  C39  1  0.50316800  0.67497500  0.42059300  1
  C  C40  1  0.50316800  0.32502500  0.57940700  1
  C  C41  1  0.49897700  0.41142000  0.46154800  1
  C  C42  1  0.49897700  0.58858000  0.53845200  1
  C  C43  1  0.50091400  0.58743000  0.46025000  1
  C  C44  1  0.50091400  0.41257000  0.53975000  1
  C  C45  1  0.50006300  0.49885700  0.42162200  1
  C  C46  1  0.50006300  0.50114300  0.57837800  1
  C  C47  1  0.46825100  0.31506300  0.18776200  1
  C  C48  1  0.59373200  0.25472000  0.17097100  1
  C  C49  1  0.56826900  0.16048700  0.14365600  1
  C  C50  1  0.41767800  0.12565100  0.13516200  1
  C  C51  1  0.29284500  0.18356900  0.15646400  1
  C  C52  1  0.31840100  0.27745300  0.18393400  1
  C  C53  1  0.46825100  0.68493700  0.81223800  1
  C  C54  1  0.59373200  0.74528000  0.82902900  1
  C  C55  1  0.56826900  0.83951300  0.85634400  1
  C  C56  1  0.41767800  0.87434900  0.86483800  1
  C  C57  1  0.29284500  0.81643100  0.84353600  1
  C  C58  1  0.31840100  0.72254700  0.81606600  1
  C  C59  1  0.53075300  0.67718500  0.18603000  1
  C  C60  1  0.40395000  0.73664600  0.16956300  1
  C  C61  1  0.42715400  0.82981900  0.13976600  1
  C  C62  1  0.57693900  0.86517800  0.12938800  1
  C  C63  1  0.70305900  0.80938600  0.15217700  1
  C  C64  1  0.67961200  0.71652100  0.18208700  1
  C  C65  1  0.53075300  0.32281500  0.81397000  1
  C  C66  1  0.40395000  0.26335400  0.83043700  1
  C  C67  1  0.42715400  0.17018100  0.86023400  1
  C  C68  1  0.57693900  0.13482200  0.87061200  1
  C  C69  1  0.70305900  0.19061400  0.84782300  1
  C  C70  1  0.67961200  0.28347900  0.81791300  1
  N  N1  1  0.50115300  0.49561200  0.18584800  1
  N  N2  1  0.50115300  0.50438800  0.81415200  1
  Cl  Cl1  1  0.78496400  0.29519900  0.18855900  1
  Cl  Cl2  1  0.78496400  0.70480100  0.81144100  1
  Cl  Cl3  1  0.21380700  0.69583500  0.18944900  1
  Cl  Cl4  1  0.21380700  0.30416500  0.81055100  1
  O  O1  1  0.33377100  0.60483100  0.93544900  1
  O  O2  1  0.66647200  0.39380800  0.06473000  1
  O  O3  1  0.66965700  0.40278100  0.93412500  1
  O  O4  1  0.33461300  0.59866000  0.06616400  1
  O  O5  1  0.33377100  0.39516900  0.06455100  1
  O  O6  1  0.66647200  0.60619200  0.93527000  1
  O  O7  1  0.66965700  0.59721900  0.06587500  1
  O  O8  1  0.33461300  0.40134000  0.93383600  1
