# generated using pymatgen
data_Zn2H44C53N2O11
_symmetry_space_group_name_H-M   'P 1'
_cell_length_a   12.56694600
_cell_length_b   13.67239600
_cell_length_c   17.49592200
_cell_angle_alpha   91.02047700
_cell_angle_beta   98.15683800
_cell_angle_gamma   93.36555900
_symmetry_Int_Tables_number   1
_chemical_formula_structural   Zn2H44C53N2O11
_chemical_formula_sum   'Zn2 H44 C53 N2 O11'
_cell_volume   2969.57010624
_cell_formula_units_Z   1
loop_
 _symmetry_equiv_pos_site_id
 _symmetry_equiv_pos_as_xyz
  1  'x, y, z'
loop_
 _atom_site_type_symbol
 _atom_site_label
 _atom_site_symmetry_multiplicity
 _atom_site_fract_x
 _atom_site_fract_y
 _atom_site_fract_z
 _atom_site_occupancy
  Zn  Zn1  1  0.62645700  0.49632500  0.51025100  1
  Zn  Zn2  1  0.38935100  0.53794100  0.47853200  1
  H  H1  1  0.66774700  0.53458600  0.76036000  1
  H  H2  1  0.32436600  0.53599900  0.71314000  1
  H  H3  1  0.39897200  0.56022600  0.98197500  1
  H  H4  1  0.64502200  0.39385900  0.12774400  1
  H  H5  1  0.65883900  0.53907800  0.89704200  1
  H  H6  1  0.62000500  0.47401900  0.00561800  1
  H  H7  1  0.42825200  0.62283600  0.10029800  1
  H  H8  1  0.31545300  0.53969500  0.85077000  1
  H  H9  1  0.26611600  0.24555200  0.52269400  1
  H  H10  1  0.28362300  0.91506700  0.56788300  1
  H  H11  1  0.22748300  0.07431100  0.54806200  1
  H  H12  1  0.57730700  0.18424000  0.47705900  1
  H  H13  1  0.74490000  0.78212200  0.46073800  1
  H  H14  1  0.67940400  0.07802000  0.45623500  1
  H  H15  1  0.79670700  0.95205200  0.44161200  1
  H  H16  1  0.41040200  0.79412000  0.56243100  1
  H  H17  1  0.11950700  0.34092600  0.61566800  1
  H  H18  1  0.93887100  0.30400100  0.62251600  1
  H  H19  1  0.82884800  0.57943900  0.46300600  1
  H  H20  1  0.27598900  0.67663100  0.38379300  1
  H  H21  1  0.94686900  0.64746400  0.40581100  1
  H  H22  1  0.09220800  0.72637700  0.35104200  1
  H  H23  1  0.25842500  0.43171200  0.56410900  1
  H  H24  1  0.24898800  0.55884600  0.26734600  1
  H  H25  1  0.28614000  0.51939400  0.17736600  1
  H  H26  1  0.21498000  0.72429100  0.21460900  1
  H  H27  1  0.24943800  0.68336400  0.12288000  1
  H  H28  1  0.10155700  0.55172600  0.11359700  1
  H  H29  1  0.05226600  0.67261600  0.12137800  1
  H  H30  1  0.06629700  0.59544300  0.20457300  1
  H  H31  1  0.66420700  0.36768300  0.69632400  1
  H  H32  1  0.80455700  0.40628600  0.70173600  1
  H  H33  1  0.70667800  0.19425200  0.70407800  1
  H  H34  1  0.84875500  0.22931500  0.71363700  1
  H  H35  1  0.83445500  0.32916000  0.83172400  1
  H  H36  1  0.79224500  0.20174900  0.84116000  1
  H  H37  1  0.69245000  0.29167600  0.82284900  1
  H  H38  1  0.77872300  0.42681000  0.35079400  1
  H  H39  1  0.76418400  0.48378600  0.25845200  1
  H  H40  1  0.81079900  0.26816700  0.28922200  1
  H  H41  1  0.80121500  0.32541100  0.19641500  1
  H  H42  1  0.95383800  0.44400200  0.24797100  1
  H  H43  1  0.99104400  0.31837200  0.25495900  1
  H  H44  1  0.96457400  0.38421900  0.34009600  1
  C  C1  1  0.56187600  0.70570500  0.49648500  1
  C  C2  1  0.51430300  0.50690200  0.34513900  1
  C  C3  1  0.45400400  0.32899200  0.49290100  1
  C  C4  1  0.50176800  0.52822600  0.64334500  1
  C  C5  1  0.51992200  0.50458800  0.26131100  1
  C  C6  1  0.45754900  0.56456000  0.21213100  1
  C  C7  1  0.47095000  0.56939600  0.13519100  1
  C  C8  1  0.53689600  0.50694700  0.10407300  1
  C  C9  1  0.59467400  0.44397900  0.15197800  1
  C  C10  1  0.58997300  0.44474400  0.23055400  1
  C  C11  1  0.58431700  0.53592700  0.85767400  1
  C  C12  1  0.58965300  0.53419700  0.77943000  1
  C  C13  1  0.39839600  0.53626900  0.75300900  1
  C  C14  1  0.39313200  0.53815000  0.83115100  1
  C  C15  1  0.48549000  0.53621000  0.88408300  1
  C  C16  1  0.54972800  0.50673100  0.02159000  1
  C  C17  1  0.47471700  0.53812600  0.96686600  1
  C  C18  1  0.49668800  0.53311000  0.72660200  1
  C  C19  1  0.30438500  0.09685800  0.53098700  1
  C  C20  1  0.42571100  0.22402300  0.49862000  1
  C  C21  1  0.69070600  0.83734500  0.47214000  1
  C  C22  1  0.71994300  0.93331800  0.46041600  1
  C  C23  1  0.65099700  0.00553700  0.46936400  1
  C  C24  1  0.55160600  0.98362400  0.49374400  1
  C  C25  1  0.52382900  0.88590000  0.50869200  1
  C  C26  1  0.47900800  0.05646400  0.50310800  1
  C  C27  1  0.38048100  0.02928300  0.52569500  1
  C  C28  1  0.35790200  0.93473800  0.54586000  1
  C  C29  1  0.42992900  0.86465300  0.54004500  1
  C  C30  1  0.50138900  0.15601700  0.49138800  1
  C  C31  1  0.32597500  0.19364000  0.51625700  1
  C  C32  1  0.59202100  0.81175200  0.49433900  1
  C  C33  1  0.91625600  0.36656500  0.58858000  1
  C  C34  1  0.21200700  0.63991000  0.40963100  1
  C  C35  1  0.10867000  0.66824700  0.39130300  1
  C  C36  1  0.02600900  0.62267400  0.42347200  1
  C  C37  1  0.04723600  0.54829400  0.47550600  1
  C  C38  1  0.15383100  0.52222800  0.49282500  1
  C  C39  1  0.96573400  0.49828700  0.51021500  1
  C  C40  1  0.99345400  0.42178600  0.55803700  1
  C  C41  1  0.09838000  0.39901100  0.57627700  1
  C  C42  1  0.17775200  0.45032900  0.54565800  1
  C  C43  1  0.85710900  0.52025400  0.49845700  1
  C  C44  1  0.81073300  0.39001300  0.57585300  1
  C  C45  1  0.28476700  0.58397200  0.21631800  1
  C  C46  1  0.21570500  0.65987300  0.17530100  1
  C  C47  1  0.10149200  0.61689700  0.15224000  1
  C  C48  1  0.74281900  0.34638800  0.68223500  1
  C  C49  1  0.76942200  0.25294400  0.72461500  1
  C  C50  1  0.77226000  0.27019400  0.81072200  1
  C  C51  1  0.75334800  0.41366000  0.28808500  1
  C  C52  1  0.82327700  0.33803300  0.25954700  1
  C  C53  1  0.94087800  0.37366100  0.27685300  1
  N  N1  1  0.78242900  0.46656100  0.53110900  1
  N  N2  1  0.23390700  0.56692100  0.45883400  1
  O  O1  1  0.63956600  0.64468100  0.50756700  1
  O  O2  1  0.45973200  0.67537900  0.48223500  1
  O  O3  1  0.60261500  0.49427400  0.39318700  1
  O  O4  1  0.42248100  0.52501100  0.36888500  1
  O  O5  1  0.55596800  0.35884000  0.50525300  1
  O  O6  1  0.37663600  0.38952800  0.48046900  1
  O  O7  1  0.59323400  0.51009600  0.61977200  1
  O  O8  1  0.41399100  0.54115800  0.59555800  1
  O  O9  1  0.38894500  0.62590400  0.24014700  1
  O  O10  1  0.73393400  0.32925600  0.60235800  1
  O  O11  1  0.64535500  0.37802200  0.27560600  1
