# generated using pymatgen
data_ZnH42C47NO8
_symmetry_space_group_name_H-M   'P 1'
_cell_length_a   22.43296700
_cell_length_b   22.66541100
_cell_length_c   14.80610000
_cell_angle_alpha   90.00000000
_cell_angle_beta   90.00000000
_cell_angle_gamma   90.00000000
_symmetry_Int_Tables_number   1
_chemical_formula_structural   ZnH42C47NO8
_chemical_formula_sum   'Zn4 H168 C188 N4 O32'
_cell_volume   7528.19733141
_cell_formula_units_Z   4
loop_
 _symmetry_equiv_pos_site_id
 _symmetry_equiv_pos_as_xyz
  1  'x, y, z'
loop_
 _atom_site_type_symbol
 _atom_site_label
 _atom_site_symmetry_multiplicity
 _atom_site_fract_x
 _atom_site_fract_y
 _atom_site_fract_z
 _atom_site_occupancy
  Zn  Zn1  1  0.00348000  0.49933800  0.59385400  1
  Zn  Zn2  1  0.00290900  0.50004900  0.38815000  1
  Zn  Zn3  1  0.50348000  0.99933800  0.59385400  1
  Zn  Zn4  1  0.50290900  0.00004900  0.38815000  1
  H  H1  1  0.27710600  0.65703800  0.56497700  1
  H  H2  1  0.27304600  0.66354800  0.40233300  1
  H  H3  1  0.27193900  0.33108200  0.58746400  1
  H  H4  1  0.28359700  0.34727300  0.43642200  1
  H  H5  1  0.77710600  0.15703800  0.56497700  1
  H  H6  1  0.77304600  0.16354800  0.40233300  1
  H  H7  1  0.77193900  0.83108200  0.58746400  1
  H  H8  1  0.78359700  0.84727300  0.43642200  1
  H  H9  1  0.84759500  0.22717500  0.56254100  1
  H  H10  1  0.84029100  0.23668600  0.39510800  1
  H  H11  1  0.83171600  0.75239200  0.60806800  1
  H  H12  1  0.85372500  0.77751800  0.44483800  1
  H  H13  1  0.34759500  0.72717500  0.56254100  1
  H  H14  1  0.34029100  0.73668600  0.39510800  1
  H  H15  1  0.33171600  0.25239200  0.60806900  1
  H  H16  1  0.35372500  0.27751800  0.44483800  1
  H  H17  1  0.78581000  0.28585700  0.34640400  1
  H  H18  1  0.80198900  0.27291500  0.63462400  1
  H  H19  1  0.81668800  0.73729000  0.35572900  1
  H  H20  1  0.76958400  0.70430200  0.63221100  1
  H  H21  1  0.28581000  0.78585700  0.34640400  1
  H  H22  1  0.30198900  0.77291500  0.63462400  1
  H  H23  1  0.31668800  0.23729000  0.35572900  1
  H  H24  1  0.26958400  0.20430200  0.63221100  1
  H  H25  1  0.21999800  0.71009700  0.34540800  1
  H  H26  1  0.23087300  0.70229600  0.63586900  1
  H  H27  1  0.24632200  0.30815400  0.35003200  1
  H  H28  1  0.21312400  0.28874900  0.63640200  1
  H  H29  1  0.71999800  0.21009700  0.34540800  1
  H  H30  1  0.73087300  0.20229600  0.63586900  1
  H  H31  1  0.74632200  0.80815400  0.35003200  1
  H  H32  1  0.71312400  0.78874900  0.63640200  1
  H  H33  1  0.72885800  0.33906900  0.56924000  1
  H  H34  1  0.72691300  0.35362700  0.45188800  1
  H  H35  1  0.72365500  0.64517500  0.50550300  1
  H  H36  1  0.73669200  0.66833100  0.39152700  1
  H  H37  1  0.22885800  0.83906900  0.56924000  1
  H  H38  1  0.22691300  0.85362700  0.45188900  1
  H  H39  1  0.22365500  0.14517500  0.50550300  1
  H  H40  1  0.23669200  0.16833100  0.39152700  1
  H  H41  1  0.00055500  0.59407800  0.05725700  1
  H  H42  1  0.01693700  0.59318900  0.90973000  1
  H  H43  1  0.01498200  0.40590400  0.07257000  1
  H  H44  1  0.99895400  0.40535500  0.92476700  1
  H  H45  1  0.50055500  0.09407800  0.05725700  1
  H  H46  1  0.51693700  0.09318900  0.90973000  1
  H  H47  1  0.51498200  0.90590400  0.07257000  1
  H  H48  1  0.49895400  0.90535500  0.92476700  1
  H  H49  1  0.91865800  0.45446100  0.06083900  1
  H  H50  1  0.91201900  0.46751900  0.90929200  1
  H  H51  1  0.91219400  0.53350500  0.07149200  1
  H  H52  1  0.91991600  0.54642100  0.92003900  1
  H  H53  1  0.41865800  0.95446100  0.06083900  1
  H  H54  1  0.41201900  0.96751900  0.90929200  1
  H  H55  1  0.41219400  0.03350500  0.07149200  1
  H  H56  1  0.41991600  0.04642100  0.92003900  1
  H  H57  1  0.06755800  0.74718400  0.54365000  1
  H  H58  1  0.08139000  0.82579400  0.55478000  1
  H  H59  1  0.15493500  0.75871000  0.73952600  1
  H  H60  1  0.11539100  0.75456600  0.89215300  1
  H  H61  1  0.00888200  0.77176200  0.92058800  1
  H  H62  1  0.94143500  0.79360700  0.79400400  1
  H  H63  1  0.98037200  0.79803400  0.63923700  1
  H  H64  1  0.18270500  0.81957200  0.32420000  1
  H  H65  1  0.13079000  0.86109800  0.39401600  1
  H  H66  1  0.02349600  0.80848600  0.40005500  1
  H  H67  1  0.94211100  0.78411400  0.29568700  1
  H  H68  1  0.96357200  0.76551100  0.13524900  1
  H  H69  1  0.06663700  0.77125300  0.07938700  1
  H  H70  1  0.14814500  0.79499400  0.18296400  1
  H  H71  1  0.08667600  0.16249600  0.51707000  1
  H  H72  1  0.06998200  0.24066000  0.52866600  1
  H  H73  1  0.16122400  0.20675900  0.71537000  1
  H  H74  1  0.12389800  0.19130500  0.86747700  1
  H  H75  1  0.01818000  0.16853400  0.89346300  1
  H  H76  1  0.94922600  0.16149100  0.76482900  1
  H  H77  1  0.98583200  0.17743200  0.61054000  1
  H  H78  1  0.19460200  0.22707200  0.28935000  1
  H  H79  1  0.15178700  0.29346700  0.31111900  1
  H  H80  1  0.05157400  0.18057700  0.36334400  1
  H  H81  1  0.97331500  0.14673700  0.26244000  1
  H  H82  1  0.97801500  0.16843400  0.09995500  1
  H  H83  1  0.06250900  0.22477600  0.03848400  1
  H  H84  1  0.14214500  0.25902700  0.13920400  1
  H  H85  1  0.56755800  0.24718400  0.54365000  1
  H  H86  1  0.58139000  0.32579400  0.55478000  1
  H  H87  1  0.65493500  0.25871000  0.73952600  1
  H  H88  1  0.61539100  0.25456600  0.89215300  1
  H  H89  1  0.50888200  0.27176200  0.92058800  1
  H  H90  1  0.44143500  0.29360700  0.79400400  1
  H  H91  1  0.48037200  0.29803400  0.63923700  1
  H  H92  1  0.68270500  0.31957200  0.32420000  1
  H  H93  1  0.63079000  0.36109800  0.39401600  1
  H  H94  1  0.52349600  0.30848600  0.40005500  1
  H  H95  1  0.44211100  0.28411400  0.29568700  1
  H  H96  1  0.46357200  0.26551100  0.13524900  1
  H  H97  1  0.56663700  0.27125300  0.07938700  1
  H  H98  1  0.64814500  0.29499400  0.18296400  1
  H  H99  1  0.58667600  0.66249600  0.51707000  1
  H  H100  1  0.56998200  0.74066000  0.52866600  1
  H  H101  1  0.66122400  0.70675900  0.71537000  1
  H  H102  1  0.62389800  0.69130500  0.86747700  1
  H  H103  1  0.51818000  0.66853400  0.89346300  1
  H  H104  1  0.44922600  0.66149100  0.76482900  1
  H  H105  1  0.48583200  0.67743200  0.61054000  1
  H  H106  1  0.69460200  0.72707200  0.28935000  1
  H  H107  1  0.65178700  0.79346700  0.31111900  1
  H  H108  1  0.55157400  0.68057700  0.36334400  1
  H  H109  1  0.47331500  0.64673700  0.26244000  1
  H  H110  1  0.47801500  0.66843400  0.09995500  1
  H  H111  1  0.56250900  0.72477600  0.03848400  1
  H  H112  1  0.64214500  0.75902700  0.13920400  1
  H  H113  1  0.06518900  0.37735100  0.79632200  1
  H  H114  1  0.08244600  0.34126400  0.90201500  1
  H  H115  1  0.15322500  0.45125600  0.74553200  1
  H  H116  1  0.25863500  0.44537000  0.70114400  1
  H  H117  1  0.32245100  0.36671100  0.76193200  1
  H  H118  1  0.28043900  0.29262600  0.86515900  1
  H  H119  1  0.17530200  0.29755700  0.90893800  1
  H  H120  1  0.11662100  0.36139000  0.07522100  1
  H  H121  1  0.09464900  0.39658100  0.17963300  1
  H  H122  1  0.20579300  0.42766100  0.99575200  1
  H  H123  1  0.31166300  0.44568700  0.02640600  1
  H  H124  1  0.34882700  0.44490300  0.18263800  1
  H  H125  1  0.27990600  0.42540900  0.30817600  1
  H  H126  1  0.17429700  0.40640800  0.27827500  1
  H  H127  1  0.11921700  0.63626200  0.90792600  1
  H  H128  1  0.09688800  0.60156400  0.80333700  1
  H  H129  1  0.20696400  0.56699200  0.98723300  1
  H  H130  1  0.31267300  0.54783200  0.95689600  1
  H  H131  1  0.35046200  0.55019100  0.80105500  1
  H  H132  1  0.28234100  0.57233200  0.67557500  1
  H  H133  1  0.17692800  0.59270800  0.70517400  1
  H  H134  1  0.06633500  0.62223800  0.18436200  1
  H  H135  1  0.08650800  0.65620300  0.07821900  1
  H  H136  1  0.15055300  0.54677000  0.24198800  1
  H  H137  1  0.25526900  0.54986300  0.29057600  1
  H  H138  1  0.32309200  0.62469400  0.22844400  1
  H  H139  1  0.28572400  0.69795900  0.11986000  1
  H  H140  1  0.18120900  0.69600900  0.07221700  1
  H  H141  1  0.56518900  0.87735100  0.79632200  1
  H  H142  1  0.58244600  0.84126400  0.90201500  1
  H  H143  1  0.65322500  0.95125600  0.74553200  1
  H  H144  1  0.75863500  0.94537000  0.70114400  1
  H  H145  1  0.82245100  0.86671100  0.76193200  1
  H  H146  1  0.78043900  0.79262600  0.86515900  1
  H  H147  1  0.67530200  0.79755700  0.90893800  1
  H  H148  1  0.61662100  0.86139000  0.07522100  1
  H  H149  1  0.59464900  0.89658100  0.17963300  1
  H  H150  1  0.70579300  0.92766100  0.99575200  1
  H  H151  1  0.81166300  0.94568700  0.02640600  1
  H  H152  1  0.84882700  0.94490300  0.18263800  1
  H  H153  1  0.77990600  0.92540900  0.30817600  1
  H  H154  1  0.67429700  0.90640800  0.27827500  1
  H  H155  1  0.61921700  0.13626200  0.90792600  1
  H  H156  1  0.59688800  0.10156400  0.80333700  1
  H  H157  1  0.70696400  0.06699200  0.98723300  1
  H  H158  1  0.81267300  0.04783200  0.95689600  1
  H  H159  1  0.85046200  0.05019100  0.80105500  1
  H  H160  1  0.78234100  0.07233200  0.67557500  1
  H  H161  1  0.67692800  0.09270800  0.70517400  1
  H  H162  1  0.56633500  0.12223800  0.18436200  1
  H  H163  1  0.58650800  0.15620300  0.07821900  1
  H  H164  1  0.65055300  0.04676900  0.24198800  1
  H  H165  1  0.75526900  0.04986300  0.29057600  1
  H  H166  1  0.82309200  0.12469300  0.22844400  1
  H  H167  1  0.78572400  0.19795900  0.11986000  1
  H  H168  1  0.68121000  0.19600900  0.07221700  1
  C  C1  1  0.08568900  0.41843800  0.48976100  1
  C  C2  1  0.08566400  0.58101800  0.49120900  1
  C  C3  1  0.58568900  0.91843800  0.48976100  1
  C  C4  1  0.58566400  0.08101800  0.49120900  1
  C  C5  1  0.92080000  0.41825100  0.49084800  1
  C  C6  1  0.92084400  0.58111600  0.49220800  1
  C  C7  1  0.42080000  0.91825100  0.49084800  1
  C  C8  1  0.42084400  0.08111600  0.49220800  1
  C  C9  1  0.80318600  0.24809800  0.57010600  1
  C  C10  1  0.79512100  0.25575500  0.40367800  1
  C  C11  1  0.78731700  0.73753000  0.58424100  1
  C  C12  1  0.81097700  0.75724500  0.42356000  1
  C  C13  1  0.30318600  0.74809800  0.57010600  1
  C  C14  1  0.29512100  0.75575500  0.40367800  1
  C  C15  1  0.28731700  0.23753000  0.58424100  1
  C  C16  1  0.31097800  0.25724500  0.42356000  1
  C  C17  1  0.24958800  0.70655200  0.40511300  1
  C  C18  1  0.25554900  0.70085400  0.57105900  1
  C  C19  1  0.26310000  0.30415300  0.41960400  1
  C  C20  1  0.24550700  0.29007700  0.57991400  1
  C  C21  1  0.74958800  0.20655200  0.40511300  1
  C  C22  1  0.75554900  0.20085400  0.57105900  1
  C  C23  1  0.76310000  0.80415300  0.41960400  1
  C  C24  1  0.74550700  0.79007700  0.57991400  1
  C  C25  1  0.13088100  0.62572900  0.49131300  1
  C  C26  1  0.13114100  0.37402200  0.48905400  1
  C  C27  1  0.63088100  0.12572900  0.49131300  1
  C  C28  1  0.63114100  0.87402200  0.48905400  1
  C  C29  1  0.79209200  0.28969100  0.49173800  1
  C  C30  1  0.79294100  0.71023300  0.49083500  1
  C  C31  1  0.29209200  0.78969100  0.49173800  1
  C  C32  1  0.29294100  0.21023300  0.49083500  1
  C  C33  1  0.21370700  0.71008200  0.49173100  1
  C  C34  1  0.21452100  0.29025500  0.48867300  1
  C  C35  1  0.71370700  0.21008200  0.49173100  1
  C  C36  1  0.71452100  0.79025500  0.48867300  1
  C  C37  1  0.18294700  0.76981300  0.49871000  1
  C  C38  1  0.18508100  0.22957100  0.47511200  1
  C  C39  1  0.68294700  0.26981300  0.49871000  1
  C  C40  1  0.68508100  0.72957100  0.47511200  1
  C  C41  1  0.73108500  0.31779000  0.50189600  1
  C  C42  1  0.73375600  0.68381900  0.46220400  1
  C  C43  1  0.23108500  0.81779000  0.50189600  1
  C  C44  1  0.23375600  0.18381900  0.46220400  1
  C  C45  1  0.16855100  0.66358700  0.49150200  1
  C  C46  1  0.16907900  0.33646600  0.48858700  1
  C  C47  1  0.66855100  0.16358700  0.49150200  1
  C  C48  1  0.66907900  0.83646600  0.48858700  1
  C  C49  1  0.83778500  0.33571400  0.49141900  1
  C  C50  1  0.83835000  0.66403000  0.49228900  1
  C  C51  1  0.33778500  0.83571400  0.49141900  1
  C  C52  1  0.33835000  0.16403000  0.49228900  1
  C  C53  1  0.87561500  0.37344700  0.49101900  1
  C  C54  1  0.87592800  0.62610100  0.49265400  1
  C  C55  1  0.37561500  0.87344700  0.49101900  1
  C  C56  1  0.37592800  0.12610100  0.49265400  1
  C  C57  1  0.03564300  0.44586500  0.04279900  1
  C  C58  1  0.02976000  0.44207600  0.94120600  1
  C  C59  1  0.03063200  0.55671100  0.04111100  1
  C  C60  1  0.03688200  0.55289000  0.93956400  1
  C  C61  1  0.53564300  0.94586500  0.04279900  1
  C  C62  1  0.52976000  0.94207600  0.94120600  1
  C  C63  1  0.53063200  0.05671100  0.04111100  1
  C  C64  1  0.53688200  0.05289000  0.93956400  1
  C  C65  1  0.00255900  0.50015200  0.07636100  1
  C  C66  1  0.00303300  0.49918300  0.90560200  1
  C  C67  1  0.50255900  0.00015200  0.07636100  1
  C  C68  1  0.50303300  0.99918300  0.90560200  1
  C  C69  1  0.93929600  0.50323900  0.93947700  1
  C  C70  1  0.93895300  0.49727900  0.04165700  1
  C  C71  1  0.43929600  0.00323900  0.93947700  1
  C  C72  1  0.43895300  0.99727900  0.04165700  1
  C  C73  1  0.00333200  0.49885400  0.80692600  1
  C  C74  1  0.00234300  0.50050300  0.17506300  1
  C  C75  1  0.50333200  0.99885400  0.80692600  1
  C  C76  1  0.50234300  0.00050300  0.17506300  1
  C  C77  1  0.09158400  0.78151900  0.58273800  1
  C  C78  1  0.07001200  0.77898000  0.67811800  1
  C  C79  1  0.10793600  0.76668000  0.74959700  1
  C  C80  1  0.08579800  0.76420000  0.83644600  1
  C  C81  1  0.02608100  0.77383500  0.85246400  1
  C  C82  1  0.98830700  0.78606700  0.78155400  1
  C  C83  1  0.01024200  0.78859000  0.69468200  1
  C  C84  1  0.14026500  0.81775600  0.36230800  1
  C  C85  1  0.09106400  0.80336900  0.29851100  1
  C  C86  1  0.03317700  0.80021600  0.32968700  1
  C  C87  1  0.98742200  0.78659600  0.27110200  1
  C  C88  1  0.99943200  0.77618600  0.18119400  1
  C  C89  1  0.05719800  0.77942200  0.14987200  1
  C  C90  1  0.10302700  0.79287600  0.20838600  1
  C  C91  1  0.09578200  0.20307300  0.55659300  1
  C  C92  1  0.07569400  0.19319200  0.65162600  1
  C  C93  1  0.11449100  0.19700500  0.72426600  1
  C  C94  1  0.09362600  0.18821600  0.81087300  1
  C  C95  1  0.03435600  0.17546400  0.82551600  1
  C  C96  1  0.99574100  0.17150100  0.75345200  1
  C  C97  1  0.01637500  0.18040300  0.66683300  1
  C  C98  1  0.15217200  0.24473300  0.31623500  1
  C  C99  1  0.10277800  0.22237300  0.25789000  1
  C  C100  1  0.05513500  0.19068100  0.29236400  1
  C  C101  1  0.01050900  0.17140300  0.23544300  1
  C  C102  1  0.01308900  0.18357100  0.14433300  1
  C  C103  1  0.06039600  0.21509900  0.10990200  1
  C  C104  1  0.10506600  0.23436500  0.16656200  1
  C  C105  1  0.59158400  0.28151900  0.58273800  1
  C  C106  1  0.57001200  0.27898000  0.67811800  1
  C  C107  1  0.60793600  0.26668000  0.74959700  1
  C  C108  1  0.58579800  0.26420000  0.83644600  1
  C  C109  1  0.52608100  0.27383500  0.85246400  1
  C  C110  1  0.48830700  0.28606700  0.78155400  1
  C  C111  1  0.51024200  0.28859000  0.69468200  1
  C  C112  1  0.64026500  0.31775600  0.36230800  1
  C  C113  1  0.59106400  0.30336900  0.29851100  1
  C  C114  1  0.53317700  0.30021600  0.32968700  1
  C  C115  1  0.48742200  0.28659600  0.27110200  1
  C  C116  1  0.49943200  0.27618600  0.18119400  1
  C  C117  1  0.55719800  0.27942200  0.14987200  1
  C  C118  1  0.60302700  0.29287600  0.20838600  1
  C  C119  1  0.59578200  0.70307300  0.55659300  1
  C  C120  1  0.57569400  0.69319200  0.65162600  1
  C  C121  1  0.61449100  0.69700500  0.72426600  1
  C  C122  1  0.59362600  0.68821600  0.81087300  1
  C  C123  1  0.53435600  0.67546400  0.82551600  1
  C  C124  1  0.49574100  0.67150100  0.75345200  1
  C  C125  1  0.51637500  0.68040300  0.66683300  1
  C  C126  1  0.65217200  0.74473300  0.31623500  1
  C  C127  1  0.60277800  0.72237300  0.25789000  1
  C  C128  1  0.55513500  0.69068100  0.29236400  1
  C  C129  1  0.51050900  0.67140300  0.23544300  1
  C  C130  1  0.51308900  0.68357100  0.14433300  1
  C  C131  1  0.56039600  0.71509900  0.10990200  1
  C  C132  1  0.60506600  0.73436500  0.16656200  1
  C  C133  1  0.09378300  0.37891700  0.85738800  1
  C  C134  1  0.15748500  0.37495400  0.83011600  1
  C  C135  1  0.18108500  0.41637100  0.77197100  1
  C  C136  1  0.24026700  0.41326400  0.74732500  1
  C  C137  1  0.27604500  0.36907400  0.78126500  1
  C  C138  1  0.25245900  0.32746900  0.83895200  1
  C  C139  1  0.19320500  0.33025400  0.86324200  1
  C  C140  1  0.11938200  0.40256300  0.11544400  1
  C  C141  1  0.18314000  0.41568100  0.13475600  1
  C  C142  1  0.22186400  0.42700300  0.06447300  1
  C  C143  1  0.28133800  0.43732900  0.08164500  1
  C  C144  1  0.30220000  0.43671500  0.16916700  1
  C  C145  1  0.26356300  0.42568400  0.23952700  1
  C  C146  1  0.20407600  0.41522000  0.22249600  1
  C  C147  1  0.12142500  0.59510200  0.86759000  1
  C  C148  1  0.18502800  0.58115900  0.84842600  1
  C  C149  1  0.22330300  0.56832200  0.91867200  1
  C  C150  1  0.28268600  0.55736300  0.90168000  1
  C  C151  1  0.30390200  0.55885700  0.81437800  1
  C  C152  1  0.26571000  0.57138500  0.74404300  1
  C  C153  1  0.20632400  0.58253900  0.76089500  1
  C  C154  1  0.09581000  0.61886000  0.12443200  1
  C  C155  1  0.15916100  0.62100300  0.15392900  1
  C  C156  1  0.18016400  0.58002700  0.21500800  1
  C  C157  1  0.23895900  0.58155300  0.24200700  1
  C  C158  1  0.27697700  0.62361100  0.20733000  1
  C  C159  1  0.25599600  0.66475700  0.14663400  1
  C  C160  1  0.19709900  0.66364800  0.12013800  1
  C  C161  1  0.59378300  0.87891700  0.85738800  1
  C  C162  1  0.65748500  0.87495400  0.83011600  1
  C  C163  1  0.68108500  0.91637100  0.77197100  1
  C  C164  1  0.74026700  0.91326400  0.74732500  1
  C  C165  1  0.77604500  0.86907400  0.78126500  1
  C  C166  1  0.75245900  0.82746900  0.83895200  1
  C  C167  1  0.69320500  0.83025400  0.86324200  1
  C  C168  1  0.61938200  0.90256300  0.11544400  1
  C  C169  1  0.68314000  0.91568100  0.13475600  1
  C  C170  1  0.72186400  0.92700300  0.06447300  1
  C  C171  1  0.78133800  0.93732900  0.08164500  1
  C  C172  1  0.80220000  0.93671500  0.16916700  1
  C  C173  1  0.76356300  0.92568400  0.23952700  1
  C  C174  1  0.70407600  0.91522000  0.22249600  1
  C  C175  1  0.62142500  0.09510200  0.86759000  1
  C  C176  1  0.68502800  0.08115900  0.84842600  1
  C  C177  1  0.72330300  0.06832200  0.91867200  1
  C  C178  1  0.78268600  0.05736300  0.90168000  1
  C  C179  1  0.80390200  0.05885700  0.81437800  1
  C  C180  1  0.76571000  0.07138500  0.74404300  1
  C  C181  1  0.70632400  0.08253900  0.76089500  1
  C  C182  1  0.59581000  0.11886000  0.12443200  1
  C  C183  1  0.65916100  0.12100300  0.15392900  1
  C  C184  1  0.68016400  0.08002700  0.21500800  1
  C  C185  1  0.73895900  0.08155300  0.24200700  1
  C  C186  1  0.77697700  0.12361100  0.20733000  1
  C  C187  1  0.75599600  0.16475700  0.14663400  1
  C  C188  1  0.69709900  0.16364800  0.12013800  1
  N  N1  1  0.00362900  0.49881500  0.72883700  1
  N  N2  1  0.00236600  0.50056300  0.25316300  1
  N  N3  1  0.50362900  0.99881500  0.72883700  1
  N  N4  1  0.50236600  0.00056300  0.25316300  1
  O  O1  1  0.06625900  0.43738400  0.56813500  1
  O  O2  1  0.06581500  0.43791000  0.41197900  1
  O  O3  1  0.06623100  0.56151300  0.56925800  1
  O  O4  1  0.06579700  0.56203400  0.41309700  1
  O  O5  1  0.56625900  0.93738400  0.56813500  1
  O  O6  1  0.56581500  0.93791000  0.41197900  1
  O  O7  1  0.56623100  0.06151300  0.56925800  1
  O  O8  1  0.56579700  0.06203400  0.41309700  1
  O  O9  1  0.94061600  0.43734600  0.56887100  1
  O  O10  1  0.94017100  0.43785200  0.41280300  1
  O  O11  1  0.94061600  0.56152600  0.56998700  1
  O  O12  1  0.94018300  0.56203700  0.41389900  1
  O  O13  1  0.44061600  0.93734600  0.56887100  1
  O  O14  1  0.44017100  0.93785200  0.41280300  1
  O  O15  1  0.44061600  0.06152600  0.56998700  1
  O  O16  1  0.44018300  0.06203700  0.41389900  1
  O  O17  1  0.15192400  0.77163400  0.57879000  1
  O  O18  1  0.14315600  0.77463000  0.42750800  1
  O  O19  1  0.15563700  0.21557500  0.55379300  1
  O  O20  1  0.14409500  0.22806200  0.40490700  1
  O  O21  1  0.65192400  0.27163400  0.57879000  1
  O  O22  1  0.64315600  0.27463000  0.42750800  1
  O  O23  1  0.65563700  0.71557500  0.55379300  1
  O  O24  1  0.64409500  0.72806200  0.40490700  1
  O  O25  1  0.08427100  0.43080900  0.90293100  1
  O  O26  1  0.09462100  0.44800200  0.06710100  1
  O  O27  1  0.09590100  0.54992400  0.91564800  1
  O  O28  1  0.08517600  0.56679300  0.08001400  1
  O  O29  1  0.58427100  0.93080900  0.90293100  1
  O  O30  1  0.59462100  0.94800200  0.06710100  1
  O  O31  1  0.59590100  0.04992400  0.91564800  1
  O  O32  1  0.58517600  0.06679300  0.08001400  1
