# generated using pymatgen
data_FeH13C22NO8
_symmetry_space_group_name_H-M   'P 1'
_cell_length_a   16.12313900
_cell_length_b   9.33328800
_cell_length_c   17.03032800
_cell_angle_alpha   89.25026000
_cell_angle_beta   84.27468200
_cell_angle_gamma   108.86752900
_symmetry_Int_Tables_number   1
_chemical_formula_structural   FeH13C22NO8
_chemical_formula_sum   'Fe2 H26 C44 N2 O16'
_cell_volume   2410.15894410
_cell_formula_units_Z   2
loop_
 _symmetry_equiv_pos_site_id
 _symmetry_equiv_pos_as_xyz
  1  'x, y, z'
loop_
 _atom_site_type_symbol
 _atom_site_label
 _atom_site_symmetry_multiplicity
 _atom_site_fract_x
 _atom_site_fract_y
 _atom_site_fract_z
 _atom_site_occupancy
  Fe  Fe1  1  0.53740200  0.00447700  0.12147400  1
  Fe  Fe2  1  0.51684700  0.95216700  0.83522300  1
  H  H1  1  0.94465600  0.91132800  0.85056400  1
  H  H2  1  0.18484900  0.85338900  0.88552600  1
  H  H3  1  0.04713500  0.88015300  0.90260600  1
  H  H4  1  0.80549500  0.88810500  0.80870500  1
  H  H5  1  0.24686100  0.07394900  0.14158900  1
  H  H6  1  0.11160500  0.11130800  0.15472300  1
  H  H7  1  0.83215200  0.15262200  0.11336000  1
  H  H8  1  0.52456500  0.67354400  0.57477900  1
  H  H9  1  0.51987200  0.73500400  0.34675600  1
  H  H10  1  0.51595600  0.27720300  0.38275000  1
  H  H11  1  0.49340700  0.47014000  0.80374600  1
  H  H12  1  0.54154800  0.46404900  0.15080900  1
  H  H13  1  0.95157100  0.24057600  0.34581500  1
  H  H14  1  0.00511800  0.42041300  0.29136700  1
  H  H15  1  0.89189100  0.37208400  0.33440900  1
  H  H16  1  0.90102000  0.34227200  0.19063300  1
  H  H17  1  0.84722300  0.16102100  0.24543000  1
  H  H18  1  0.98814600  0.10788300  0.23153300  1
  H  H19  1  0.04134800  0.28737100  0.17682500  1
  H  H20  1  0.39052300  0.94973000  0.48270100  1
  H  H21  1  0.33905400  0.86995200  0.58006000  1
  H  H22  1  0.27618100  0.92917200  0.51186600  1
  H  H23  1  0.32197800  0.11503900  0.61595800  1
  H  H24  1  0.36685800  0.19393300  0.51771100  1
  H  H25  1  0.51013200  0.15476100  0.53963400  1
  H  H26  1  0.45920800  0.05777500  0.63109400  1
  C  C1  1  0.89838700  0.93755700  0.89295900  1
  C  C2  1  0.28039600  0.91845400  0.96858400  1
  C  C3  1  0.19870100  0.89862100  0.94262600  1
  C  C4  1  0.13644000  0.94670000  0.98621000  1
  C  C5  1  0.05794500  0.93599800  0.95715100  1
  C  C6  1  0.99662300  0.99322800  0.99770700  1
  C  C7  1  0.81857300  0.92642800  0.86723900  1
  C  C8  1  0.75415100  0.95799400  0.91567600  1
  C  C9  1  0.91708100  0.98592300  0.96816100  1
  C  C10  1  0.85435200  0.02892200  0.01485900  1
  C  C11  1  0.77035900  0.00456700  0.99130700  1
  C  C12  1  0.29634900  0.97799000  0.04249100  1
  C  C13  1  0.23298600  0.02338400  0.08558500  1
  C  C14  1  0.15408000  0.01008000  0.05703300  1
  C  C15  1  0.09384800  0.06313500  0.09923000  1
  C  C16  1  0.01498400  0.05631400  0.07030300  1
  C  C17  1  0.95579900  0.11487100  0.11278900  1
  C  C18  1  0.87629400  0.10058400  0.08412700  1
  C  C19  1  0.69618700  0.00300500  0.05009400  1
  C  C20  1  0.53137100  0.73407500  0.18691600  1
  C  C21  1  0.38163100  0.01351300  0.07377900  1
  C  C22  1  0.52951800  0.21571700  0.23276800  1
  C  C23  1  0.51713400  0.73202700  0.72581400  1
  C  C24  1  0.66747500  0.92585500  0.88764700  1
  C  C25  1  0.48532900  0.19342300  0.76522300  1
  C  C26  1  0.35068000  0.89836700  0.91171200  1
  C  C27  1  0.48770400  0.31813500  0.70970300  1
  C  C28  1  0.48553400  0.30324000  0.62828300  1
  C  C29  1  0.50060800  0.43149300  0.57931300  1
  C  C30  1  0.51216800  0.57174300  0.61134800  1
  C  C31  1  0.50529800  0.58347900  0.69212100  1
  C  C32  1  0.49329300  0.45724400  0.74079700  1
  C  C33  1  0.52294400  0.62959100  0.32329300  1
  C  C34  1  0.53027200  0.61253500  0.24253200  1
  C  C35  1  0.53601400  0.47867100  0.21369700  1
  C  C36  1  0.53022100  0.35980500  0.26481300  1
  C  C37  1  0.52029800  0.37426800  0.34528200  1
  C  C38  1  0.51853200  0.51126600  0.37506800  1
  C  C39  1  0.97890300  0.19132400  0.18919600  1
  C  C40  1  0.91040400  0.25407000  0.22974600  1
  C  C41  1  0.94201400  0.32641800  0.30523300  1
  C  C42  1  0.46127000  0.15191700  0.59082000  1
  C  C43  1  0.36935900  0.11258900  0.56451700  1
  C  C44  1  0.34220100  0.95498900  0.53277400  1
  N  N1  1  0.50601600  0.41545300  0.49659100  1
  N  N2  1  0.51226700  0.53259600  0.45738800  1
  O  O1  1  0.62756600  0.03474500  0.02950500  1
  O  O2  1  0.53556800  0.71372100  0.11069900  1
  O  O3  1  0.69469500  0.95523600  0.12319800  1
  O  O4  1  0.52938300  0.86468400  0.21245400  1
  O  O5  1  0.41951300  0.90968400  0.08213000  1
  O  O6  1  0.41782600  0.14968300  0.09856300  1
  O  O7  1  0.56916300  0.21429900  0.16172300  1
  O  O8  1  0.48128000  0.08862700  0.27103800  1
  O  O9  1  0.47673800  0.74161000  0.79561700  1
  O  O10  1  0.57059800  0.85505100  0.68721300  1
  O  O11  1  0.63773900  0.03678100  0.87035400  1
  O  O12  1  0.62242000  0.78592200  0.87367300  1
  O  O13  1  0.33597200  0.87273700  0.83794500  1
  O  O14  1  0.52542600  0.09441200  0.74511800  1
  O  O15  1  0.43148600  0.93030600  0.93017100  1
  O  O16  1  0.45337000  0.19386100  0.83908500  1
