# generated using pymatgen
data_CuH9C19NO4
_symmetry_space_group_name_H-M   'P 1'
_cell_length_a   8.49520500
_cell_length_b   13.01119800
_cell_length_c   14.18791200
_cell_angle_alpha   109.27669800
_cell_angle_beta   91.90114000
_cell_angle_gamma   93.52577700
_symmetry_Int_Tables_number   1
_chemical_formula_structural   CuH9C19NO4
_chemical_formula_sum   'Cu2 H18 C38 N2 O8'
_cell_volume   1475.12330795
_cell_formula_units_Z   2
loop_
 _symmetry_equiv_pos_site_id
 _symmetry_equiv_pos_as_xyz
  1  'x, y, z'
loop_
 _atom_site_type_symbol
 _atom_site_label
 _atom_site_symmetry_multiplicity
 _atom_site_fract_x
 _atom_site_fract_y
 _atom_site_fract_z
 _atom_site_occupancy
  Cu  Cu1  1  0.99148600  0.95798000  0.90119100  1
  Cu  Cu2  1  0.00851400  0.04202000  0.09880900  1
  H  H1  1  0.03561200  0.29001600  0.58764900  1
  H  H2  1  0.96438800  0.70998400  0.41235000  1
  H  H3  1  0.99687600  0.06303400  0.75640300  1
  H  H4  1  0.00312400  0.93696700  0.24359700  1
  H  H5  1  0.96289100  0.73959200  0.74793300  1
  H  H6  1  0.03710900  0.26040800  0.25206700  1
  H  H7  1  0.04345300  0.32567100  0.43508800  1
  H  H8  1  0.95654600  0.67432900  0.56491100  1
  H  H9  1  0.01701700  0.16994000  0.68045000  1
  H  H10  1  0.98298300  0.83006000  0.31955000  1
  H  H11  1  0.48646200  0.05737200  0.96226200  1
  H  H12  1  0.51353800  0.94262800  0.03773800  1
  H  H13  1  0.79591500  0.33547000  0.01120600  1
  H  H14  1  0.20408400  0.66453100  0.98879400  1
  H  H15  1  0.81863100  0.47500700  0.97625900  1
  H  H16  1  0.18136800  0.52499400  0.02374000  1
  H  H17  1  0.84934300  0.65983400  0.98801300  1
  H  H18  1  0.15065700  0.34016600  0.01198700  1
  C  C1  1  0.21377600  0.87002100  0.00833200  1
  C  C2  1  0.78622300  0.12997900  0.99166800  1
  C  C3  1  0.22263200  0.14553100  0.99350600  1
  C  C4  1  0.77736700  0.85446900  0.00649400  1
  C  C5  1  0.03415600  0.23890200  0.39460900  1
  C  C6  1  0.96584400  0.76109800  0.60539100  1
  C  C7  1  0.03101000  0.20252200  0.29194100  1
  C  C8  1  0.96899000  0.79747900  0.70805800  1
  C  C9  1  0.01092700  0.02116400  0.28958300  1
  C  C10  1  0.98907300  0.97883700  0.71041700  1
  C  C11  1  0.01144500  0.05413300  0.39386100  1
  C  C12  1  0.98855500  0.94586700  0.60613900  1
  C  C13  1  0.02379400  0.16498100  0.44538700  1
  C  C14  1  0.97620600  0.83502000  0.55461300  1
  C  C15  1  0.99942200  0.98031600  0.44765500  1
  C  C16  1  0.00057800  0.01968400  0.55234500  1
  C  C17  1  0.01433300  0.13217700  0.60082000  1
  C  C18  1  0.98566700  0.86782300  0.39918000  1
  C  C19  1  0.02553900  0.20311500  0.54774700  1
  C  C20  1  0.97446000  0.79688500  0.45225300  1
  C  C21  1  0.37475200  0.20397000  0.98936600  1
  C  C22  1  0.62524800  0.79603100  0.01063400  1
  C  C23  1  0.50335800  0.14351600  0.97582000  1
  C  C24  1  0.49664200  0.85648400  0.02418000  1
  C  C25  1  0.65269500  0.19307100  0.98735000  1
  C  C26  1  0.34730500  0.80692900  0.01265000  1
  C  C27  1  0.67540300  0.30189000  0.99953800  1
  C  C28  1  0.32459700  0.69811100  0.00046200  1
  C  C29  1  0.54648300  0.36219800  0.99752700  1
  C  C30  1  0.45351700  0.63780200  0.00247300  1
  C  C31  1  0.39576700  0.31378800  0.99844700  1
  C  C32  1  0.60423200  0.68621300  0.00155300  1
  C  C33  1  0.56564900  0.46995200  0.99708500  1
  C  C34  1  0.43435100  0.53004900  0.00291500  1
  C  C35  1  0.28680400  0.48211700  0.01196200  1
  C  C36  1  0.71319600  0.51788300  0.98803700  1
  C  C37  1  0.26782000  0.37505000  0.00768500  1
  C  C38  1  0.73218000  0.62495100  0.99231500  1
  N  N1  1  0.01946600  0.09488700  0.24131500  1
  N  N2  1  0.98053400  0.90511300  0.75868500  1
  O  O1  1  0.15108400  0.86448800  0.92082500  1
  O  O2  1  0.84891600  0.13551200  0.07917500  1
  O  O3  1  0.16968200  0.94001300  0.09118100  1
  O  O4  1  0.83031700  0.05998800  0.90881800  1
  O  O5  1  0.16196200  0.07085500  0.91111300  1
  O  O6  1  0.83803800  0.92914600  0.08888600  1
  O  O7  1  0.17426900  0.14597000  0.08086400  1
  O  O8  1  0.82573100  0.85403100  0.91913600  1
