# generated using pymatgen
data_FeH10C21O8
_symmetry_space_group_name_H-M   'P 1'
_cell_length_a   15.75052400
_cell_length_b   9.53909100
_cell_length_c   18.01666100
_cell_angle_alpha   89.14853800
_cell_angle_beta   85.67501200
_cell_angle_gamma   104.53919800
_symmetry_Int_Tables_number   1
_chemical_formula_structural   FeH10C21O8
_chemical_formula_sum   'Fe2 H20 C42 O16'
_cell_volume   2611.17597800
_cell_formula_units_Z   2
loop_
 _symmetry_equiv_pos_site_id
 _symmetry_equiv_pos_as_xyz
  1  'x, y, z'
loop_
 _atom_site_type_symbol
 _atom_site_label
 _atom_site_symmetry_multiplicity
 _atom_site_fract_x
 _atom_site_fract_y
 _atom_site_fract_z
 _atom_site_occupancy
  Fe  Fe1  1  0.49189500  0.99423900  0.16555900  1
  Fe  Fe2  1  0.49636900  0.98547100  0.83746000  1
  H  H1  1  0.18228600  0.01560500  0.88536100  1
  H  H2  1  0.21106100  0.94995100  0.15098800  1
  H  H3  1  0.06919400  0.06225500  0.85669900  1
  H  H4  1  0.92889400  0.06939100  0.82375700  1
  H  H5  1  0.06127300  0.92514600  0.17895800  1
  H  H6  1  0.92124000  0.93238500  0.14617700  1
  H  H7  1  0.77849600  0.04226000  0.85164900  1
  H  H8  1  0.80713500  0.97280400  0.11695600  1
  H  H9  1  0.50834400  0.25530300  0.62863500  1
  H  H10  1  0.52544000  0.70611500  0.59546400  1
  H  H11  1  0.49736300  0.72919800  0.36551200  1
  H  H12  1  0.48162800  0.28121000  0.40197900  1
  H  H13  1  0.49352100  0.52293400  0.81471200  1
  H  H14  1  0.53789900  0.35783600  0.50415200  1
  H  H15  1  0.47171700  0.63262800  0.49111300  1
  H  H16  1  0.59178500  0.53917300  0.13375800  1
  H  H17  1  0.55764100  0.36260500  0.09480100  1
  H  H18  1  0.52294500  0.51168400  0.05621500  1
  H  H19  1  0.41944300  0.31306800  0.15723400  1
  H  H20  1  0.40708100  0.48691500  0.14553800  1
  C  C1  1  0.27731500  0.98667000  0.04257300  1
  C  C2  1  0.26801000  0.00302400  0.96722400  1
  C  C3  1  0.18653100  0.00695500  0.94423100  1
  C  C4  1  0.20421900  0.96409600  0.09230300  1
  C  C5  1  0.12356100  0.96869500  0.06908400  1
  C  C6  1  0.11342400  0.99494100  0.99512600  1
  C  C7  1  0.03069800  0.00630400  0.97437400  1
  C  C8  1  0.01791000  0.03932500  0.90118900  1
  C  C9  1  0.93672100  0.04585000  0.88134800  1
  C  C10  1  0.05336700  0.94799000  0.12130100  1
  C  C11  1  0.97221300  0.95433400  0.10146300  1
  C  C12  1  0.95928400  0.98645500  0.02818000  1
  C  C13  1  0.87642900  0.99696300  0.00736200  1
  C  C14  1  0.86630000  0.02386400  0.93347200  1
  C  C15  1  0.78540900  0.02756900  0.91028400  1
  C  C16  1  0.80307500  0.98281100  0.05816600  1
  C  C17  1  0.72131200  0.98485200  0.03524400  1
  C  C18  1  0.71205400  0.00262200  0.95991300  1
  C  C19  1  0.64778300  0.97482700  0.09260400  1
  C  C20  1  0.48804900  0.72922200  0.21943900  1
  C  C21  1  0.36311600  0.00417000  0.07247000  1
  C  C22  1  0.47804700  0.20659600  0.26435800  1
  C  C23  1  0.51130100  0.77122600  0.73698900  1
  C  C24  1  0.62607200  0.98218300  0.92983100  1
  C  C25  1  0.49914500  0.25153300  0.77847200  1
  C  C26  1  0.34132800  0.01012100  0.91009300  1
  C  C27  1  0.50153500  0.37498600  0.72739300  1
  C  C28  1  0.50795500  0.35951700  0.65115500  1
  C  C29  1  0.51315200  0.47623600  0.60294700  1
  C  C30  1  0.51614200  0.61133400  0.63153100  1
  C  C31  1  0.50718500  0.62718200  0.70745300  1
  C  C32  1  0.49861100  0.50864500  0.75530700  1
  C  C33  1  0.51705200  0.45231300  0.52224600  1
  C  C34  1  0.49283000  0.53846400  0.47285100  1
  C  C35  1  0.49188700  0.62279200  0.34360500  1
  C  C36  1  0.48591700  0.60188000  0.26794800  1
  C  C37  1  0.47766500  0.46274800  0.24106200  1
  C  C38  1  0.48027700  0.35096600  0.29063400  1
  C  C39  1  0.48453600  0.37337700  0.36563400  1
  C  C40  1  0.49088800  0.50983000  0.39269600  1
  C  C41  1  0.45504900  0.42775700  0.16241400  1
  C  C42  1  0.53725100  0.46272100  0.10856200  1
  O  O1  1  0.57614200  0.01144500  0.07667800  1
  O  O2  1  0.49628400  0.72474300  0.14667500  1
  O  O3  1  0.65635600  0.94000200  0.16188700  1
  O  O4  1  0.48644900  0.85339300  0.24863700  1
  O  O5  1  0.37073900  0.92562900  0.13090200  1
  O  O6  1  0.42926600  0.11222900  0.04786000  1
  O  O7  1  0.53013500  0.19269400  0.20623800  1
  O  O8  1  0.41857600  0.09363700  0.29381300  1
  O  O9  1  0.46382300  0.78452500  0.79840600  1
  O  O10  1  0.56500000  0.88630200  0.70351200  1
  O  O11  1  0.61629900  0.06356000  0.87320600  1
  O  O12  1  0.56225600  0.86864300  0.95200100  1
  O  O13  1  0.33468300  0.05111100  0.84140200  1
  O  O14  1  0.49921800  0.12256000  0.75310600  1
  O  O15  1  0.41049000  0.96507300  0.92549700  1
  O  O16  1  0.49804000  0.27029100  0.85052000  1
