# generated using pymatgen
data_Zn3H28C50(NO9)2
_symmetry_space_group_name_H-M   'P 1'
_cell_length_a   21.86896800
_cell_length_b   21.87623700
_cell_length_c   46.91876600
_cell_angle_alpha   90.00000000
_cell_angle_beta   90.00000000
_cell_angle_gamma   90.00000000
_symmetry_Int_Tables_number   1
_chemical_formula_structural   Zn3H28C50(NO9)2
_chemical_formula_sum   'Zn12 H112 C200 N8 O72'
_cell_volume   22446.44094794
_cell_formula_units_Z   4
loop_
 _symmetry_equiv_pos_site_id
 _symmetry_equiv_pos_as_xyz
  1  'x, y, z'
loop_
 _atom_site_type_symbol
 _atom_site_label
 _atom_site_symmetry_multiplicity
 _atom_site_fract_x
 _atom_site_fract_y
 _atom_site_fract_z
 _atom_site_occupancy
  Zn  Zn1  1  0.99699000  0.99938700  0.03374400  1
  Zn  Zn2  1  0.50263700  0.49975600  0.53263300  1
  Zn  Zn3  1  0.99855100  0.99966500  0.96914400  1
  Zn  Zn4  1  0.49768300  0.50110900  0.46814000  1
  Zn  Zn5  1  0.50026800  0.06906400  0.00112400  1
  Zn  Zn6  1  0.92854600  0.50188400  0.00064400  1
  Zn  Zn7  1  0.49519700  0.93061600  0.00173600  1
  Zn  Zn8  1  0.06706300  0.49715200  0.00006100  1
  Zn  Zn9  1  0.00197000  0.56882500  0.50062200  1
  Zn  Zn10  1  0.42898600  0.00140500  0.49887600  1
  Zn  Zn11  1  0.99841900  0.43032900  0.49986400  1
  Zn  Zn12  1  0.56695000  0.99922700  0.50387800  1
  H  H1  1  0.07347200  0.56339500  0.14338800  1
  H  H2  1  0.44527600  0.07713400  0.14554200  1
  H  H3  1  0.92699700  0.43742100  0.14454700  1
  H  H4  1  0.56680700  0.92704500  0.14475100  1
  H  H5  1  0.55925800  0.05768700  0.64673000  1
  H  H6  1  0.93400700  0.57341600  0.64382100  1
  H  H7  1  0.40185000  0.94616500  0.64354000  1
  H  H8  1  0.05493400  0.42284000  0.64412600  1
  H  H9  1  0.80385700  0.94074100  0.96118400  1
  H  H10  1  0.06266200  0.80661900  0.96453400  1
  H  H11  1  0.19147500  0.07069300  0.96803100  1
  H  H12  1  0.93182500  0.19302200  0.96430400  1
  H  H13  1  0.30666500  0.42771300  0.46885200  1
  H  H14  1  0.42367500  0.30679400  0.47231000  1
  H  H15  1  0.69367000  0.55417800  0.45893600  1
  H  H16  1  0.42859800  0.69380200  0.46803200  1
  H  H17  1  0.69122500  0.93922800  0.96168800  1
  H  H18  1  0.06418600  0.69407700  0.96445600  1
  H  H19  1  0.30402100  0.07245600  0.96876500  1
  H  H20  1  0.93037100  0.30555700  0.96462000  1
  H  H21  1  0.19427200  0.42566100  0.46953500  1
  H  H22  1  0.42166100  0.19458500  0.47364300  1
  H  H23  1  0.80639500  0.55601400  0.45930800  1
  H  H24  1  0.42631900  0.80617600  0.46881900  1
  H  H25  1  0.69255900  0.10295400  0.04310400  1
  H  H26  1  0.88780800  0.69359100  0.04004300  1
  H  H27  1  0.30268600  0.88369000  0.03747800  1
  H  H28  1  0.10889300  0.30485800  0.03904900  1
  H  H29  1  0.19500700  0.62078300  0.53420600  1
  H  H30  1  0.59176100  0.19618900  0.55261800  1
  H  H31  1  0.80603400  0.39671300  0.54282000  1
  H  H32  1  0.62023500  0.80572000  0.53463600  1
  H  H33  1  0.69080800  0.03030300  0.06475500  1
  H  H34  1  0.95696600  0.69096900  0.06406000  1
  H  H35  1  0.30437300  0.94833200  0.06409800  1
  H  H36  1  0.04048900  0.30706800  0.06354300  1
  H  H37  1  0.19326800  0.55900800  0.56226400  1
  H  H38  1  0.64082500  0.19592700  0.51957500  1
  H  H39  1  0.80755800  0.47092200  0.56329600  1
  H  H40  1  0.55724300  0.80701700  0.56211600  1
  H  H41  1  0.80380400  0.10117600  0.04367700  1
  H  H42  1  0.88977800  0.80477300  0.04131500  1
  H  H43  1  0.19144600  0.88528700  0.03801600  1
  H  H44  1  0.10700900  0.19364900  0.03994800  1
  H  H45  1  0.30623000  0.61937600  0.53485100  1
  H  H46  1  0.59113800  0.30706700  0.55244000  1
  H  H47  1  0.69480000  0.39811900  0.54355100  1
  H  H48  1  0.61916900  0.69449700  0.53512500  1
  H  H49  1  0.80206400  0.02881500  0.06555400  1
  H  H50  1  0.95850800  0.80220900  0.06560100  1
  H  H51  1  0.19301900  0.94944000  0.06489100  1
  H  H52  1  0.03904900  0.19578700  0.06470900  1
  H  H53  1  0.30466700  0.55816500  0.56318000  1
  H  H54  1  0.63977200  0.30705900  0.51921100  1
  H  H55  1  0.69640200  0.47211700  0.56417200  1
  H  H56  1  0.55668000  0.69573100  0.56285200  1
  H  H57  1  0.00099600  0.65298500  0.22482600  1
  H  H58  1  0.35704900  0.00524600  0.22736400  1
  H  H59  1  0.00413400  0.34858900  0.22507000  1
  H  H60  1  0.66146300  0.00011300  0.22498100  1
  H  H61  1  0.49217200  0.15223700  0.72650800  1
  H  H62  1  0.84269800  0.50217600  0.72519800  1
  H  H63  1  0.46625400  0.84894700  0.72576500  1
  H  H64  1  0.14712400  0.49516500  0.72475000  1
  H  H65  1  0.49848800  0.15109800  0.77782300  1
  H  H66  1  0.84318300  0.50591900  0.77659500  1
  H  H67  1  0.46551400  0.84848800  0.77720200  1
  H  H68  1  0.14736100  0.49179500  0.77613700  1
  H  H69  1  0.00575700  0.65318100  0.27620000  1
  H  H70  1  0.35899400  0.00833100  0.27873300  1
  H  H71  1  0.00171800  0.34879600  0.27647300  1
  H  H72  1  0.66321500  0.99630700  0.27638800  1
  H  H73  1  0.55392900  0.92688200  0.85836400  1
  H  H74  1  0.06388700  0.56977800  0.85801200  1
  H  H75  1  0.42128200  0.07048400  0.86049900  1
  H  H76  1  0.92811300  0.42902400  0.85863900  1
  H  H77  1  0.07735200  0.43566400  0.35823400  1
  H  H78  1  0.58016000  0.06966700  0.36056600  1
  H  H79  1  0.93223100  0.56678800  0.35831600  1
  H  H80  1  0.44632200  0.92718200  0.35844400  1
  H  H81  1  0.55550500  0.92534800  0.91033800  1
  H  H82  1  0.06715700  0.56709500  0.90993900  1
  H  H83  1  0.42839800  0.07301100  0.91230400  1
  H  H84  1  0.92688500  0.43189800  0.91060000  1
  H  H85  1  0.07412300  0.43264800  0.41018300  1
  H  H86  1  0.57951300  0.06609600  0.41258300  1
  H  H87  1  0.93449100  0.56848000  0.41026900  1
  H  H88  1  0.44125900  0.92888700  0.41027900  1
  H  H89  1  0.04968300  0.60737300  0.06991400  1
  H  H90  1  0.11655400  0.56058000  0.07646800  1
  H  H91  1  0.07272800  0.66471100  0.10153700  1
  H  H92  1  0.39513700  0.05489300  0.07292300  1
  H  H93  1  0.44460700  0.12025600  0.07851000  1
  H  H94  1  0.34138800  0.07974500  0.10567100  1
  H  H95  1  0.94649800  0.39214100  0.07100400  1
  H  H96  1  0.88007200  0.43920300  0.07811400  1
  H  H97  1  0.92513400  0.33556800  0.10320800  1
  H  H98  1  0.60728200  0.94502400  0.07043400  1
  H  H99  1  0.55919900  0.87999900  0.07872800  1
  H  H100  1  0.66590200  0.92317800  0.10177000  1
  H  H101  1  0.54766500  0.10501300  0.57294200  1
  H  H102  1  0.61064000  0.05511000  0.58247300  1
  H  H103  1  0.56476200  0.16075800  0.60631300  1
  H  H104  1  0.89078500  0.55444600  0.56976200  1
  H  H105  1  0.93866900  0.61964500  0.57799800  1
  H  H106  1  0.83288100  0.57515200  0.60160600  1
  H  H107  1  0.42587200  0.89896900  0.57094400  1
  H  H108  1  0.36414200  0.95351600  0.57520800  1
  H  H109  1  0.39229100  0.84656900  0.60241200  1
  H  H110  1  0.10267700  0.44392700  0.57118600  1
  H  H111  1  0.05300000  0.37883300  0.57709600  1
  H  H112  1  0.15717200  0.41877300  0.60358900  1
  C  C1  1  0.00309400  0.88021000  0.00187000  1
  C  C2  1  0.11701100  0.00493000  0.00260500  1
  C  C3  1  0.99249400  0.11878800  0.00095400  1
  C  C4  1  0.87844100  0.99417400  0.00026000  1
  C  C5  1  0.50341500  0.38116100  0.49912100  1
  C  C6  1  0.61956200  0.50370100  0.49925300  1
  C  C7  1  0.49670000  0.61969200  0.50160000  1
  C  C8  1  0.38082200  0.49701100  0.50148000  1
  C  C9  1  0.48736000  0.99872600  0.85563700  1
  C  C10  1  0.99595800  0.49936600  0.85452300  1
  C  C11  1  0.00481900  0.50126800  0.35447700  1
  C  C12  1  0.51316600  0.99872300  0.35571000  1
  C  C13  1  0.04040600  0.53666600  0.13170100  1
  C  C14  1  0.47023600  0.04340600  0.13342800  1
  C  C15  1  0.95934900  0.46396200  0.13234500  1
  C  C16  1  0.54048500  0.96027300  0.13296600  1
  C  C17  1  0.52506400  0.03457800  0.63410400  1
  C  C18  1  0.95967800  0.53982600  0.63194600  1
  C  C19  1  0.43773900  0.96986100  0.63225500  1
  C  C20  1  0.02961200  0.45643000  0.63209300  1
  C  C21  1  0.99858000  0.49993500  0.08759000  1
  C  C22  1  0.50250800  0.00059500  0.08872800  1
  C  C23  1  0.48547700  0.00280300  0.58865800  1
  C  C24  1  0.99564200  0.49858700  0.58753600  1
  C  C25  1  0.00033000  0.50041500  0.14683200  1
  C  C26  1  0.50618300  0.00215000  0.14801500  1
  C  C27  1  0.48025400  0.00190700  0.64799300  1
  C  C28  1  0.99452000  0.49814300  0.64683400  1
  C  C29  1  0.77790700  0.01903500  0.02109500  1
  C  C30  1  0.97521700  0.77922200  0.02146600  1
  C  C31  1  0.21745300  0.97396000  0.02173000  1
  C  C32  1  0.02094600  0.21947200  0.02077200  1
  C  C33  1  0.28041200  0.52904700  0.52063300  1
  C  C34  1  0.54534500  0.28103300  0.51346500  1
  C  C35  1  0.72026800  0.47855200  0.51953600  1
  C  C36  1  0.52938900  0.72015500  0.52005600  1
  C  C37  1  0.81177400  0.99195800  0.00002700  1
  C  C38  1  0.00554500  0.81357500  0.00156600  1
  C  C39  1  0.18363000  0.00748300  0.00277400  1
  C  C40  1  0.99002800  0.18543700  0.00094700  1
  C  C41  1  0.31429100  0.49391200  0.50235100  1
  C  C42  1  0.50283700  0.31463200  0.49890100  1
  C  C43  1  0.68619700  0.50469300  0.49828000  1
  C  C44  1  0.49446900  0.68624800  0.50169800  1
  C  C45  1  0.77958600  0.96327900  0.97827900  1
  C  C46  1  0.03753800  0.78191300  0.98068400  1
  C  C47  1  0.21580400  0.04300400  0.98337400  1
  C  C48  1  0.95742900  0.21744600  0.98038300  1
  C  C49  1  0.28222900  0.45660300  0.48367000  1
  C  C50  1  0.45851400  0.28242600  0.48405800  1
  C  C51  1  0.71813200  0.53231000  0.47616100  1
  C  C52  1  0.45743500  0.71823600  0.48287200  1
  C  C53  1  0.71575400  0.96211700  0.97860500  1
  C  C54  1  0.03868100  0.71811300  0.98069900  1
  C  C55  1  0.27960100  0.04430700  0.98389600  1
  C  C56  1  0.95632700  0.28124000  0.98061600  1
  C  C57  1  0.21850700  0.45520000  0.48414500  1
  C  C58  1  0.45721500  0.21873500  0.48500700  1
  C  C59  1  0.78198800  0.53371100  0.47643100  1
  C  C60  1  0.45586400  0.78196200  0.48343500  1
  C  C61  1  0.68364400  0.99210800  0.99991700  1
  C  C62  1  0.00523900  0.68546600  0.00068100  1
  C  C63  1  0.31176400  0.00767600  0.00281900  1
  C  C64  1  0.99033100  0.31356300  0.00049800  1
  C  C65  1  0.18620200  0.49355700  0.50222400  1
  C  C66  1  0.50190400  0.18654000  0.49975400  1
  C  C67  1  0.81428000  0.50511900  0.49811500  1
  C  C68  1  0.49366400  0.81427300  0.50179600  1
  C  C69  1  0.71736500  0.02037700  0.02063000  1
  C  C70  1  0.97376000  0.71869800  0.02056300  1
  C  C71  1  0.27802000  0.97277100  0.02121500  1
  C  C72  1  0.02235300  0.28001800  0.02007500  1
  C  C73  1  0.21980100  0.53012100  0.52000900  1
  C  C74  1  0.54590200  0.22042300  0.51334100  1
  C  C75  1  0.78077300  0.47747800  0.51906000  1
  C  C76  1  0.53025700  0.78071000  0.51955300  1
  C  C77  1  0.71168800  0.05681000  0.04711700  1
  C  C78  1  0.93327400  0.71244300  0.04571400  1
  C  C79  1  0.28353900  0.92795400  0.04475300  1
  C  C80  1  0.06362000  0.28589000  0.04496700  1
  C  C81  1  0.21416300  0.57735000  0.54249600  1
  C  C82  1  0.60150000  0.21565600  0.53131800  1
  C  C83  1  0.78673600  0.44305000  0.54610900  1
  C  C84  1  0.57650800  0.78635800  0.54248600  1
  C  C85  1  0.78306900  0.05567800  0.04757300  1
  C  C86  1  0.93450100  0.78378800  0.04663900  1
  C  C87  1  0.21214500  0.92892100  0.04520500  1
  C  C88  1  0.06244900  0.21452700  0.04565000  1
  C  C89  1  0.28557100  0.57653300  0.54303200  1
  C  C90  1  0.60100400  0.28699500  0.53123000  1
  C  C91  1  0.71537300  0.44395300  0.54662400  1
  C  C92  1  0.57589700  0.71498700  0.54291000  1
  C  C93  1  0.03823900  0.53869900  0.10223400  1
  C  C94  1  0.46606300  0.04141600  0.10399500  1
  C  C95  1  0.95977300  0.46144900  0.10287000  1
  C  C96  1  0.54097800  0.96071200  0.10345500  1
  C  C97  1  0.52636800  0.03776500  0.60468700  1
  C  C98  1  0.95786500  0.53879600  0.60245900  1
  C  C99  1  0.44139500  0.96782700  0.60275700  1
  C  C100  1  0.03260200  0.45789700  0.60262700  1
  C  C101  1  0.49497500  0.99999500  0.94572000  1
  C  C102  1  0.99793900  0.49940600  0.94463800  1
  C  C103  1  0.00337900  0.49960700  0.44455700  1
  C  C104  1  0.50553700  0.99878900  0.44576600  1
  C  C105  1  0.61711100  0.99401500  0.00018900  1
  C  C106  1  0.00336000  0.61891500  0.00042900  1
  C  C107  1  0.37833700  0.00565000  0.00270600  1
  C  C108  1  0.99221300  0.38011400  0.00041700  1
  C  C109  1  0.11962500  0.49511400  0.50187800  1
  C  C110  1  0.50146500  0.11985500  0.50068800  1
  C  C111  1  0.88079700  0.50402900  0.49863500  1
  C  C112  1  0.49446100  0.88083300  0.50197400  1
  C  C113  1  0.50048400  0.99970500  0.05730800  1
  C  C114  1  0.99768000  0.49966900  0.05620900  1
  C  C115  1  0.99697500  0.49954700  0.55611300  1
  C  C116  1  0.49032800  0.00173100  0.55722500  1
  C  C117  1  0.00471800  0.44714700  0.19176600  1
  C  C118  1  0.56158500  0.00401200  0.19249800  1
  C  C119  1  0.99866500  0.55415000  0.19170100  1
  C  C120  1  0.45444000  0.00102400  0.19337900  1
  C  C121  1  0.47617400  0.94753000  0.69273400  1
  C  C122  1  0.04828200  0.49974500  0.69168000  1
  C  C123  1  0.48035300  0.05461300  0.69308400  1
  C  C124  1  0.94110300  0.49729600  0.69181900  1
  C  C125  1  0.00131400  0.55499500  0.22113900  1
  C  C126  1  0.45488500  0.00294200  0.22282800  1
  C  C127  1  0.00361700  0.44655100  0.22122200  1
  C  C128  1  0.56336100  0.00225600  0.22196200  1
  C  C129  1  0.48309400  0.05471800  0.72251300  1
  C  C130  1  0.94063500  0.49930600  0.72127800  1
  C  C131  1  0.47504400  0.94656200  0.72221200  1
  C  C132  1  0.04912700  0.49798400  0.72112700  1
  C  C133  1  0.00283100  0.50083300  0.23594800  1
  C  C134  1  0.50967000  0.00256900  0.23716800  1
  C  C135  1  0.47974600  0.00041000  0.73713300  1
  C  C136  1  0.99498000  0.49869200  0.73597400  1
  C  C137  1  0.00189500  0.60968300  0.23588400  1
  C  C138  1  0.40080700  0.00462400  0.23804200  1
  C  C139  1  0.00376800  0.39197900  0.23606000  1
  C  C140  1  0.61850600  0.00060100  0.23634600  1
  C  C141  1  0.48917400  0.10886000  0.73742000  1
  C  C142  1  0.88613100  0.50140000  0.73615800  1
  C  C143  1  0.47027800  0.89198900  0.73689400  1
  C  C144  1  0.10384000  0.49601900  0.73583800  1
  C  C145  1  0.49295800  0.10819200  0.76672200  1
  C  C146  1  0.88641600  0.50367500  0.76550700  1
  C  C147  1  0.46974900  0.89173900  0.76626800  1
  C  C148  1  0.10397000  0.49394500  0.76518100  1
  C  C149  1  0.00475900  0.60979300  0.26521700  1
  C  C150  1  0.40192800  0.00654700  0.26737800  1
  C  C151  1  0.00224500  0.39210000  0.26541100  1
  C  C152  1  0.61950700  0.99830900  0.26570200  1
  C  C153  1  0.48874400  0.05356300  0.78138100  1
  C  C154  1  0.94113900  0.50195000  0.78022500  1
  C  C155  1  0.47588100  0.94587300  0.78119300  1
  C  C156  1  0.04945400  0.49577500  0.78005500  1
  C  C157  1  0.00511600  0.55521800  0.28005700  1
  C  C158  1  0.45707700  0.00487800  0.28174100  1
  C  C159  1  0.00252100  0.44679100  0.28015600  1
  C  C160  1  0.56541900  0.99949400  0.28093800  1
  C  C161  1  0.48136400  0.99995200  0.76652100  1
  C  C162  1  0.99518800  0.49880800  0.76536800  1
  C  C163  1  0.00351100  0.50094900  0.26533800  1
  C  C164  1  0.51073200  0.00234500  0.26656600  1
  C  C165  1  0.49249900  0.05221100  0.81078300  1
  C  C166  1  0.94214600  0.50390100  0.80968100  1
  C  C167  1  0.47615200  0.94629900  0.81067600  1
  C  C168  1  0.04889700  0.49407900  0.80950800  1
  C  C169  1  0.00752400  0.55460400  0.30950300  1
  C  C170  1  0.45882600  0.00598200  0.31118000  1
  C  C171  1  0.00120100  0.44762200  0.30961000  1
  C  C172  1  0.56564000  0.99706700  0.31041300  1
  C  C173  1  0.52490800  0.95813400  0.86999700  1
  C  C174  1  0.03466500  0.53812900  0.86929800  1
  C  C175  1  0.45210900  0.03936500  0.87116200  1
  C  C176  1  0.95771700  0.46076100  0.86965200  1
  C  C177  1  0.04470200  0.46398300  0.36940200  1
  C  C178  1  0.55084300  0.03717200  0.37125900  1
  C  C179  1  0.96485900  0.53837900  0.36944700  1
  C  C180  1  0.47499200  0.95878600  0.37006300  1
  C  C181  1  0.52617100  0.95742800  0.89938100  1
  C  C182  1  0.03635500  0.53696800  0.89865400  1
  C  C183  1  0.45582400  0.04067700  0.90047000  1
  C  C184  1  0.95718800  0.46202400  0.89902500  1
  C  C185  1  0.04325700  0.46246600  0.39875900  1
  C  C186  1  0.55038300  0.03543500  0.40066700  1
  C  C187  1  0.96579100  0.53917700  0.39881200  1
  C  C188  1  0.47235200  0.95936500  0.39937900  1
  C  C189  1  0.49234500  0.99931600  0.91464700  1
  C  C190  1  0.99710900  0.49948200  0.91356000  1
  C  C191  1  0.00433300  0.50058000  0.41349600  1
  C  C192  1  0.51020600  0.99740600  0.41475000  1
  C  C193  1  0.07721700  0.58412500  0.08655300  1
  C  C194  1  0.42064200  0.08176900  0.08907500  1
  C  C195  1  0.91988700  0.41578400  0.08784900  1
  C  C196  1  0.58439500  0.91941500  0.08782600  1
  C  C197  1  0.57064200  0.08077600  0.59070700  1
  C  C198  1  0.91389000  0.57998000  0.58711100  1
  C  C199  1  0.39924100  0.92621800  0.58655400  1
  C  C200  1  0.07743400  0.41723500  0.58749200  1
  N  N1  1  0.00127600  0.50058300  0.17735600  1
  N  N2  1  0.50746000  0.00247300  0.17855100  1
  N  N3  1  0.47828300  0.00129200  0.67851900  1
  N  N4  1  0.99460900  0.49839300  0.67736600  1
  N  N5  1  0.48530000  0.99904300  0.82511200  1
  N  N6  1  0.99564200  0.49909600  0.82398500  1
  N  N7  1  0.00461100  0.50116500  0.32394300  1
  N  N8  1  0.51265600  0.00084300  0.32518300  1
  O  O1  1  0.00086900  0.90819400  0.02657600  1
  O  O2  1  0.08845700  0.00053000  0.02709500  1
  O  O3  1  0.99602900  0.09027700  0.02551600  1
  O  O4  1  0.90639100  0.99563600  0.02499300  1
  O  O5  1  0.50590700  0.40917900  0.52383200  1
  O  O6  1  0.59337400  0.50322200  0.52434800  1
  O  O7  1  0.50219900  0.59122600  0.52606800  1
  O  O8  1  0.41122600  0.49961700  0.52558900  1
  O  O9  1  0.00264100  0.90897600  0.97734100  1
  O  O10  1  0.08886000  0.00655800  0.97792000  1
  O  O11  1  0.99144800  0.09054000  0.97631500  1
  O  O12  1  0.90726300  0.99531900  0.97575300  1
  O  O13  1  0.49933200  0.40974800  0.47463800  1
  O  O14  1  0.58897800  0.50261800  0.47517400  1
  O  O15  1  0.49309600  0.59149600  0.47697800  1
  O  O16  1  0.40711400  0.49608500  0.47641000  1
  O  O17  1  0.49608400  0.05317700  0.95864000  1
  O  O18  1  0.94542600  0.49972900  0.95819300  1
  O  O19  1  0.49526800  0.94747300  0.95926800  1
  O  O20  1  0.05116500  0.49917200  0.95754100  1
  O  O21  1  0.00245000  0.55204900  0.45815300  1
  O  O22  1  0.45063100  0.99772600  0.45695600  1
  O  O23  1  0.00289000  0.44632600  0.45739400  1
  O  O24  1  0.55596000  0.00056300  0.46097900  1
  O  O25  1  0.59034200  0.04763200  0.99969800  1
  O  O26  1  0.94981700  0.59201400  0.00142600  1
  O  O27  1  0.40513600  0.95205100  0.00345300  1
  O  O28  1  0.04578600  0.40701000  0.99964500  1
  O  O29  1  0.09226500  0.54844300  0.50253400  1
  O  O30  1  0.44881200  0.09183000  0.49785700  1
  O  O31  1  0.90813000  0.45070800  0.49819200  1
  O  O32  1  0.54732000  0.90870800  0.50438500  1
  O  O33  1  0.58721800  0.94217400  0.00131900  1
  O  O34  1  0.05525500  0.58910000  0.99934500  1
  O  O35  1  0.40826100  0.05743800  0.00139000  1
  O  O36  1  0.94028700  0.40992500  0.00120300  1
  O  O37  1  0.09026600  0.44303800  0.50037400  1
  O  O38  1  0.55350100  0.09099100  0.50404900  1
  O  O39  1  0.91009100  0.55619600  0.50001200  1
  O  O40  1  0.44229900  0.90967300  0.49926600  1
  O  O41  1  0.49996100  0.05200600  0.04356500  1
  O  O42  1  0.94460500  0.49955400  0.04314100  1
  O  O43  1  0.49961300  0.94668900  0.04420000  1
  O  O44  1  0.05002200  0.49962400  0.04248600  1
  O  O45  1  0.99734700  0.55262500  0.54306700  1
  O  O46  1  0.44022700  0.00120400  0.54175900  1
  O  O47  1  0.99802600  0.44732800  0.54230900  1
  O  O48  1  0.54502900  0.00155400  0.54578700  1
  O  O49  1  0.01065500  0.39422100  0.17748200  1
  O  O50  1  0.61408000  0.00860600  0.17775600  1
  O  O51  1  0.99198600  0.60695600  0.17739100  1
  O  O52  1  0.40085800  0.99613300  0.17953300  1
  O  O53  1  0.47709000  0.89451500  0.67826500  1
  O  O54  1  0.10126400  0.50426800  0.67731400  1
  O  O55  1  0.47881100  0.10806500  0.67897300  1
  O  O56  1  0.88794900  0.49279300  0.67759200  1
  O  O57  1  0.50499900  0.10399500  0.82505400  1
  O  O58  1  0.88962200  0.51216500  0.82404500  1
  O  O59  1  0.46583500  0.89405500  0.82495800  1
  O  O60  1  0.10164100  0.48586700  0.82370300  1
  O  O61  1  0.01424300  0.60751400  0.32372000  1
  O  O62  1  0.40659600  0.01355200  0.32586000  1
  O  O63  1  0.99486900  0.39481700  0.32395000  1
  O  O64  1  0.61879800  0.98921400  0.32430900  1
  O  O65  1  0.09932500  0.62886000  0.10502900  1
  O  O66  1  0.37820900  0.10546800  0.10829300  1
  O  O67  1  0.89866800  0.37148300  0.10677300  1
  O  O68  1  0.62973500  0.89754800  0.10604900  1
  O  O69  1  0.59105700  0.12477100  0.60998200  1
  O  O70  1  0.86879700  0.60134200  0.60559700  1
  O  O71  1  0.36981000  0.88550500  0.60483200  1
  O  O72  1  0.12023200  0.39335900  0.60648600  1
