# generated using pymatgen
data_Cd2H16C41O16
_symmetry_space_group_name_H-M   'P 1'
_cell_length_a   17.37388000
_cell_length_b   17.37387800
_cell_length_c   29.88768300
_cell_angle_alpha   90.00000000
_cell_angle_beta   90.00000000
_cell_angle_gamma   90.00000000
_symmetry_Int_Tables_number   1
_chemical_formula_structural   Cd2H16C41O16
_chemical_formula_sum   'Cd8 H64 C164 O64'
_cell_volume   9021.64707101
_cell_formula_units_Z   4
loop_
 _symmetry_equiv_pos_site_id
 _symmetry_equiv_pos_as_xyz
  1  'x, y, z'
loop_
 _atom_site_type_symbol
 _atom_site_label
 _atom_site_symmetry_multiplicity
 _atom_site_fract_x
 _atom_site_fract_y
 _atom_site_fract_z
 _atom_site_occupancy
  Cd  Cd1  1  0.85130500  0.04476200  0.50063100  1
  Cd  Cd2  1  0.14869500  0.95523800  0.50063100  1
  Cd  Cd3  1  0.95523800  0.85130500  0.50063100  1
  Cd  Cd4  1  0.04476200  0.14869500  0.50063100  1
  Cd  Cd5  1  0.35130500  0.54476200  0.00063100  1
  Cd  Cd6  1  0.64869500  0.45523800  0.00063100  1
  Cd  Cd7  1  0.45523800  0.35130500  0.00063100  1
  Cd  Cd8  1  0.54476200  0.64869500  0.00063100  1
  H  H1  1  0.33579500  0.94617700  0.63376100  1
  H  H2  1  0.66397800  0.05402500  0.36751900  1
  H  H3  1  0.05382300  0.33579500  0.63376100  1
  H  H4  1  0.94597500  0.66397800  0.36751900  1
  H  H5  1  0.66420500  0.05382300  0.63376100  1
  H  H6  1  0.33602200  0.94597500  0.36751900  1
  H  H7  1  0.94617700  0.66420500  0.63376100  1
  H  H8  1  0.05402500  0.33602300  0.36751900  1
  H  H9  1  0.83579500  0.44617700  0.13376100  1
  H  H10  1  0.16397800  0.55402500  0.86751900  1
  H  H11  1  0.55382300  0.83579500  0.13376100  1
  H  H12  1  0.44597500  0.16397800  0.86751900  1
  H  H13  1  0.16420500  0.55382300  0.13376100  1
  H  H14  1  0.83602200  0.44597500  0.86751900  1
  H  H15  1  0.44617700  0.16420500  0.13376100  1
  H  H16  1  0.55402500  0.83602200  0.86751900  1
  H  H17  1  0.66489600  0.82113800  0.67507500  1
  H  H18  1  0.33447700  0.17853100  0.32615800  1
  H  H19  1  0.17886200  0.66489600  0.67507500  1
  H  H20  1  0.82146900  0.33447800  0.32615800  1
  H  H21  1  0.33510400  0.17886100  0.67507500  1
  H  H22  1  0.66552300  0.82146900  0.32615900  1
  H  H23  1  0.82113900  0.33510400  0.67507400  1
  H  H24  1  0.17853100  0.66552300  0.32615800  1
  H  H25  1  0.16489600  0.32113900  0.17507500  1
  H  H26  1  0.83447700  0.67853100  0.82615800  1
  H  H27  1  0.67886100  0.16489600  0.17507400  1
  H  H28  1  0.32146900  0.83447700  0.82615800  1
  H  H29  1  0.83510400  0.67886200  0.17507500  1
  H  H30  1  0.16552300  0.32146900  0.82615800  1
  H  H31  1  0.32113900  0.83510400  0.17507500  1
  H  H32  1  0.67853100  0.16552300  0.82615800  1
  H  H33  1  0.42977500  0.91551300  0.68954700  1
  H  H34  1  0.56987900  0.08444200  0.31176600  1
  H  H35  1  0.08448700  0.42977500  0.68954700  1
  H  H36  1  0.91555800  0.56987900  0.31176500  1
  H  H37  1  0.57022500  0.08448700  0.68954700  1
  H  H38  1  0.43012100  0.91555800  0.31176600  1
  H  H39  1  0.91551300  0.57022500  0.68954700  1
  H  H40  1  0.08444200  0.43012100  0.31176500  1
  H  H41  1  0.92977500  0.41551300  0.18954700  1
  H  H42  1  0.06987900  0.58444200  0.81176600  1
  H  H43  1  0.58448700  0.92977500  0.18954700  1
  H  H44  1  0.41555800  0.06987800  0.81176500  1
  H  H45  1  0.07022500  0.58448700  0.18954700  1
  H  H46  1  0.93012100  0.41555800  0.81176600  1
  H  H47  1  0.41551300  0.07022500  0.18954700  1
  H  H48  1  0.58444200  0.93012100  0.81176500  1
  H  H49  1  0.58051200  0.72734000  0.76520200  1
  H  H50  1  0.52644000  0.24888300  0.25677700  1
  H  H51  1  0.27266000  0.58051200  0.76520200  1
  H  H52  1  0.75111700  0.52644000  0.25677700  1
  H  H53  1  0.41948800  0.27266000  0.76520200  1
  H  H54  1  0.47356000  0.75111700  0.25677700  1
  H  H55  1  0.72734000  0.41948800  0.76520200  1
  H  H56  1  0.24888300  0.47356000  0.25677700  1
  H  H57  1  0.08051200  0.22734000  0.26520200  1
  H  H58  1  0.02644000  0.74888300  0.75677700  1
  H  H59  1  0.77266000  0.08051200  0.26520200  1
  H  H60  1  0.25111700  0.02644000  0.75677700  1
  H  H61  1  0.91948800  0.77266000  0.26520200  1
  H  H62  1  0.97356000  0.25111700  0.75677700  1
  H  H63  1  0.22734000  0.91948800  0.26520200  1
  H  H64  1  0.74888300  0.97356000  0.75677700  1
  C  C1  1  0.89187000  0.15826300  0.56178900  1
  C  C2  1  0.10806700  0.84175400  0.43947500  1
  C  C3  1  0.84173700  0.89187000  0.56178900  1
  C  C4  1  0.15824600  0.10806700  0.43947500  1
  C  C5  1  0.10813000  0.84173700  0.56178900  1
  C  C6  1  0.89193300  0.15824600  0.43947500  1
  C  C7  1  0.15826300  0.10813000  0.56178900  1
  C  C8  1  0.84175400  0.89193300  0.43947500  1
  C  C9  1  0.39187000  0.65826300  0.06178900  1
  C  C10  1  0.60806700  0.34175400  0.93947500  1
  C  C11  1  0.34173700  0.39187000  0.06178900  1
  C  C12  1  0.65824600  0.60806700  0.93947500  1
  C  C13  1  0.60813000  0.34173700  0.06178900  1
  C  C14  1  0.39193300  0.65824600  0.93947500  1
  C  C15  1  0.65826300  0.60813000  0.06178900  1
  C  C16  1  0.34175400  0.39193300  0.93947500  1
  C  C17  1  0.41120900  0.97443400  0.68749900  1
  C  C18  1  0.58868800  0.02561000  0.31374700  1
  C  C19  1  0.02556600  0.41120900  0.68749900  1
  C  C20  1  0.97439000  0.58868800  0.31374700  1
  C  C21  1  0.58879100  0.02556600  0.68749900  1
  C  C22  1  0.41131200  0.97439000  0.31374700  1
  C  C23  1  0.97443400  0.58879100  0.68749900  1
  C  C24  1  0.02561000  0.41131200  0.31374700  1
  C  C25  1  0.91120900  0.47443400  0.18749900  1
  C  C26  1  0.08868800  0.52561000  0.81374700  1
  C  C27  1  0.52556600  0.91120900  0.18749900  1
  C  C28  1  0.47439000  0.08868800  0.81374700  1
  C  C29  1  0.08879100  0.52556600  0.18749900  1
  C  C30  1  0.91131200  0.47439000  0.81374700  1
  C  C31  1  0.47443400  0.08879100  0.18749900  1
  C  C32  1  0.52561000  0.91131200  0.81374700  1
  C  C33  1  0.09383700  0.77997700  0.40874400  1
  C  C34  1  0.90600900  0.22005100  0.59252500  1
  C  C35  1  0.22002300  0.09383700  0.40874400  1
  C  C36  1  0.77994900  0.90600900  0.59252500  1
  C  C37  1  0.90616300  0.22002300  0.40874400  1
  C  C38  1  0.09399100  0.77994900  0.59252500  1
  C  C39  1  0.77997700  0.90616300  0.40874400  1
  C  C40  1  0.22005100  0.09399100  0.59252500  1
  C  C41  1  0.59383700  0.27997700  0.90874400  1
  C  C42  1  0.40600900  0.72005100  0.09252500  1
  C  C43  1  0.72002300  0.59383700  0.90874400  1
  C  C44  1  0.27994900  0.40600900  0.09252500  1
  C  C45  1  0.40616300  0.72002300  0.90874400  1
  C  C46  1  0.59399100  0.27994900  0.09252500  1
  C  C47  1  0.27997700  0.40616300  0.90874400  1
  C  C48  1  0.72005100  0.59399100  0.09252500  1
  C  C49  1  0.64416800  0.87927500  0.67953600  1
  C  C50  1  0.35549300  0.12050500  0.32164400  1
  C  C51  1  0.12072500  0.64416800  0.67953600  1
  C  C52  1  0.87949500  0.35549300  0.32164400  1
  C  C53  1  0.35583200  0.12072500  0.67953600  1
  C  C54  1  0.64450700  0.87949500  0.32164400  1
  C  C55  1  0.87927500  0.35583200  0.67953600  1
  C  C56  1  0.12050500  0.64450700  0.32164400  1
  C  C57  1  0.14416800  0.37927500  0.17953600  1
  C  C58  1  0.85549300  0.62050500  0.82164400  1
  C  C59  1  0.62072500  0.14416800  0.17953600  1
  C  C60  1  0.37949500  0.85549300  0.82164400  1
  C  C61  1  0.85583200  0.62072500  0.17953600  1
  C  C62  1  0.14450700  0.37949500  0.82164400  1
  C  C63  1  0.37927500  0.85583200  0.17953600  1
  C  C64  1  0.62050500  0.14450700  0.82164400  1
  C  C65  1  0.35678200  0.99108600  0.65560900  1
  C  C66  1  0.64314600  0.00908500  0.34564200  1
  C  C67  1  0.00891400  0.35678200  0.65560900  1
  C  C68  1  0.99091500  0.64314600  0.34564200  1
  C  C69  1  0.64321800  0.00891400  0.65560900  1
  C  C70  1  0.35685400  0.99091500  0.34564200  1
  C  C71  1  0.99108600  0.64321800  0.65560900  1
  C  C72  1  0.00908500  0.35685400  0.34564200  1
  C  C73  1  0.85678200  0.49108600  0.15560900  1
  C  C74  1  0.14314600  0.50908500  0.84564200  1
  C  C75  1  0.50891400  0.85678200  0.15560900  1
  C  C76  1  0.49091500  0.14314600  0.84564200  1
  C  C77  1  0.14321800  0.50891400  0.15560900  1
  C  C78  1  0.85685400  0.49091500  0.84564200  1
  C  C79  1  0.49108600  0.14321800  0.15560900  1
  C  C80  1  0.50908500  0.85685400  0.84564200  1
  C  C81  1  0.08066100  0.73000900  0.38187600  1
  C  C82  1  0.91909100  0.27004300  0.61939200  1
  C  C83  1  0.26999100  0.08066100  0.38187600  1
  C  C84  1  0.72995700  0.91909100  0.61939200  1
  C  C85  1  0.91933900  0.26999100  0.38187600  1
  C  C86  1  0.08090900  0.72995700  0.61939200  1
  C  C87  1  0.73000900  0.91933900  0.38187600  1
  C  C88  1  0.27004300  0.08090900  0.61939200  1
  C  C89  1  0.58066100  0.23000900  0.88187600  1
  C  C90  1  0.41909100  0.77004300  0.11939200  1
  C  C91  1  0.76999100  0.58066100  0.88187600  1
  C  C92  1  0.22995700  0.41909100  0.11939200  1
  C  C93  1  0.41933900  0.76999100  0.88187600  1
  C  C94  1  0.58090900  0.22995700  0.11939200  1
  C  C95  1  0.23000900  0.41933900  0.88187600  1
  C  C96  1  0.77004300  0.58090900  0.11939200  1
  C  C97  1  0.50000000  0.00000000  0.75061300  1
  C  C98  1  0.50000000  0.00000000  0.25061300  1
  C  C99  1  0.00000000  0.50000000  0.75061300  1
  C  C100  1  0.00000000  0.50000000  0.25061300  1
  C  C101  1  0.67189400  0.93599900  0.65204700  1
  C  C102  1  0.32802000  0.06376400  0.34919500  1
  C  C103  1  0.06400100  0.67189400  0.65204700  1
  C  C104  1  0.93623600  0.32802000  0.34919500  1
  C  C105  1  0.32810600  0.06400100  0.65204700  1
  C  C106  1  0.67198000  0.93623600  0.34919500  1
  C  C107  1  0.93599900  0.32810600  0.65204700  1
  C  C108  1  0.06376400  0.67198000  0.34919500  1
  C  C109  1  0.17189400  0.43599900  0.15204700  1
  C  C110  1  0.82802000  0.56376400  0.84919500  1
  C  C111  1  0.56400100  0.17189400  0.15204700  1
  C  C112  1  0.43623600  0.82802000  0.84919500  1
  C  C113  1  0.82810600  0.56400100  0.15204700  1
  C  C114  1  0.17198000  0.43623600  0.84919500  1
  C  C115  1  0.43599900  0.82810600  0.15204700  1
  C  C116  1  0.56376400  0.17198000  0.84919500  1
  C  C117  1  0.56167500  0.97057000  0.71768700  1
  C  C118  1  0.43832600  0.02943400  0.28354800  1
  C  C119  1  0.02943000  0.56167500  0.71768700  1
  C  C120  1  0.97056600  0.43832600  0.28354800  1
  C  C121  1  0.43832500  0.02943000  0.71768700  1
  C  C122  1  0.56167400  0.97056600  0.28354800  1
  C  C123  1  0.97057000  0.43832500  0.71768700  1
  C  C124  1  0.02943400  0.56167400  0.28354800  1
  C  C125  1  0.06167500  0.47057000  0.21768700  1
  C  C126  1  0.93832600  0.52943400  0.78354800  1
  C  C127  1  0.52943000  0.06167500  0.21768700  1
  C  C128  1  0.47056600  0.93832600  0.78354800  1
  C  C129  1  0.93832500  0.52943000  0.21768700  1
  C  C130  1  0.06167400  0.47056600  0.78354800  1
  C  C131  1  0.47057000  0.93832500  0.21768700  1
  C  C132  1  0.52943400  0.06167400  0.78354800  1
  C  C133  1  0.58753800  0.89386500  0.71095200  1
  C  C134  1  0.41209100  0.10606400  0.29015700  1
  C  C135  1  0.10613500  0.58753800  0.71095200  1
  C  C136  1  0.89393600  0.41209100  0.29015700  1
  C  C137  1  0.41246200  0.10613500  0.71095200  1
  C  C138  1  0.58790900  0.89393600  0.29015700  1
  C  C139  1  0.89386500  0.41246200  0.71095200  1
  C  C140  1  0.10606400  0.58790900  0.29015700  1
  C  C141  1  0.08753800  0.39386500  0.21095200  1
  C  C142  1  0.91209100  0.60606400  0.79015700  1
  C  C143  1  0.60613500  0.08753800  0.21095200  1
  C  C144  1  0.39393600  0.91209100  0.79015700  1
  C  C145  1  0.91246200  0.60613500  0.21095200  1
  C  C146  1  0.08790900  0.39393600  0.79015700  1
  C  C147  1  0.39386500  0.91246200  0.21095200  1
  C  C148  1  0.60606400  0.08790900  0.79015700  1
  C  C149  1  0.55787700  0.82411400  0.73279100  1
  C  C150  1  0.44109500  0.17587600  0.26802600  1
  C  C151  1  0.17588600  0.55787700  0.73279100  1
  C  C152  1  0.82412400  0.44109500  0.26802600  1
  C  C153  1  0.44212300  0.17588600  0.73279100  1
  C  C154  1  0.55890500  0.82412400  0.26802600  1
  C  C155  1  0.82411400  0.44212300  0.73279100  1
  C  C156  1  0.17587600  0.55890500  0.26802600  1
  C  C157  1  0.05787700  0.32411400  0.23279100  1
  C  C158  1  0.94109500  0.67587600  0.76802600  1
  C  C159  1  0.67588600  0.05787700  0.23279100  1
  C  C160  1  0.32412400  0.94109500  0.76802600  1
  C  C161  1  0.94212300  0.67588600  0.23279100  1
  C  C162  1  0.05890500  0.32412400  0.76802600  1
  C  C163  1  0.32411400  0.94212300  0.23279100  1
  C  C164  1  0.67587600  0.05890500  0.76802600  1
  O  O1  1  0.94908700  0.11416200  0.54910000  1
  O  O2  1  0.05089200  0.88589000  0.45216500  1
  O  O3  1  0.88583800  0.94908700  0.54910000  1
  O  O4  1  0.11411000  0.05089200  0.45216500  1
  O  O5  1  0.05091300  0.88583800  0.54910000  1
  O  O6  1  0.94910800  0.11411000  0.45216500  1
  O  O7  1  0.11416200  0.05091300  0.54910000  1
  O  O8  1  0.88589000  0.94910800  0.45216500  1
  O  O9  1  0.44908700  0.61416200  0.04910000  1
  O  O10  1  0.55089200  0.38589000  0.95216500  1
  O  O11  1  0.38583800  0.44908700  0.04910000  1
  O  O12  1  0.61411000  0.55089200  0.95216500  1
  O  O13  1  0.55091300  0.38583800  0.04910000  1
  O  O14  1  0.44910800  0.61411000  0.95216500  1
  O  O15  1  0.61416200  0.55091300  0.04910000  1
  O  O16  1  0.38589000  0.44910800  0.95216500  1
  O  O17  1  0.82228900  0.13059900  0.55663600  1
  O  O18  1  0.17766600  0.86938200  0.44462600  1
  O  O19  1  0.86940100  0.82228900  0.55663600  1
  O  O20  1  0.13061800  0.17766600  0.44462500  1
  O  O21  1  0.17771100  0.86940100  0.55663600  1
  O  O22  1  0.82233400  0.13061800  0.44462600  1
  O  O23  1  0.13059900  0.17771100  0.55663600  1
  O  O24  1  0.86938200  0.82233400  0.44462500  1
  O  O25  1  0.32228900  0.63059900  0.05663600  1
  O  O26  1  0.67766600  0.36938200  0.94462600  1
  O  O27  1  0.36940100  0.32228900  0.05663600  1
  O  O28  1  0.63061800  0.67766600  0.94462500  1
  O  O29  1  0.67771100  0.36940100  0.05663600  1
  O  O30  1  0.32233400  0.63061800  0.94462600  1
  O  O31  1  0.63059900  0.67771100  0.05663600  1
  O  O32  1  0.36938200  0.32233400  0.94462600  1
  O  O33  1  0.49075300  0.80515200  0.72843400  1
  O  O34  1  0.60907600  0.77399300  0.75358000  1
  O  O35  1  0.39569300  0.21961900  0.25009700  1
  O  O36  1  0.51764600  0.19802700  0.27245800  1
  O  O37  1  0.19484800  0.49075300  0.72843400  1
  O  O38  1  0.22600700  0.60907600  0.75358000  1
  O  O39  1  0.78038100  0.39569300  0.25009700  1
  O  O40  1  0.80197300  0.51764600  0.27245800  1
  O  O41  1  0.50924700  0.19484800  0.72843400  1
  O  O42  1  0.39092400  0.22600700  0.75358000  1
  O  O43  1  0.60430700  0.78038000  0.25009700  1
  O  O44  1  0.48235400  0.80197300  0.27245800  1
  O  O45  1  0.80515200  0.50924600  0.72843400  1
  O  O46  1  0.77399300  0.39092400  0.75358000  1
  O  O47  1  0.21962000  0.60430700  0.25009700  1
  O  O48  1  0.19802700  0.48235400  0.27245800  1
  O  O49  1  0.99075300  0.30515200  0.22843400  1
  O  O50  1  0.10907600  0.27399300  0.25358000  1
  O  O51  1  0.89569300  0.71961900  0.75009700  1
  O  O52  1  0.01764600  0.69802700  0.77245800  1
  O  O53  1  0.69484800  0.99075300  0.22843400  1
  O  O54  1  0.72600700  0.10907600  0.25358000  1
  O  O55  1  0.28038100  0.89569300  0.75009700  1
  O  O56  1  0.30197300  0.01764600  0.77245800  1
  O  O57  1  0.00924700  0.69484800  0.22843400  1
  O  O58  1  0.89092400  0.72600700  0.25358000  1
  O  O59  1  0.10430700  0.28038000  0.75009700  1
  O  O60  1  0.98235400  0.30197300  0.77245800  1
  O  O61  1  0.30515200  0.00924600  0.22843400  1
  O  O62  1  0.27399300  0.89092400  0.25358000  1
  O  O63  1  0.71962000  0.10430700  0.75009700  1
  O  O64  1  0.69802700  0.98235400  0.77245800  1
