# generated using pymatgen
data_Cu3H22C35O12
_symmetry_space_group_name_H-M   'P 1'
_cell_length_a   30.66645900
_cell_length_b   30.70902300
_cell_length_c   22.16633700
_cell_angle_alpha   90.00000000
_cell_angle_beta   46.22573500
_cell_angle_gamma   90.00000000
_symmetry_Int_Tables_number   1
_chemical_formula_structural   Cu3H22C35O12
_chemical_formula_sum   'Cu12 H88 C140 O48'
_cell_volume   15073.13154658
_cell_formula_units_Z   4
loop_
 _symmetry_equiv_pos_site_id
 _symmetry_equiv_pos_as_xyz
  1  'x, y, z'
loop_
 _atom_site_type_symbol
 _atom_site_label
 _atom_site_symmetry_multiplicity
 _atom_site_fract_x
 _atom_site_fract_y
 _atom_site_fract_z
 _atom_site_occupancy
  Cu  Cu1  1  0.22322000  0.28090000  0.49413100  1
  Cu  Cu2  1  0.77678000  0.28090000  0.50586900  1
  Cu  Cu3  1  0.72322000  0.78090000  0.49413100  1
  Cu  Cu4  1  0.27678000  0.78090000  0.50586900  1
  Cu  Cu5  1  0.27890800  0.21990800  0.50584500  1
  Cu  Cu6  1  0.72109200  0.21990800  0.49415400  1
  Cu  Cu7  1  0.77890800  0.71990800  0.50584500  1
  Cu  Cu8  1  0.22109200  0.71990800  0.49415400  1
  Cu  Cu9  1  0.53992600  0.50145200  0.41677600  1
  Cu  Cu10  1  0.46007400  0.50145200  0.58322400  1
  Cu  Cu11  1  0.03992600  0.00145200  0.41677600  1
  Cu  Cu12  1  0.96007400  0.00145200  0.58322400  1
  H  H1  1  0.46428100  0.17233000  0.07674900  1
  H  H2  1  0.53571900  0.17233000  0.92325000  1
  H  H3  1  0.96428100  0.67233000  0.07674900  1
  H  H4  1  0.03571900  0.67233000  0.92325000  1
  H  H5  1  0.53564200  0.31105300  0.92338000  1
  H  H6  1  0.46435800  0.31105300  0.07662000  1
  H  H7  1  0.03564200  0.81105300  0.92338000  1
  H  H8  1  0.96435800  0.81105300  0.07662000  1
  H  H9  1  0.15209600  0.11413200  0.58098200  1
  H  H10  1  0.84790400  0.11413200  0.41901800  1
  H  H11  1  0.65209600  0.61413200  0.58098100  1
  H  H12  1  0.34790400  0.61413200  0.41901800  1
  H  H13  1  0.09478700  0.05841100  0.58053900  1
  H  H14  1  0.90521300  0.05841100  0.41946100  1
  H  H15  1  0.59478700  0.55841100  0.58053900  1
  H  H16  1  0.40521300  0.55841100  0.41946100  1
  H  H17  1  0.14393800  0.13929300  0.33001100  1
  H  H18  1  0.85606200  0.13929300  0.66998900  1
  H  H19  1  0.64393800  0.63929300  0.33001100  1
  H  H20  1  0.35606200  0.63929300  0.66998900  1
  H  H21  1  0.06923200  0.16435400  0.42327200  1
  H  H22  1  0.93076800  0.16435400  0.57672800  1
  H  H23  1  0.56923200  0.66435400  0.42327200  1
  H  H24  1  0.43076800  0.66435400  0.57672800  1
  H  H25  1  0.19682100  0.19589600  0.33535600  1
  H  H26  1  0.80317900  0.19589600  0.66464400  1
  H  H27  1  0.69682100  0.69589600  0.33535600  1
  H  H28  1  0.30317900  0.69589600  0.66464400  1
  H  H29  1  0.12207500  0.22119200  0.42790000  1
  H  H30  1  0.87792500  0.22119200  0.57210000  1
  H  H31  1  0.62207500  0.72119200  0.42790000  1
  H  H32  1  0.37792500  0.72119200  0.57210000  1
  H  H33  1  0.10935600  0.26063400  0.91320400  1
  H  H34  1  0.89064400  0.26063400  0.08679600  1
  H  H35  1  0.60935600  0.76063400  0.91320400  1
  H  H36  1  0.39064400  0.76063400  0.08679600  1
  H  H37  1  0.33560200  0.31144100  0.59561000  1
  H  H38  1  0.66439800  0.31144100  0.40438900  1
  H  H39  1  0.83560200  0.81144100  0.59561000  1
  H  H40  1  0.16439800  0.81144100  0.40438900  1
  H  H41  1  0.38897100  0.36946000  0.59960300  1
  H  H42  1  0.61102900  0.36946000  0.40039700  1
  H  H43  1  0.88897100  0.86946000  0.59960300  1
  H  H44  1  0.11102900  0.86946000  0.40039700  1
  H  H45  1  0.38087500  0.46894000  0.41600400  1
  H  H46  1  0.61912500  0.46894000  0.58399600  1
  H  H47  1  0.88087500  0.96894000  0.41600400  1
  H  H48  1  0.11912500  0.96894000  0.58399600  1
  H  H49  1  0.45328100  0.43849700  0.33138000  1
  H  H50  1  0.54671900  0.43849700  0.66861900  1
  H  H51  1  0.95328100  0.93849700  0.33138000  1
  H  H52  1  0.04671900  0.93849700  0.66861900  1
  H  H53  1  0.32448600  0.41322000  0.41589500  1
  H  H54  1  0.67551400  0.41322000  0.58410500  1
  H  H55  1  0.82448600  0.91322000  0.41589500  1
  H  H56  1  0.17551400  0.91322000  0.58410500  1
  H  H57  1  0.39685400  0.38259500  0.33181000  1
  H  H58  1  0.60314600  0.38259500  0.66819000  1
  H  H59  1  0.89685400  0.88259500  0.33181000  1
  H  H60  1  0.10314600  0.88259500  0.66819000  1
  H  H61  1  0.10308100  0.29111400  0.12303700  1
  H  H62  1  0.10395300  0.23210800  0.12249000  1
  H  H63  1  0.17249700  0.26210600  0.04158700  1
  H  H64  1  0.12914200  0.23189200  0.98969100  1
  H  H65  1  0.12794700  0.29126600  0.99056800  1
  H  H66  1  0.02125600  0.28970600  0.12696300  1
  H  H67  1  0.02251000  0.23096700  0.12508800  1
  H  H68  1  0.89691900  0.29111400  0.87696200  1
  H  H69  1  0.89604700  0.23210800  0.87751000  1
  H  H70  1  0.82750300  0.26210600  0.95841200  1
  H  H71  1  0.87085800  0.23189200  0.01030900  1
  H  H72  1  0.87205300  0.29126600  0.00943200  1
  H  H73  1  0.97874400  0.28970600  0.87303700  1
  H  H74  1  0.97749000  0.23096700  0.87491200  1
  H  H75  1  0.60308100  0.79111400  0.12303700  1
  H  H76  1  0.60395300  0.73210800  0.12249000  1
  H  H77  1  0.67249700  0.76210600  0.04158700  1
  H  H78  1  0.62914200  0.73189200  0.98969100  1
  H  H79  1  0.62794700  0.79126600  0.99056800  1
  H  H80  1  0.52125600  0.78970600  0.12696300  1
  H  H81  1  0.52251000  0.73096700  0.12508800  1
  H  H82  1  0.39691900  0.79111400  0.87696200  1
  H  H83  1  0.39604700  0.73210800  0.87751000  1
  H  H84  1  0.32750300  0.76210600  0.95841200  1
  H  H85  1  0.37085800  0.73189200  0.01030900  1
  H  H86  1  0.37205300  0.79126600  0.00943200  1
  H  H87  1  0.47874400  0.78970600  0.87303700  1
  H  H88  1  0.47749000  0.73096700  0.87491200  1
  C  C1  1  0.19195900  0.19131000  0.49983500  1
  C  C2  1  0.80804100  0.19131000  0.50016500  1
  C  C3  1  0.69195900  0.69131000  0.49983500  1
  C  C4  1  0.30804100  0.69131000  0.50016500  1
  C  C5  1  0.33505400  0.24627100  0.34007600  1
  C  C6  1  0.66494600  0.24627100  0.65992400  1
  C  C7  1  0.83505400  0.74627100  0.34007600  1
  C  C8  1  0.16494600  0.74627100  0.65992400  1
  C  C9  1  0.30943000  0.30950600  0.50145300  1
  C  C10  1  0.69057100  0.30950600  0.49854700  1
  C  C11  1  0.80943000  0.80950600  0.50145300  1
  C  C12  1  0.19057100  0.80950600  0.49854700  1
  C  C13  1  0.16699800  0.25452500  0.65995100  1
  C  C14  1  0.83300200  0.25452500  0.34004900  1
  C  C15  1  0.66699800  0.75452500  0.65995100  1
  C  C16  1  0.33300200  0.75452500  0.34004900  1
  C  C17  1  0.51992500  0.20279900  0.95699600  1
  C  C18  1  0.48007500  0.20279900  0.04300400  1
  C  C19  1  0.01992500  0.70279900  0.95699600  1
  C  C20  1  0.98007500  0.70279900  0.04300400  1
  C  C21  1  0.53971500  0.24172000  0.91409500  1
  C  C22  1  0.46028500  0.24172000  0.08590500  1
  C  C23  1  0.03971500  0.74172000  0.91409500  1
  C  C24  1  0.96028600  0.74172000  0.08590500  1
  C  C25  1  0.51987800  0.28056900  0.95707700  1
  C  C26  1  0.48012200  0.28056900  0.04292300  1
  C  C27  1  0.01987800  0.78056900  0.95707700  1
  C  C28  1  0.98012200  0.78056900  0.04292300  1
  C  C29  1  0.58233400  0.24213100  0.82457000  1
  C  C30  1  0.41766600  0.24213100  0.17543000  1
  C  C31  1  0.08233400  0.74213100  0.82457000  1
  C  C32  1  0.91766600  0.74213100  0.17543000  1
  C  C33  1  0.38077300  0.24347800  0.25064000  1
  C  C34  1  0.61922700  0.24347800  0.74935900  1
  C  C35  1  0.88077300  0.74347800  0.25064000  1
  C  C36  1  0.11922700  0.74347800  0.74935900  1
  C  C37  1  0.14484400  0.16143900  0.45245100  1
  C  C38  1  0.85515600  0.16143900  0.54754900  1
  C  C39  1  0.64484400  0.66143900  0.45245100  1
  C  C40  1  0.35515600  0.66143900  0.54754900  1
  C  C41  1  0.15947700  0.15733500  0.49828800  1
  C  C42  1  0.84052300  0.15733500  0.50171200  1
  C  C43  1  0.65947700  0.65733500  0.49828800  1
  C  C44  1  0.34052300  0.65733500  0.50171200  1
  C  C45  1  0.14210400  0.11905800  0.54330700  1
  C  C46  1  0.85789600  0.11905800  0.45669200  1
  C  C47  1  0.64210400  0.61905800  0.54330700  1
  C  C48  1  0.35789600  0.61905800  0.45669200  1
  C  C49  1  0.10943400  0.08749500  0.54326500  1
  C  C50  1  0.89056600  0.08749500  0.45673500  1
  C  C51  1  0.60943400  0.58749500  0.54326500  1
  C  C52  1  0.39056600  0.58749500  0.45673500  1
  C  C53  1  0.09669100  0.09277600  0.49461200  1
  C  C54  1  0.90330900  0.09277600  0.50538800  1
  C  C55  1  0.59669100  0.59277600  0.49461200  1
  C  C56  1  0.40330900  0.59277600  0.50538800  1
  C  C57  1  0.11659300  0.13036300  0.44896400  1
  C  C58  1  0.88340800  0.13036300  0.55103600  1
  C  C59  1  0.61659300  0.63036300  0.44896400  1
  C  C60  1  0.38340800  0.63036300  0.55103600  1
  C  C61  1  0.11564600  0.15485500  0.39228800  1
  C  C62  1  0.88435400  0.15485500  0.60771200  1
  C  C63  1  0.61564600  0.65485500  0.39228800  1
  C  C64  1  0.38435400  0.65485500  0.60771200  1
  C  C65  1  0.14946400  0.19127800  0.39564200  1
  C  C66  1  0.85053600  0.19127800  0.60435800  1
  C  C67  1  0.64946400  0.69127800  0.39564200  1
  C  C68  1  0.35053600  0.69127800  0.60435800  1
  C  C69  1  0.02083600  0.26090600  0.03956500  1
  C  C70  1  0.97916400  0.26090600  0.96043500  1
  C  C71  1  0.52083600  0.76090600  0.03956500  1
  C  C72  1  0.47916400  0.76090600  0.96043500  1
  C  C73  1  0.95963500  0.26071900  0.08575400  1
  C  C74  1  0.04036500  0.26071900  0.91424600  1
  C  C75  1  0.45963500  0.76071900  0.08575400  1
  C  C76  1  0.54036500  0.76071900  0.91424600  1
  C  C77  1  0.93891200  0.26091000  0.04693000  1
  C  C78  1  0.06108900  0.26091000  0.95307000  1
  C  C79  1  0.43891200  0.76091000  0.04693000  1
  C  C80  1  0.56108900  0.76091000  0.95307000  1
  C  C81  1  0.91619500  0.25926000  0.17541000  1
  C  C82  1  0.08380500  0.25926000  0.82459000  1
  C  C83  1  0.41619500  0.75926000  0.17541000  1
  C  C84  1  0.58380500  0.75926000  0.82459000  1
  C  C85  1  0.12114900  0.25743000  0.74938500  1
  C  C86  1  0.87885100  0.25743000  0.25061500  1
  C  C87  1  0.62114900  0.75743000  0.74938500  1
  C  C88  1  0.37885100  0.75743000  0.25061500  1
  C  C89  1  0.36329900  0.37987500  0.45541800  1
  C  C90  1  0.63670100  0.37987500  0.54458200  1
  C  C91  1  0.86329900  0.87987500  0.45541800  1
  C  C92  1  0.13670100  0.87987500  0.54458200  1
  C  C93  1  0.34179300  0.34318600  0.50376900  1
  C  C94  1  0.65820700  0.34318600  0.49623100  1
  C  C95  1  0.84179300  0.84318600  0.50376900  1
  C  C96  1  0.15820700  0.84318600  0.49623100  1
  C  C97  1  0.35201900  0.33956700  0.55559700  1
  C  C98  1  0.64798100  0.33956700  0.44440300  1
  C  C99  1  0.85201900  0.83956700  0.55559700  1
  C  C100  1  0.14798100  0.83956700  0.44440300  1
  C  C101  1  0.38187300  0.37261900  0.55835000  1
  C  C102  1  0.61812700  0.37261900  0.44165000  1
  C  C103  1  0.88187300  0.87261900  0.55835000  1
  C  C104  1  0.11812700  0.87261900  0.44165000  1
  C  C105  1  0.40445500  0.40852900  0.50615700  1
  C  C106  1  0.59554500  0.40852900  0.49384200  1
  C  C107  1  0.90445500  0.90852900  0.50615700  1
  C  C108  1  0.09554500  0.90852900  0.49384200  1
  C  C109  1  0.39439300  0.41012200  0.45486900  1
  C  C110  1  0.60560700  0.41012200  0.54513000  1
  C  C111  1  0.89439300  0.91012200  0.45486900  1
  C  C112  1  0.10560700  0.91012200  0.54513000  1
  C  C113  1  0.40492300  0.43731100  0.39055700  1
  C  C114  1  0.59507700  0.43731100  0.60944300  1
  C  C115  1  0.90492300  0.93731100  0.39055700  1
  C  C116  1  0.09507700  0.93731100  0.60944300  1
  C  C117  1  0.36865200  0.40152600  0.39075800  1
  C  C118  1  0.63134800  0.40152600  0.60924200  1
  C  C119  1  0.86865200  0.90152600  0.39075800  1
  C  C120  1  0.13134800  0.90152600  0.60924200  1
  C  C121  1  0.56150500  0.44256900  0.49565600  1
  C  C122  1  0.43849500  0.44256900  0.50434400  1
  C  C123  1  0.06150500  0.94256900  0.49565600  1
  C  C124  1  0.93849500  0.94256900  0.50434400  1
  C  C125  1  0.06110400  0.06059000  0.49594500  1
  C  C126  1  0.93889600  0.06059000  0.50405500  1
  C  C127  1  0.56110400  0.56059000  0.49594500  1
  C  C128  1  0.43889600  0.56059000  0.50405500  1
  C  C129  1  0.04048600  0.26067800  0.08579500  1
  C  C130  1  0.10856100  0.26141700  0.02960800  1
  C  C131  1  0.12282000  0.26170500  0.08283700  1
  C  C132  1  0.95951400  0.26067800  0.91420500  1
  C  C133  1  0.89143900  0.26141700  0.97039200  1
  C  C134  1  0.87718000  0.26170500  0.91716300  1
  C  C135  1  0.54048600  0.76067800  0.08579500  1
  C  C136  1  0.60856100  0.76141700  0.02960800  1
  C  C137  1  0.62282000  0.76170500  0.08283700  1
  C  C138  1  0.45951400  0.76067800  0.91420500  1
  C  C139  1  0.39143900  0.76141700  0.97039200  1
  C  C140  1  0.37718000  0.76170500  0.91716300  1
  O  O1  1  0.18390300  0.23197600  0.49142300  1
  O  O2  1  0.81609700  0.23197600  0.50857700  1
  O  O3  1  0.68390300  0.73197600  0.49142300  1
  O  O4  1  0.31609700  0.73197600  0.50857700  1
  O  O5  1  0.23196800  0.17928900  0.50183300  1
  O  O6  1  0.76803200  0.17928900  0.49816700  1
  O  O7  1  0.73196800  0.67928900  0.50183300  1
  O  O8  1  0.26803200  0.67928900  0.49816700  1
  O  O9  1  0.28942900  0.27249300  0.37379200  1
  O  O10  1  0.71057100  0.27249300  0.62620800  1
  O  O11  1  0.78942900  0.77249300  0.37379200  1
  O  O12  1  0.21057100  0.77249300  0.62620800  1
  O  O13  1  0.34023700  0.22221600  0.38385200  1
  O  O14  1  0.65976300  0.22221600  0.61614800  1
  O  O15  1  0.84023700  0.72221600  0.38385200  1
  O  O16  1  0.15976300  0.72221600  0.61614800  1
  O  O17  1  0.27342000  0.32140300  0.49193100  1
  O  O18  1  0.72658000  0.32140300  0.50806900  1
  O  O19  1  0.77342000  0.82140300  0.49193100  1
  O  O20  1  0.22658000  0.82140300  0.50806900  1
  O  O21  1  0.32146400  0.26868500  0.50233900  1
  O  O22  1  0.67853600  0.26868500  0.49766000  1
  O  O23  1  0.82146400  0.76868500  0.50233900  1
  O  O24  1  0.17853600  0.76868500  0.49766000  1
  O  O25  1  0.16194800  0.27853000  0.61610700  1
  O  O26  1  0.83805200  0.27853000  0.38389300  1
  O  O27  1  0.66194800  0.77853000  0.61610700  1
  O  O28  1  0.33805200  0.77853000  0.38389300  1
  O  O29  1  0.21263700  0.22838200  0.62616800  1
  O  O30  1  0.78736300  0.22838200  0.37383200  1
  O  O31  1  0.71263700  0.72838200  0.62616800  1
  O  O32  1  0.28736300  0.72838200  0.37383200  1
  O  O33  1  0.57979300  0.45549300  0.42472600  1
  O  O34  1  0.42020700  0.45549300  0.57527400  1
  O  O35  1  0.07979300  0.95549300  0.42472600  1
  O  O36  1  0.92020700  0.95549300  0.57527400  1
  O  O37  1  0.51074600  0.45552900  0.56885100  1
  O  O38  1  0.48925400  0.45552900  0.43114800  1
  O  O39  1  0.01074600  0.95552900  0.56885100  1
  O  O40  1  0.98925400  0.95552900  0.43114800  1
  O  O41  1  0.08203300  0.04512200  0.42485000  1
  O  O42  1  0.91796700  0.04512200  0.57515000  1
  O  O43  1  0.58203300  0.54512200  0.42485000  1
  O  O44  1  0.41796700  0.54512200  0.57515000  1
  O  O45  1  0.01318700  0.04491300  0.56862300  1
  O  O46  1  0.98681300  0.04491300  0.43137700  1
  O  O47  1  0.51318700  0.54491300  0.56862300  1
  O  O48  1  0.48681300  0.54491300  0.43137700  1
