# generated using pymatgen
data_Zn2H11C24N3O10
_symmetry_space_group_name_H-M   'P 1'
_cell_length_a   6.59924700
_cell_length_b   9.15677500
_cell_length_c   12.36755400
_cell_angle_alpha   89.90630100
_cell_angle_beta   80.31934900
_cell_angle_gamma   89.93964400
_symmetry_Int_Tables_number   1
_chemical_formula_structural   Zn2H11C24N3O10
_chemical_formula_sum   'Zn2 H11 C24 N3 O10'
_cell_volume   736.70116176
_cell_formula_units_Z   1
loop_
 _symmetry_equiv_pos_site_id
 _symmetry_equiv_pos_as_xyz
  1  'x, y, z'
loop_
 _atom_site_type_symbol
 _atom_site_label
 _atom_site_symmetry_multiplicity
 _atom_site_fract_x
 _atom_site_fract_y
 _atom_site_fract_z
 _atom_site_occupancy
  Zn  Zn1  1  0.49204600  0.83381900  0.49708900  1
  Zn  Zn2  1  0.51221800  0.15936600  0.49996500  1
  H  H1  1  0.53397400  0.91360200  0.84525200  1
  H  H2  1  0.39707400  0.07346000  0.77711200  1
  H  H3  1  0.52577400  0.08776800  0.95195700  1
  H  H4  1  0.47362300  0.05966200  0.14526000  1
  H  H5  1  0.65411900  0.91870500  0.01796300  1
  H  H6  1  0.74222200  0.96202000  0.15279200  1
  H  H7  1  0.60959400  0.39812700  0.31993400  1
  H  H8  1  0.75657900  0.42126000  0.60308700  1
  H  H9  1  0.39763000  0.59515800  0.67689000  1
  H  H10  1  0.19041200  0.38036400  0.57479600  1
  H  H11  1  0.25016500  0.57190000  0.39282700  1
  C  C1  1  0.82045900  0.97653000  0.75075000  1
  C  C2  1  0.69165400  0.94325300  0.84697700  1
  C  C3  1  0.76107200  0.94754600  0.94561000  1
  C  C4  1  0.02481200  0.00600900  0.75247500  1
  C  C5  1  0.09296600  0.01555300  0.85203200  1
  C  C6  1  0.96135400  0.98842600  0.94941400  1
  C  C7  1  0.03373600  0.99821400  0.04850000  1
  C  C8  1  0.90469500  0.97869000  0.14784800  1
  C  C9  1  0.97830500  0.98784900  0.24543000  1
  C  C10  1  0.29522300  0.05092500  0.85331200  1
  C  C11  1  0.36742900  0.05872300  0.95133700  1
  C  C12  1  0.23744800  0.03164800  0.04868200  1
  C  C13  1  0.31244100  0.03776600  0.14627000  1
  C  C14  1  0.18429400  0.01409200  0.24498200  1
  C  C15  1  0.73119400  0.98476800  0.65094700  1
  C  C16  1  0.17801900  0.00454800  0.65222000  1
  C  C17  1  0.27462900  0.00786700  0.34505900  1
  C  C18  1  0.82721800  0.98895100  0.34585700  1
  C  C19  1  0.66332700  0.55520000  0.45938200  1
  C  C20  1  0.55585600  0.44401800  0.40273000  1
  C  C21  1  0.63604600  0.45643500  0.55601800  1
  C  C22  1  0.44823100  0.54865400  0.59399400  1
  C  C23  1  0.33576500  0.43557600  0.53889500  1
  C  C24  1  0.36835300  0.53627000  0.44128000  1
  N  N1  1  0.52235300  0.35097500  0.50058100  1
  N  N2  1  0.48147300  0.64222000  0.49648900  1
  N  N3  1  0.85482300  0.62539700  0.41227600  1
  O  O1  1  0.67994500  0.11419400  0.61790600  1
  O  O2  1  0.67195700  0.86224300  0.61172400  1
  O  O3  1  0.25055900  0.87695100  0.61571000  1
  O  O4  1  0.26034100  0.12872900  0.61472500  1
  O  O5  1  0.32486100  0.87894100  0.37896200  1
  O  O6  1  0.33270600  0.13062900  0.38499900  1
  O  O7  1  0.75394000  0.11648300  0.38156800  1
  O  O8  1  0.74417300  0.86442500  0.38250600  1
  O  O9  1  0.94057400  0.71812000  0.47001700  1
  O  O10  1  0.94055200  0.59581500  0.31222100  1
