# generated using pymatgen
data_Zn3H32C55O12
_symmetry_space_group_name_H-M   'P 1'
_cell_length_a   27.45073400
_cell_length_b   27.51738900
_cell_length_c   27.47495700
_cell_angle_alpha   90.18258100
_cell_angle_beta   90.05830200
_cell_angle_gamma   90.05596400
_symmetry_Int_Tables_number   1
_chemical_formula_structural   Zn3H32C55O12
_chemical_formula_sum   'Zn12 H128 C220 O48'
_cell_volume   20753.70158109
_cell_formula_units_Z   4
loop_
 _symmetry_equiv_pos_site_id
 _symmetry_equiv_pos_as_xyz
  1  'x, y, z'
loop_
 _atom_site_type_symbol
 _atom_site_label
 _atom_site_symmetry_multiplicity
 _atom_site_fract_x
 _atom_site_fract_y
 _atom_site_fract_z
 _atom_site_occupancy
  Zn  Zn1  1  0.74848400  0.75020000  0.05485000  1
  Zn  Zn2  1  0.24792000  0.44667300  0.74886800  1
  Zn  Zn3  1  0.74785700  0.75065900  0.44096300  1
  Zn  Zn4  1  0.75013800  0.75216400  0.55096500  1
  Zn  Zn5  1  0.74802500  0.74970800  0.94470000  1
  Zn  Zn6  1  0.24843500  0.94637900  0.74898000  1
  Zn  Zn7  1  0.24914100  0.05635500  0.75004400  1
  Zn  Zn8  1  0.05428700  0.25052600  0.24849200  1
  Zn  Zn9  1  0.94404000  0.25069300  0.24877500  1
  Zn  Zn10  1  0.44321900  0.25067500  0.24997700  1
  Zn  Zn11  1  0.55346600  0.25079800  0.25000800  1
  Zn  Zn12  1  0.24842100  0.55665200  0.74986000  1
  H  H1  1  0.14451900  0.92429400  0.86361300  1
  H  H2  1  0.92041200  0.08322600  0.07152600  1
  H  H3  1  0.85610300  0.64014300  0.57257000  1
  H  H4  1  0.91816400  0.57813500  0.57315400  1
  H  H5  1  0.93694900  0.50130600  0.43331100  1
  H  H6  1  0.00023600  0.56716800  0.55888200  1
  H  H7  1  0.06327800  0.43949800  0.49804200  1
  H  H8  1  0.63310200  0.64587000  0.42028000  1
  H  H9  1  0.57060100  0.58408700  0.42156500  1
  H  H10  1  0.35347100  0.57990400  0.63487300  1
  H  H11  1  0.41524200  0.57929500  0.57215300  1
  H  H12  1  0.42004000  0.36487600  0.35596500  1
  H  H13  1  0.13352000  0.07915800  0.85463600  1
  H  H14  1  0.42064500  0.42784800  0.41754700  1
  H  H15  1  0.57552300  0.35648300  0.36349300  1
  H  H16  1  0.57590700  0.41812700  0.42640500  1
  H  H17  1  0.36354500  0.42510500  0.64571400  1
  H  H18  1  0.42649300  0.42479800  0.58422800  1
  H  H19  1  0.64367300  0.63924200  0.57553900  1
  H  H20  1  0.58231000  0.57598700  0.57657900  1
  H  H21  1  0.56170200  0.50116800  0.43644800  1
  H  H22  1  0.49886300  0.56522300  0.56287000  1
  H  H23  1  0.43552800  0.43817300  0.50056000  1
  H  H24  1  0.07023900  0.07825300  0.91581700  1
  H  H25  1  0.90774600  0.85453100  0.37981100  1
  H  H26  1  0.84924100  0.83135100  0.39175300  1
  H  H27  1  0.89333900  0.76817500  0.44852400  1
  H  H28  1  0.94931200  0.79360200  0.42569900  1
  H  H29  1  0.91403600  0.77627300  0.33933500  1
  H  H30  1  0.86893800  0.73966500  0.37035700  1
  H  H31  1  0.98019400  0.72830200  0.37109600  1
  H  H32  1  0.93514600  0.68645000  0.34735400  1
  H  H33  1  0.94023200  0.69645900  0.41234500  1
  H  H34  1  0.99857200  0.93705600  0.93530300  1
  H  H35  1  0.06112600  0.06373200  0.99919800  1
  H  H36  1  0.93499000  0.99960300  0.06213900  1
  H  H37  1  0.35425200  0.92201900  0.86322900  1
  H  H38  1  0.41546200  0.92217300  0.92662200  1
  H  H39  1  0.42136200  0.13561300  0.14571000  1
  H  H40  1  0.42120200  0.07243300  0.08428600  1
  H  H41  1  0.08244100  0.92368600  0.92597900  1
  H  H42  1  0.63407600  0.85460700  0.07689500  1
  H  H43  1  0.57140900  0.91633800  0.07724800  1
  H  H44  1  0.64365100  0.86500000  0.92179100  1
  H  H45  1  0.58218100  0.92788100  0.92244400  1
  H  H46  1  0.57660100  0.14554900  0.13516600  1
  H  H47  1  0.57615000  0.08354800  0.07260000  1
  H  H48  1  0.36280200  0.07710200  0.85546400  1
  H  H49  1  0.42530700  0.07702100  0.91747700  1
  H  H50  1  0.49862000  0.93671500  0.93678400  1
  H  H51  1  0.43500600  0.06270700  0.00064300  1
  H  H52  1  0.07545600  0.13555900  0.14445900  1
  H  H53  1  0.56197700  0.99998500  0.06348700  1
  H  H54  1  0.14257700  0.57809700  0.86334300  1
  H  H55  1  0.08124300  0.57790800  0.92647100  1
  H  H56  1  0.07582700  0.36486100  0.14407400  1
  H  H57  1  0.07573900  0.42772000  0.08272100  1
  H  H58  1  0.86229900  0.64442100  0.07794800  1
  H  H59  1  0.92514900  0.58293000  0.07740900  1
  H  H60  1  0.85323500  0.63611200  0.92262700  1
  H  H61  1  0.91476200  0.57329300  0.92232900  1
  H  H62  1  0.92056800  0.35467000  0.13360600  1
  H  H63  1  0.07541400  0.07256300  0.08290100  1
  H  H64  1  0.92077500  0.41632900  0.07110600  1
  H  H65  1  0.13360200  0.42306600  0.85399500  1
  H  H66  1  0.07096700  0.42312500  0.91577100  1
  H  H67  1  0.99802900  0.56356800  0.93649400  1
  H  H68  1  0.06160500  0.43727100  0.99910100  1
  H  H69  1  0.93486600  0.49986100  0.06257300  1
  H  H70  1  0.35318800  0.57748700  0.86433700  1
  H  H71  1  0.41455900  0.57734700  0.92748700  1
  H  H72  1  0.42125100  0.36473900  0.14557600  1
  H  H73  1  0.42093200  0.42731000  0.08394500  1
  H  H74  1  0.86360000  0.85433800  0.07610100  1
  H  H75  1  0.63404300  0.64467100  0.07852700  1
  H  H76  1  0.57117300  0.58304600  0.07814800  1
  H  H77  1  0.64232100  0.63641100  0.92318600  1
  H  H78  1  0.58081200  0.57347600  0.92303600  1
  H  H79  1  0.57648800  0.35515900  0.13485800  1
  H  H80  1  0.57587400  0.41655400  0.07207300  1
  H  H81  1  0.36172600  0.42245500  0.85512600  1
  H  H82  1  0.42448600  0.42254700  0.91697300  1
  H  H83  1  0.49767500  0.56326400  0.93735300  1
  H  H84  1  0.43466300  0.43673400  0.00022800  1
  H  H85  1  0.92637700  0.91605900  0.07603300  1
  H  H86  1  0.56150300  0.49998500  0.06336700  1
  H  H87  1  0.07772300  0.13880400  0.35661100  1
  H  H88  1  0.07691200  0.07675300  0.41881800  1
  H  H89  1  0.94223400  0.91078400  0.42539900  1
  H  H90  1  0.14135600  0.92596000  0.63614800  1
  H  H91  1  0.07841900  0.92670800  0.57448900  1
  H  H92  1  0.13425800  0.08109000  0.64564400  1
  H  H93  1  0.07024800  0.08156400  0.58509500  1
  H  H94  1  0.84153400  0.87590100  0.56839200  1
  H  H95  1  0.90245200  0.93922500  0.57186000  1
  H  H96  1  0.85321800  0.86421600  0.92099700  1
  H  H97  1  0.92198900  0.14490000  0.36091800  1
  H  H98  1  0.92138600  0.08417700  0.42423600  1
  H  H99  1  0.06058300  0.06703000  0.50161900  1
  H  H100  1  0.93702400  0.00097900  0.43450100  1
  H  H101  1  0.99447800  0.94215700  0.56522300  1
  H  H102  1  0.41999600  0.13692800  0.35554800  1
  H  H103  1  0.42051500  0.07398000  0.41674600  1
  H  H104  1  0.63374900  0.85603400  0.42030600  1
  H  H105  1  0.57060000  0.91731400  0.42106200  1
  H  H106  1  0.35437600  0.92313200  0.63517000  1
  H  H107  1  0.91483700  0.92709900  0.92122500  1
  H  H108  1  0.41612900  0.92341800  0.57249300  1
  H  H109  1  0.36261400  0.07820600  0.64427000  1
  H  H110  1  0.42569400  0.07826000  0.58288400  1
  H  H111  1  0.64559200  0.86687200  0.57530500  1
  H  H112  1  0.58355200  0.92921400  0.57575500  1
  H  H113  1  0.57547300  0.14568800  0.36338700  1
  H  H114  1  0.57576000  0.08406600  0.42592600  1
  H  H115  1  0.43536500  0.06400600  0.49974000  1
  H  H116  1  0.56148000  0.00094600  0.43541200  1
  H  H117  1  0.49943300  0.93793900  0.56236600  1
  H  H118  1  0.92014800  0.14510900  0.13425500  1
  H  H119  1  0.86001100  0.64247700  0.41692200  1
  H  H120  1  0.92426400  0.58250400  0.41756800  1
  H  H121  1  0.14478500  0.58077200  0.63357400  1
  H  H122  1  0.08384600  0.58066100  0.56987500  1
  H  H123  1  0.07824000  0.36531800  0.35362900  1
  H  H124  1  0.07797300  0.42873000  0.41478500  1
  H  H125  1  0.92283500  0.35620200  0.36228000  1
  H  H126  1  0.92282600  0.41824700  0.42475200  1
  H  H127  1  0.13315500  0.42605700  0.64414500  1
  H  H128  1  0.07105400  0.42624200  0.58171100  1
  C  C1  1  0.12850200  0.95840000  0.87475600  1
  C  C2  1  0.95461100  0.09389600  0.08788300  1
  C  C3  1  0.49890800  0.35538900  0.14483200  1
  C  C4  1  0.49836800  0.42653100  0.07342200  1
  C  C5  1  0.49812500  0.46434300  0.03576100  1
  C  C6  1  0.64276000  0.64513700  0.00088000  1
  C  C7  1  0.57135600  0.57361600  0.00057100  1
  C  C8  1  0.53357200  0.53571200  0.00041100  1
  C  C9  1  0.49777600  0.53548800  0.96500100  1
  C  C10  1  0.46244800  0.46452100  0.00023200  1
  C  C11  1  0.53358800  0.50001300  0.03566800  1
  C  C12  1  0.04312200  0.12708300  0.37116900  1
  C  C13  1  0.12264500  0.04474600  0.87003800  1
  C  C14  1  0.04269600  0.09203900  0.40691700  1
  C  C15  1  0.88550200  0.86553200  0.45357300  1
  C  C16  1  0.91889300  0.90315100  0.45608000  1
  C  C17  1  0.12601900  0.96040700  0.62528500  1
  C  C18  1  0.08979900  0.96078100  0.59052000  1
  C  C19  1  0.12230400  0.04688600  0.63033200  1
  C  C20  1  0.08607700  0.04721800  0.59557700  1
  C  C21  1  0.86334200  0.88244800  0.53637800  1
  C  C22  1  0.89792700  0.91863300  0.53859400  1
  C  C23  1  0.95631100  0.13022000  0.37327300  1
  C  C24  1  0.08687000  0.04427700  0.90518500  1
  C  C25  1  0.95592700  0.09529100  0.40907200  1
  C  C26  1  0.99991300  0.14636900  0.35412600  1
  C  C27  1  0.99908600  0.07590600  0.42616600  1
  C  C28  1  0.99840900  0.03868300  0.46438600  1
  C  C29  1  0.85616400  0.85561200  0.49417200  1
  C  C30  1  0.92529400  0.92955200  0.49821200  1
  C  C31  1  0.96192700  0.96814800  0.49995700  1
  C  C32  1  0.14257600  0.00347700  0.64531900  1
  C  C33  1  0.06961300  0.00418200  0.57534600  1
  C  C34  1  0.03185400  0.00449700  0.53742700  1
  C  C35  1  0.14367400  0.00179700  0.85460800  1
  C  C36  1  0.03273200  0.03931700  0.50124200  1
  C  C37  1  0.96342100  0.00259100  0.46364900  1
  C  C38  1  0.99586100  0.96934400  0.53698000  1
  C  C39  1  0.45447900  0.12564800  0.37073900  1
  C  C40  1  0.45473300  0.09005900  0.40592000  1
  C  C41  1  0.62307600  0.87184100  0.45471800  1
  C  C42  1  0.58738000  0.90704900  0.45509400  1
  C  C43  1  0.36975500  0.95748600  0.62401400  1
  C  C44  1  0.40528200  0.95759700  0.58859400  1
  C  C45  1  0.37404500  0.04393800  0.62877500  1
  C  C46  1  0.07171600  0.00090600  0.92546300  1
  C  C47  1  0.40971700  0.04400300  0.59349200  1
  C  C48  1  0.62944000  0.87763000  0.54113000  1
  C  C49  1  0.59376200  0.91284400  0.54146200  1
  C  C50  1  0.54116200  0.13021800  0.37479200  1
  C  C51  1  0.54136800  0.09478600  0.41013200  1
  C  C52  1  0.49770400  0.14590800  0.35492100  1
  C  C53  1  0.49816800  0.07438000  0.42594300  1
  C  C54  1  0.49842600  0.03655400  0.46360700  1
  C  C55  1  0.64432600  0.85689800  0.49774900  1
  C  C56  1  0.57243900  0.92782200  0.49846100  1
  C  C57  1  0.03383800  0.00047900  0.96319800  1
  C  C58  1  0.53446400  0.96545200  0.49883600  1
  C  C59  1  0.35385300  0.00066700  0.64427400  1
  C  C60  1  0.42557500  0.00084600  0.57305000  1
  C  C61  1  0.46332300  0.00095000  0.53510000  1
  C  C62  1  0.46320000  0.03633100  0.49950800  1
  C  C63  1  0.53392400  0.00097900  0.46341300  1
  C  C64  1  0.49910300  0.96562600  0.53462100  1
  C  C65  1  0.87257700  0.62864900  0.45148300  1
  C  C66  1  0.90890900  0.59410200  0.45186800  1
  C  C67  1  0.12885200  0.54655900  0.62251000  1
  C  C68  1  0.99779800  0.14495700  0.14390300  1
  C  C69  1  0.09383500  0.54655900  0.58649400  1
  C  C70  1  0.04384100  0.37661600  0.36899700  1
  C  C71  1  0.04373700  0.41245000  0.40414300  1
  C  C72  1  0.95718600  0.37184700  0.37349000  1
  C  C73  1  0.95713500  0.40750300  0.40879800  1
  C  C74  1  0.12266700  0.46029900  0.62813500  1
  C  C75  1  0.08757800  0.46034800  0.59222600  1
  C  C76  1  0.87068700  0.62769600  0.53822500  1
  C  C77  1  0.90651900  0.59269300  0.53858700  1
  C  C78  1  0.85354400  0.64593900  0.49467500  1
  C  C79  1  0.99792300  0.07333500  0.07262400  1
  C  C80  1  0.92616200  0.57576700  0.49543800  1
  C  C81  1  0.96446700  0.53839500  0.49594700  1
  C  C82  1  0.14354200  0.50340500  0.64350200  1
  C  C83  1  0.07294800  0.50344800  0.57103500  1
  C  C84  1  0.03563400  0.50332200  0.53260000  1
  C  C85  1  0.00054400  0.35619500  0.35338200  1
  C  C86  1  0.00038800  0.42818000  0.42430200  1
  C  C87  1  0.00026700  0.46655100  0.46159900  1
  C  C88  1  0.96473500  0.50206000  0.46111200  1
  C  C89  1  0.00015600  0.53892500  0.53153700  1
  C  C90  1  0.99805500  0.03562700  0.03468100  1
  C  C91  1  0.03558200  0.46731200  0.49744300  1
  C  C92  1  0.49746200  0.31829300  0.31737900  1
  C  C93  1  0.49746500  0.18360800  0.31735800  1
  C  C94  1  0.49922000  0.18314700  0.18261500  1
  C  C95  1  0.49919800  0.31785300  0.18257700  1
  C  C96  1  0.31599900  0.50274500  0.68238000  1
  C  C97  1  0.31533300  0.50004700  0.81713300  1
  C  C98  1  0.18037200  0.50055700  0.81637600  1
  C  C99  1  0.18100300  0.50329800  0.68158800  1
  C  C100  1  0.68084600  0.68471900  0.49682000  1
  C  C101  1  0.85380100  0.85469400  0.99854800  1
  C  C102  1  0.81580500  0.68353900  0.49451600  1
  C  C103  1  0.81771400  0.81794700  0.49498200  1
  C  C104  1  0.68209000  0.81923900  0.49747500  1
  C  C105  1  0.62229800  0.63085100  0.45491300  1
  C  C106  1  0.58696700  0.59528300  0.45557800  1
  C  C107  1  0.36924800  0.54557100  0.62409100  1
  C  C108  1  0.40474600  0.54527900  0.58865500  1
  C  C109  1  0.45454400  0.37624500  0.37116400  1
  C  C110  1  0.45485300  0.41184100  0.40658200  1
  C  C111  1  0.54122500  0.37187700  0.37504500  1
  C  C112  1  0.09280800  0.95798100  0.90997900  1
  C  C113  1  0.92518300  0.92620300  0.99863500  1
  C  C114  1  0.54148800  0.40731700  0.41061800  1
  C  C115  1  0.37457400  0.45925900  0.62985700  1
  C  C116  1  0.41015100  0.45901800  0.59451500  1
  C  C117  1  0.62784400  0.62743500  0.54147500  1
  C  C118  1  0.59261400  0.59167800  0.54209200  1
  C  C119  1  0.64297700  0.64714700  0.49784500  1
  C  C120  1  0.57193100  0.57529400  0.49913500  1
  C  C121  1  0.53435600  0.53719600  0.49967400  1
  C  C122  1  0.35390400  0.50254400  0.64486200  1
  C  C123  1  0.42547100  0.50200600  0.57359700  1
  C  C124  1  0.96279400  0.96424000  0.99873100  1
  C  C125  1  0.46324700  0.50169100  0.53575000  1
  C  C126  1  0.49774100  0.35608000  0.35512900  1
  C  C127  1  0.49831500  0.42763500  0.42664600  1
  C  C128  1  0.49860900  0.46558500  0.46446400  1
  C  C129  1  0.53407200  0.50128000  0.46437200  1
  C  C130  1  0.49885000  0.53721200  0.53527600  1
  C  C131  1  0.46331300  0.46595600  0.50029400  1
  C  C132  1  0.88592200  0.83557600  0.40783600  1
  C  C133  1  0.91035400  0.78697900  0.41726600  1
  C  C134  1  0.90632400  0.75484300  0.37255700  1
  C  C135  1  0.99841300  0.96475500  0.96321600  1
  C  C136  1  0.94284400  0.71377400  0.37610300  1
  C  C137  1  0.03349400  0.03579300  0.99903600  1
  C  C138  1  0.96276700  0.99980200  0.03435400  1
  C  C139  1  0.81552900  0.68254100  0.00057800  1
  C  C140  1  0.68054800  0.68280800  0.00101100  1
  C  C141  1  0.68099000  0.81738500  0.99898500  1
  C  C142  1  0.81596400  0.81707100  0.99851600  1
  C  C143  1  0.31639200  0.99963300  0.81681500  1
  C  C144  1  0.04111900  0.12439600  0.12874000  1
  C  C145  1  0.31604400  0.00050900  0.68193800  1
  C  C146  1  0.18103400  0.00315600  0.68235500  1
  C  C147  1  0.18154500  0.00218000  0.81706100  1
  C  C148  1  0.00021500  0.18369200  0.31619700  1
  C  C149  1  0.00057200  0.31831000  0.31581400  1
  C  C150  1  0.99809700  0.31757200  0.18107800  1
  C  C151  1  0.99777100  0.18287500  0.18145200  1
  C  C152  1  0.36960200  0.95632300  0.87482600  1
  C  C153  1  0.40476900  0.95638000  0.91067000  1
  C  C154  1  0.45563900  0.12450400  0.12993700  1
  C  C155  1  0.04115500  0.08879700  0.09336900  1
  C  C156  1  0.45549100  0.08878900  0.09463900  1
  C  C157  1  0.62300900  0.87042000  0.04269000  1
  C  C158  1  0.58760800  0.90590000  0.04295700  1
  C  C159  1  0.62807500  0.87593900  0.95621200  1
  C  C160  1  0.59274600  0.91148000  0.95652900  1
  C  C161  1  0.54218600  0.12978100  0.12433300  1
  C  C162  1  0.54199100  0.09413000  0.08898300  1
  C  C163  1  0.37403900  0.04279000  0.87080300  1
  C  C164  1  0.40935600  0.04279800  0.90647500  1
  C  C165  1  0.35399300  0.99954600  0.85471300  1
  C  C166  1  0.87453400  0.87001400  0.04180200  1
  C  C167  1  0.42496800  0.99960900  0.92673700  1
  C  C168  1  0.46273100  0.99965400  0.96470200  1
  C  C169  1  0.49900100  0.14521700  0.14501400  1
  C  C170  1  0.49865600  0.07333700  0.07386700  1
  C  C171  1  0.49849700  0.03539000  0.03608800  1
  C  C172  1  0.64341100  0.85517800  0.99929800  1
  C  C173  1  0.57218700  0.92668200  0.99988400  1
  C  C174  1  0.53426900  0.96433100  0.00014000  1
  C  C175  1  0.49853200  0.96440200  0.96470200  1
  C  C176  1  0.46286900  0.03505400  0.00050800  1
  C  C177  1  0.91000700  0.90548900  0.04182100  1
  C  C178  1  0.53408500  0.99989900  0.03575800  1
  C  C179  1  0.12710000  0.54379500  0.87452400  1
  C  C180  1  0.09185600  0.54372800  0.91021400  1
  C  C181  1  0.04149800  0.37582600  0.12831400  1
  C  C182  1  0.04150500  0.41134900  0.09305800  1
  C  C183  1  0.87349100  0.62906900  0.04349700  1
  C  C184  1  0.90901300  0.59371900  0.04323500  1
  C  C185  1  0.86875400  0.62475000  0.95689700  1
  C  C186  1  0.90412300  0.58924400  0.95668500  1
  C  C187  1  0.95493600  0.37041100  0.12275800  1
  C  C188  1  0.86901600  0.87525500  0.95532700  1
  C  C189  1  0.95499100  0.40586000  0.08744500  1
  C  C190  1  0.12242000  0.45735600  0.86962100  1
  C  C191  1  0.08702900  0.45733800  0.90514800  1
  C  C192  1  0.14264300  0.50059200  0.85406500  1
  C  C193  1  0.07151900  0.50050500  0.92578600  1
  C  C194  1  0.03382100  0.50042500  0.96373100  1
  C  C195  1  0.99819500  0.35517700  0.14341700  1
  C  C196  1  0.99825600  0.42664800  0.07236200  1
  C  C197  1  0.99824500  0.46455700  0.03481300  1
  C  C198  1  0.85319500  0.64484400  0.00031700  1
  C  C199  1  0.90443500  0.91078900  0.95539300  1
  C  C200  1  0.92458200  0.57349400  0.99983900  1
  C  C201  1  0.96244800  0.53577300  0.99959000  1
  C  C202  1  0.99809800  0.53576800  0.96411900  1
  C  C203  1  0.03375500  0.46493800  0.99921200  1
  C  C204  1  0.96267500  0.50005100  0.03482500  1
  C  C205  1  0.36856400  0.54317700  0.87556900  1
  C  C206  1  0.40385700  0.54314100  0.91128100  1
  C  C207  1  0.45549500  0.37578600  0.12971300  1
  C  C208  1  0.45524900  0.41113800  0.09428400  1
  C  C209  1  0.62265800  0.62931600  0.04410600  1
  C  C210  1  0.95452600  0.12945200  0.12331300  1
  C  C211  1  0.58712800  0.59388800  0.04392900  1
  C  C212  1  0.62696100  0.62503000  0.95750000  1
  C  C213  1  0.59159500  0.58944700  0.95737000  1
  C  C214  1  0.54204300  0.37071300  0.12400900  1
  C  C215  1  0.54174900  0.40600100  0.08852400  1
  C  C216  1  0.37301000  0.45674200  0.87075800  1
  C  C217  1  0.40847900  0.45675300  0.90631600  1
  C  C218  1  0.35290400  0.49997300  0.85509500  1
  C  C219  1  0.42418600  0.49994800  0.92688000  1
  C  C220  1  0.46211800  0.49998500  0.96471500  1
  O  O1  1  0.79890900  0.69788800  0.04263600  1
  O  O2  1  0.29958900  0.04160100  0.80178100  1
  O  O3  1  0.30061600  0.95854500  0.69838200  1
  O  O4  1  0.29929300  0.04231100  0.69780700  1
  O  O5  1  0.19791100  0.96115300  0.69729800  1
  O  O6  1  0.19662100  0.04490800  0.69945700  1
  O  O7  1  0.19832100  0.96040000  0.80123300  1
  O  O8  1  0.19692800  0.04419200  0.80062300  1
  O  O9  1  0.04228200  0.20034700  0.30092600  1
  O  O10  1  0.95830300  0.19905300  0.29919700  1
  O  O11  1  0.04255000  0.30140600  0.30059500  1
  O  O12  1  0.79996400  0.69938700  0.95873200  1
  O  O13  1  0.95857300  0.30285000  0.29894800  1
  O  O14  1  0.04003600  0.30220700  0.19803900  1
  O  O15  1  0.95606000  0.30088700  0.19636900  1
  O  O16  1  0.03975700  0.19834900  0.19833600  1
  O  O17  1  0.95579400  0.19982300  0.19661500  1
  O  O18  1  0.45538600  0.30140100  0.30219200  1
  O  O19  1  0.53934500  0.30284900  0.30035900  1
  O  O20  1  0.45538900  0.20031200  0.30219000  1
  O  O21  1  0.53935500  0.19904500  0.30036700  1
  O  O22  1  0.45733300  0.19860400  0.19963800  1
  O  O23  1  0.69757400  0.69809600  0.04298300  1
  O  O24  1  0.54129200  0.20006400  0.19775600  1
  O  O25  1  0.45732800  0.30242700  0.19961700  1
  O  O26  1  0.54128200  0.30116000  0.19774200  1
  O  O27  1  0.29925700  0.54468100  0.69780600  1
  O  O28  1  0.30029300  0.46090600  0.69894100  1
  O  O29  1  0.30011500  0.54199200  0.80039700  1
  O  O30  1  0.29841700  0.45822300  0.80146900  1
  O  O31  1  0.19606000  0.54242200  0.79981500  1
  O  O32  1  0.19708900  0.45864300  0.80091200  1
  O  O33  1  0.19794300  0.54510700  0.69724200  1
  O  O34  1  0.69591500  0.69959800  0.95909500  1
  O  O35  1  0.19621600  0.46135000  0.69834000  1
  O  O36  1  0.69688800  0.69917500  0.45433400  1
  O  O37  1  0.69735400  0.70214900  0.53823900  1
  O  O38  1  0.79825300  0.69822500  0.45263900  1
  O  O39  1  0.80137000  0.70123500  0.53644600  1
  O  O40  1  0.80048000  0.80074900  0.45393700  1
  O  O41  1  0.80118900  0.80359500  0.53740500  1
  O  O42  1  0.69647500  0.80147400  0.45551400  1
  O  O43  1  0.69984000  0.80465800  0.53925900  1
  O  O44  1  0.69653800  0.80051000  0.04081700  1
  O  O45  1  0.69761100  0.80203400  0.95692300  1
  O  O46  1  0.80061600  0.80029300  0.04045300  1
  O  O47  1  0.79890500  0.80178300  0.95656800  1
  O  O48  1  0.30091400  0.95784200  0.79963000  1
