# generated using pymatgen
data_Fe2H25C52NO16
_symmetry_space_group_name_H-M   'P 1'
_cell_length_a   17.81285400
_cell_length_b   9.38491700
_cell_length_c   15.17049500
_cell_angle_alpha   87.67684700
_cell_angle_beta   79.68445300
_cell_angle_gamma   106.70335800
_symmetry_Int_Tables_number   1
_chemical_formula_structural   Fe2H25C52NO16
_chemical_formula_sum   'Fe2 H25 C52 N1 O16'
_cell_volume   2378.39588908
_cell_formula_units_Z   1
loop_
 _symmetry_equiv_pos_site_id
 _symmetry_equiv_pos_as_xyz
  1  'x, y, z'
loop_
 _atom_site_type_symbol
 _atom_site_label
 _atom_site_symmetry_multiplicity
 _atom_site_fract_x
 _atom_site_fract_y
 _atom_site_fract_z
 _atom_site_occupancy
  Fe  Fe1  1  0.49899900  0.00896300  0.16744200  1
  Fe  Fe2  1  0.49175400  0.00321500  0.83900000  1
  H  H1  1  0.24829800  0.12246600  0.20743400  1
  H  H2  1  0.12232000  0.16206200  0.24420200  1
  H  H3  1  0.20930800  0.83286400  0.87824500  1
  H  H4  1  0.99630000  0.15168500  0.21258100  1
  H  H5  1  0.08598000  0.81629200  0.84327900  1
  H  H6  1  0.90513200  0.19676100  0.16284700  1
  H  H7  1  0.99412300  0.85941100  0.79420700  1
  H  H8  1  0.78179800  0.18045000  0.12786900  1
  H  H9  1  0.86809500  0.84894300  0.76271600  1
  H  H10  1  0.74221900  0.88886500  0.79942100  1
  H  H11  1  0.51010500  0.87261000  0.55505400  1
  H  H12  1  0.45381300  0.79408400  0.44121500  1
  H  H13  1  0.43777800  0.14739700  0.61637100  1
  H  H14  1  0.39431100  0.18078100  0.49103700  1
  H  H15  1  0.55739100  0.86699600  0.38613100  1
  H  H16  1  0.54341200  0.22309600  0.56646000  1
  H  H17  1  0.48670700  0.13968400  0.45086400  1
  H  H18  1  0.48076100  0.53989600  0.80576700  1
  H  H19  1  0.50901300  0.47296800  0.20060100  1
  H  H20  1  0.65233900  0.64988300  0.49336000  1
  H  H21  1  0.73544000  0.81542200  0.47089700  1
  H  H22  1  0.66927400  0.77499300  0.39245700  1
  H  H23  1  0.60959000  0.05851000  0.47397500  1
  H  H24  1  0.70428600  0.03305800  0.42665400  1
  H  H25  1  0.68288400  0.06712300  0.54321100  1
  C  C1  1  0.23443600  0.08012100  0.14517300  1
  C  C2  1  0.10813500  0.12111000  0.18175200  1
  C  C3  1  0.29091700  0.03753800  0.08739200  1
  C  C4  1  0.27498300  0.98817200  0.00533500  1
  C  C5  1  0.16199900  0.07365800  0.12352400  1
  C  C6  1  0.14269400  0.01659500  0.04567700  1
  C  C7  1  0.19790700  0.96732500  0.98863200  1
  C  C8  1  0.17369600  0.89224300  0.91752700  1
  C  C9  1  0.03566000  0.11702300  0.16159300  1
  C  C10  1  0.01547300  0.06565600  0.08150900  1
  C  C11  1  0.06863700  0.01006500  0.02492000  1
  C  C12  1  0.04819300  0.94761000  0.94797600  1
  C  C13  1  0.10024400  0.88174200  0.89780400  1
  C  C14  1  0.89068200  0.13092000  0.10852400  1
  C  C15  1  0.94257400  0.06456100  0.05852500  1
  C  C16  1  0.92208000  0.00195700  0.98164700  1
  C  C17  1  0.97521200  0.94623900  0.92508500  1
  C  C18  1  0.95489300  0.89445400  0.84513500  1
  C  C19  1  0.81725000  0.12059100  0.08878600  1
  C  C20  1  0.79288500  0.04507300  0.01788100  1
  C  C21  1  0.84800600  0.99542200  0.96093100  1
  C  C22  1  0.82860500  0.93800300  0.88320900  1
  C  C23  1  0.71577900  0.02420000  0.00122400  1
  C  C24  1  0.69976900  0.97442500  0.91927800  1
  C  C25  1  0.88237800  0.89023300  0.82505700  1
  C  C26  1  0.75615700  0.93148700  0.86159200  1
  C  C27  1  0.64943300  0.03065400  0.07425000  1
  C  C28  1  0.51105700  0.74359100  0.24077900  1
  C  C29  1  0.36812600  0.05796400  0.11355400  1
  C  C30  1  0.48413400  0.21612900  0.28743400  1
  C  C31  1  0.50832700  0.79757500  0.71941400  1
  C  C32  1  0.62257800  0.95406200  0.89310300  1
  C  C33  1  0.48037500  0.26979700  0.76562300  1
  C  C34  1  0.34133900  0.98213900  0.93221800  1
  C  C35  1  0.48422200  0.52951600  0.73461900  1
  C  C36  1  0.49945200  0.65683600  0.67809700  1
  C  C37  1  0.50859600  0.64977900  0.58566500  1
  C  C38  1  0.53867800  0.79145700  0.52415200  1
  C  C39  1  0.51351700  0.77653800  0.43382500  1
  C  C40  1  0.48321300  0.39513100  0.70088900  1
  C  C41  1  0.48545200  0.38463100  0.60871600  1
  C  C42  1  0.49560500  0.51184900  0.55148600  1
  C  C43  1  0.49918400  0.50305200  0.45425300  1
  C  C44  1  0.50871200  0.62996900  0.39707400  1
  C  C45  1  0.50923500  0.61875800  0.30521000  1
  C  C46  1  0.48365600  0.23951700  0.57142200  1
  C  C47  1  0.46040300  0.22440100  0.48080500  1
  C  C48  1  0.48797000  0.36567400  0.41982000  1
  C  C49  1  0.49442100  0.35771800  0.32784600  1
  C  C50  1  0.50747300  0.48413600  0.27143100  1
  C  C51  1  0.67210400  0.76804900  0.46484100  1
  C  C52  1  0.65674000  0.01071700  0.48810900  1
  N  N1  1  0.62491900  0.85184900  0.51412800  1
  O  O1  1  0.58095800  0.03621100  0.05618500  1
  O  O2  1  0.53344900  0.73677900  0.15421100  1
  O  O3  1  0.65340500  0.00508200  0.15874700  1
  O  O4  1  0.48498700  0.85553300  0.26754200  1
  O  O5  1  0.39198100  0.94176800  0.13193100  1
  O  O6  1  0.41079100  0.19250700  0.12526100  1
  O  O7  1  0.53474400  0.20886900  0.21465600  1
  O  O8  1  0.42053400  0.10157500  0.31770200  1
  O  O9  1  0.45633900  0.80357700  0.79123300  1
  O  O10  1  0.57221400  0.91244800  0.69156500  1
  O  O11  1  0.59868100  0.07027700  0.87487800  1
  O  O12  1  0.57974900  0.81945000  0.88175900  1
  O  O13  1  0.33759100  0.00923300  0.84780200  1
  O  O14  1  0.50590000  0.15715400  0.73914400  1
  O  O15  1  0.40956100  0.97498700  0.95024400  1
  O  O16  1  0.45774800  0.27686900  0.85212300  1
