# generated using pymatgen
data_Fe2H16C45NClO16
_symmetry_space_group_name_H-M   'P 1'
_cell_length_a   15.74384400
_cell_length_b   12.19141600
_cell_length_c   13.17451400
_cell_angle_alpha   91.46732600
_cell_angle_beta   87.05255100
_cell_angle_gamma   106.89123600
_symmetry_Int_Tables_number   1
_chemical_formula_structural   Fe2H16C45NClO16
_chemical_formula_sum   'Fe2 H16 C45 N1 Cl1 O16'
_cell_volume   2416.26789488
_cell_formula_units_Z   1
loop_
 _symmetry_equiv_pos_site_id
 _symmetry_equiv_pos_as_xyz
  1  'x, y, z'
loop_
 _atom_site_type_symbol
 _atom_site_label
 _atom_site_symmetry_multiplicity
 _atom_site_fract_x
 _atom_site_fract_y
 _atom_site_fract_z
 _atom_site_occupancy
  Fe  Fe1  1  0.53574100  0.00850200  0.17020600  1
  Fe  Fe2  1  0.53769300  0.01411300  0.71878800  1
  H  H1  1  0.93664500  0.97404500  0.78304300  1
  H  H2  1  0.20754900  0.00169500  0.78494100  1
  H  H3  1  0.06148500  0.98420400  0.82421300  1
  H  H4  1  0.79567500  0.97425800  0.73981700  1
  H  H5  1  0.26260500  0.00178800  0.14798700  1
  H  H6  1  0.11032500  0.98731100  0.18807400  1
  H  H7  1  0.96281600  0.98419500  0.22982100  1
  H  H8  1  0.81836500  0.98141600  0.18472000  1
  H  H9  1  0.55991300  0.15418700  0.42950900  1
  H  H10  1  0.47375600  0.85830200  0.45389100  1
  H  H11  1  0.51843600  0.42633000  0.61095200  1
  H  H12  1  0.54208000  0.60224500  0.60176100  1
  H  H13  1  0.30421500  0.59299800  0.30008800  1
  H  H14  1  0.23126100  0.54659200  0.99224900  1
  H  H15  1  0.35983400  0.47563800  0.94899700  1
  H  H16  1  0.46207800  0.46546600  0.07994700  1
  C  C1  1  0.89030800  0.97200400  0.84602200  1
  C  C2  1  0.30632200  0.01337400  0.89384000  1
  C  C3  1  0.22091400  0.00250300  0.86458700  1
  C  C4  1  0.15176700  0.99305800  0.93596700  1
  C  C5  1  0.06765600  0.98425600  0.90486600  1
  C  C6  1  0.99690000  0.97777900  0.97540500  1
  C  C7  1  0.80782900  0.97255400  0.81966100  1
  C  C8  1  0.74069500  0.96729000  0.89149100  1
  C  C9  1  0.91038600  0.97146400  0.94730800  1
  C  C10  1  0.84286300  0.96743500  0.02194100  1
  C  C11  1  0.75620200  0.96166800  0.99426200  1
  C  C12  1  0.32119600  0.01326400  0.99758800  1
  C  C13  1  0.25086100  0.00108600  0.06782800  1
  C  C14  1  0.16684000  0.99268600  0.03728300  1
  C  C15  1  0.09809900  0.98590300  0.10799400  1
  C  C16  1  0.01419200  0.97989200  0.07741000  1
  C  C17  1  0.94842400  0.97913000  0.15020200  1
  C  C18  1  0.86449800  0.97510000  0.12333000  1
  C  C19  1  0.68288500  0.95605400  0.07148300  1
  C  C20  1  0.49164300  0.78899100  0.26716100  1
  C  C21  1  0.40876700  0.02724600  0.03814900  1
  C  C22  1  0.51219700  0.20882100  0.26087800  1
  C  C23  1  0.52374200  0.80543800  0.62350600  1
  C  C24  1  0.65590700  0.96951300  0.85226300  1
  C  C25  1  0.54511600  0.22131100  0.62054200  1
  C  C26  1  0.37613400  0.01718100  0.81338700  1
  C  C27  1  0.54829400  0.23716900  0.43624700  1
  C  C28  1  0.54230800  0.28740500  0.52982400  1
  C  C29  1  0.52467900  0.39192200  0.53590500  1
  C  C30  1  0.52539000  0.28211500  0.35120500  1
  C  C31  1  0.50427400  0.38446100  0.35715500  1
  C  C32  1  0.51031900  0.44489800  0.44790100  1
  C  C33  1  0.49875800  0.55450700  0.44826900  1
  C  C34  1  0.51535000  0.62438800  0.53435300  1
  C  C35  1  0.49878900  0.72823800  0.53680800  1
  C  C36  1  0.45188000  0.52078600  0.27686900  1
  C  C37  1  0.47481400  0.59691300  0.35938600  1
  C  C38  1  0.47607900  0.71346600  0.35791000  1
  C  C39  1  0.47795500  0.77146300  0.44990100  1
  C  C40  1  0.39260900  0.53330700  0.19816200  1
  C  C41  1  0.31856600  0.56992200  0.22273100  1
  C  C42  1  0.26117200  0.57535500  0.14865900  1
  C  C43  1  0.27638100  0.54245600  0.05019400  1
  C  C44  1  0.34843700  0.50269800  0.02599100  1
  C  C45  1  0.40584200  0.49693800  0.09992400  1
  N  N1  1  0.47200600  0.42079000  0.27631900  1
  Cl  Cl1  1  0.16817100  0.62274400  0.18007400  1
  O  O1  1  0.62756000  0.01714200  0.05976400  1
  O  O2  1  0.49406300  0.75084300  0.17351400  1
  O  O3  1  0.67035800  0.88681200  0.14893000  1
  O  O4  1  0.51715100  0.90040900  0.28453600  1
  O  O5  1  0.41714000  0.95557300  0.10707100  1
  O  O6  1  0.47358300  0.12148400  0.02030600  1
  O  O7  1  0.57743300  0.16682000  0.23053600  1
  O  O8  1  0.43045800  0.15370200  0.23884900  1
  O  O9  1  0.46977200  0.86366700  0.65768000  1
  O  O10  1  0.60751500  0.83932800  0.64625600  1
  O  O11  1  0.65817600  0.03291000  0.77241900  1
  O  O12  1  0.58058700  0.89769500  0.88516100  1
  O  O13  1  0.35568500  0.00593100  0.71760400  1
  O  O14  1  0.56774200  0.12634700  0.60707700  1
  O  O15  1  0.45794200  0.02697600  0.83673500  1
  O  O16  1  0.51239800  0.24561700  0.70902500  1
