# generated using pymatgen
data_Zn3H23(C10O3)4
_symmetry_space_group_name_H-M   'P 1'
_cell_length_a   18.91402400
_cell_length_b   18.97199000
_cell_length_c   18.96232500
_cell_angle_alpha   109.54587500
_cell_angle_beta   109.42250700
_cell_angle_gamma   109.40297800
_symmetry_Int_Tables_number   1
_chemical_formula_structural   Zn3H23(C10O3)4
_chemical_formula_sum   'Zn6 H46 C80 O24'
_cell_volume   5240.73794097
_cell_formula_units_Z   2
loop_
 _symmetry_equiv_pos_site_id
 _symmetry_equiv_pos_as_xyz
  1  'x, y, z'
loop_
 _atom_site_type_symbol
 _atom_site_label
 _atom_site_symmetry_multiplicity
 _atom_site_fract_x
 _atom_site_fract_y
 _atom_site_fract_z
 _atom_site_occupancy
  Zn  Zn1  1  0.06806000  0.99126900  0.55934200  1
  Zn  Zn2  1  0.93770300  0.99256300  0.41574700  1
  Zn  Zn3  1  0.50407100  0.55881700  0.55509700  1
  Zn  Zn4  1  0.50916500  0.42159400  0.42104300  1
  Zn  Zn5  1  0.07378400  0.55335100  0.99481100  1
  Zn  Zn6  1  0.92588700  0.41954800  0.98861300  1
  H  H1  1  0.35673500  0.33696800  0.79069100  1
  H  H2  1  0.09068800  0.03369800  0.33617400  1
  H  H3  1  0.07151700  0.02821200  0.20267500  1
  H  H4  1  0.16429500  0.15379800  0.20201400  1
  H  H5  1  0.27976300  0.28176900  0.33472400  1
  H  H6  1  0.47062900  0.41506100  0.65402500  1
  H  H7  1  0.47948500  0.43247200  0.78829200  1
  H  H8  1  0.22823600  0.22170200  0.65963900  1
  H  H9  1  0.92267900  0.01754400  0.64349600  1
  H  H10  1  0.89372500  0.98044000  0.74331900  1
  H  H11  1  0.91897700  0.09030700  0.87691100  1
  H  H12  1  0.96858800  0.23651400  0.90760700  1
  H  H13  1  0.02566900  0.38137900  0.75621700  1
  H  H14  1  0.86739700  0.86287700  0.61089500  1
  H  H15  1  0.78079200  0.75814000  0.31199100  1
  H  H16  1  0.65325200  0.64018700  0.17945200  1
  H  H17  1  0.53197000  0.54120000  0.18107800  1
  H  H18  1  0.54014200  0.55857500  0.31567700  1
  H  H19  1  0.75585000  0.75348800  0.61197700  1
  H  H20  1  0.87699300  0.73531500  0.23152800  1
  H  H21  1  0.17670800  0.94213400  0.43066700  1
  H  H22  1  0.30907900  0.94206200  0.45147600  1
  H  H23  1  0.30654600  0.81598100  0.35487200  1
  H  H24  1  0.17180200  0.69199200  0.23523400  1
  H  H25  1  0.87618800  0.62251300  0.12127400  1
  H  H26  1  0.64207000  0.36881600  0.61840300  1
  H  H27  1  0.75110500  0.66652800  0.70211600  1
  H  H28  1  0.86775600  0.79951500  0.83075800  1
  H  H29  1  0.96258200  0.79820300  0.95477800  1
  H  H30  1  0.94264200  0.66404500  0.94894000  1
  H  H31  1  0.74761500  0.36714900  0.73292200  1
  H  H32  1  0.36360800  0.47214900  0.22202600  1
  H  H33  1  0.26246700  0.44617600  0.41588800  1
  H  H34  1  0.14465200  0.45341300  0.43427100  1
  H  H35  1  0.04326400  0.47663800  0.33730000  1
  H  H36  1  0.05750200  0.48902200  0.22023000  1
  H  H37  1  0.25126100  0.47324900  0.11303300  1
  H  H38  1  0.99948500  0.20545600  0.50531200  1
  H  H39  1  0.10318800  0.22726100  0.58689300  1
  H  H40  1  0.09898000  0.29506500  0.54237400  1
  H  H41  1  0.92765800  0.28988000  0.56349000  1
  H  H42  1  0.00911700  0.35240800  0.54670000  1
  H  H43  1  0.00843800  0.40124200  0.64462200  1
  H  H44  1  0.18609400  0.36246500  0.73451600  1
  H  H45  1  0.14567800  0.43670800  0.75203300  1
  H  H46  1  0.17538400  0.41471300  0.67091700  1
  C  C1  1  0.99760600  0.11394400  0.59966100  1
  C  C2  1  0.13135100  0.10995400  0.49500800  1
  C  C3  1  0.01032300  0.87265900  0.37539000  1
  C  C4  1  0.87486400  0.87162400  0.47812200  1
  C  C5  1  0.13282000  0.09121100  0.33999000  1
  C  C6  1  0.12217500  0.08645100  0.26294100  1
  C  C7  1  0.17442600  0.15632600  0.26257000  1
  C  C8  1  0.24135200  0.22873800  0.33922600  1
  C  C9  1  0.25639800  0.23247400  0.41783200  1
  C  C10  1  0.19678100  0.16630100  0.41826600  1
  C  C11  1  0.32934600  0.30159000  0.49532500  1
  C  C12  1  0.33901200  0.30673500  0.57327200  1
  C  C13  1  0.27304000  0.24696500  0.57414900  1
  C  C14  1  0.20194500  0.17529100  0.49619800  1
  C  C15  1  0.41442400  0.37137200  0.65097600  1
  C  C16  1  0.42097600  0.38139100  0.72842700  1
  C  C17  1  0.35261100  0.32771300  0.72973000  1
  C  C18  1  0.27944700  0.26087400  0.65359300  1
  C  C19  1  0.93514400  0.06914000  0.70081700  1
  C  C20  1  0.91690700  0.04635500  0.75691500  1
  C  C21  1  0.93036300  0.10757300  0.83129900  1
  C  C22  1  0.95704200  0.19066500  0.84718100  1
  C  C23  1  0.97068800  0.21362200  0.78847800  1
  C  C24  1  0.96623300  0.15414100  0.71774800  1
  C  C25  1  0.99289100  0.17882100  0.66482500  1
  C  C26  1  0.01785300  0.26406500  0.67962900  1
  C  C27  1  0.01196200  0.31776500  0.74524700  1
  C  C28  1  0.99110800  0.29542900  0.80021600  1
  C  C29  1  0.72899000  0.71767400  0.31662100  1
  C  C30  1  0.65693700  0.64943500  0.24026300  1
  C  C31  1  0.58937800  0.59369300  0.24115900  1
  C  C32  1  0.59533500  0.60357100  0.31846900  1
  C  C33  1  0.66910800  0.67025200  0.39627200  1
  C  C34  1  0.73443500  0.73112700  0.39546500  1
  C  C35  1  0.80540000  0.80232800  0.47345500  1
  C  C36  1  0.81206100  0.80891900  0.55027400  1
  C  C37  1  0.74856500  0.74766000  0.55095400  1
  C  C38  1  0.67759700  0.67777500  0.47472400  1
  C  C39  1  0.17177800  0.88465300  0.38698500  1
  C  C40  1  0.24806800  0.88607900  0.39863200  1
  C  C41  1  0.24669800  0.81588400  0.34420100  1
  C  C42  1  0.16932100  0.74603800  0.27506600  1
  C  C43  1  0.09183400  0.74538500  0.25980400  1
  C  C44  1  0.09266500  0.81262900  0.31999300  1
  C  C45  1  0.01460000  0.80786400  0.31068400  1
  C  C46  1  0.93768800  0.73928600  0.23923800  1
  C  C47  1  0.93713800  0.67484600  0.17772300  1
  C  C48  1  0.01348000  0.67765300  0.18668500  1
  C  C49  1  0.63607500  0.50214800  0.60951600  1
  C  C50  1  0.39561100  0.36901600  0.49457600  1
  C  C51  1  0.37670200  0.47763000  0.36687700  1
  C  C52  1  0.61583500  0.61108400  0.47982300  1
  C  C53  1  0.88732800  0.49809400  0.87668900  1
  C  C54  1  0.99295400  0.36236800  0.86952900  1
  C  C55  1  0.11235300  0.47680700  0.10867200  1
  C  C56  1  0.00876100  0.60990500  0.11604500  1
  C  C57  1  0.79036700  0.66242500  0.75510700  1
  C  C58  1  0.85762200  0.73881400  0.82775400  1
  C  C59  1  0.91104700  0.73806400  0.89688700  1
  C  C60  1  0.89985100  0.66090000  0.89223700  1
  C  C61  1  0.83445900  0.58295400  0.81791000  1
  C  C62  1  0.77597900  0.58383100  0.75051400  1
  C  C63  1  0.70537600  0.50623600  0.67873000  1
  C  C64  1  0.69671500  0.42931500  0.67348100  1
  C  C65  1  0.75560700  0.42838200  0.73896900  1
  C  C66  1  0.82498800  0.50432800  0.81104900  1
  C  C67  1  0.22004200  0.45714300  0.37197500  1
  C  C68  1  0.15224000  0.45980500  0.38231400  1
  C  C69  1  0.09517000  0.47216100  0.32768800  1
  C  C70  1  0.10318000  0.47770500  0.25999000  1
  C  C71  1  0.16889600  0.47090400  0.24597500  1
  C  C72  1  0.23111700  0.46604900  0.30593400  1
  C  C73  1  0.30278300  0.46880900  0.29848200  1
  C  C74  1  0.30817100  0.46979600  0.22816000  1
  C  C75  1  0.24530200  0.47175100  0.16733100  1
  C  C76  1  0.17554500  0.47235700  0.17524100  1
  C  C77  1  0.05453200  0.30824500  0.63510000  1
  C  C78  1  0.06376200  0.25424100  0.56297600  1
  C  C79  1  0.99639100  0.34002500  0.59557800  1
  C  C80  1  0.14544600  0.38508600  0.70233000  1
  O  O1  1  0.04993400  0.08553700  0.62649400  1
  O  O2  1  0.94463400  0.08157300  0.51766500  1
  O  O3  1  0.15121300  0.07878700  0.54610600  1
  O  O4  1  0.05084500  0.08484100  0.44209800  1
  O  O5  1  0.05895400  0.90018900  0.45737200  1
  O  O6  1  0.95721900  0.89994700  0.34811700  1
  O  O7  1  0.95500700  0.90028200  0.53447600  1
  O  O8  1  0.85468900  0.90266200  0.42690900  1
  O  O9  1  0.60324400  0.55152900  0.63061600  1
  O  O10  1  0.60562000  0.44483900  0.52931700  1
  O  O11  1  0.41865000  0.44996700  0.54188900  1
  O  O12  1  0.42676300  0.34531200  0.44425600  1
  O  O13  1  0.40811800  0.53607100  0.44690200  1
  O  O14  1  0.40897700  0.42767900  0.34534000  1
  O  O15  1  0.58741200  0.63526900  0.53274100  1
  O  O16  1  0.59356400  0.53032700  0.43325800  1
  O  O17  1  0.97038900  0.54602300  0.90722800  1
  O  O18  1  0.85711600  0.44177200  0.89945600  1
  O  O19  1  0.05118500  0.44279000  0.90236200  1
  O  O20  1  0.93518900  0.34086300  0.89335900  1
  O  O21  1  0.14254400  0.53137200  0.08414000  1
  O  O22  1  0.02911900  0.42586800  0.07538000  1
  O  O23  1  0.06374900  0.63213200  0.08922800  1
  O  O24  1  0.94846100  0.52985000  0.08158000  1
