# generated using pymatgen
data_CuH10C21NO6
_symmetry_space_group_name_H-M   'P 1'
_cell_length_a   14.95295100
_cell_length_b   12.96395700
_cell_length_c   11.52450500
_cell_angle_alpha   99.70700900
_cell_angle_beta   94.26937900
_cell_angle_gamma   90.00247200
_symmetry_Int_Tables_number   1
_chemical_formula_structural   CuH10C21NO6
_chemical_formula_sum   'Cu2 H20 C42 N2 O12'
_cell_volume   2195.74296497
_cell_formula_units_Z   2
loop_
 _symmetry_equiv_pos_site_id
 _symmetry_equiv_pos_as_xyz
  1  'x, y, z'
loop_
 _atom_site_type_symbol
 _atom_site_label
 _atom_site_symmetry_multiplicity
 _atom_site_fract_x
 _atom_site_fract_y
 _atom_site_fract_z
 _atom_site_occupancy
  Cu  Cu1  1  0.50663200  0.50792800  0.61757600  1
  Cu  Cu2  1  0.49307300  0.49209200  0.38242100  1
  H  H1  1  0.78614300  0.66688500  0.57957600  1
  H  H2  1  0.21354900  0.33337400  0.42128200  1
  H  H3  1  0.76787400  0.34879000  0.42294700  1
  H  H4  1  0.23310700  0.65083400  0.57810200  1
  H  H5  1  0.07471000  0.24591000  0.38977500  1
  H  H6  1  0.92580700  0.75374400  0.61201400  1
  H  H7  1  0.53636500  0.81352600  0.36496700  1
  H  H8  1  0.46577800  0.18680500  0.63517000  1
  H  H9  1  0.56266300  0.96345700  0.28064700  1
  H  H10  1  0.43652800  0.03679600  0.71791100  1
  H  H11  1  0.42214600  0.39899600  0.78837200  1
  H  H12  1  0.57472300  0.60434900  0.21167900  1
  H  H13  1  0.61344700  0.64214900  0.81946600  1
  H  H14  1  0.38552300  0.35955100  0.18120900  1
  H  H15  1  0.37536500  0.34199200  0.96537000  1
  H  H16  1  0.62837800  0.65560800  0.03574200  1
  H  H17  1  0.83229200  0.20170800  0.41022700  1
  H  H18  1  0.16815700  0.79698100  0.58897100  1
  H  H19  1  0.41615600  0.88968400  0.81616400  1
  H  H20  1  0.58548700  0.10971200  0.18404700  1
  C  C1  1  0.50945100  0.29957600  0.47800400  1
  C  C2  1  0.49012200  0.70052000  0.52189800  1
  C  C3  1  0.32844300  0.49076000  0.49903100  1
  C  C4  1  0.67147100  0.50940800  0.50108300  1
  C  C5  1  0.81947300  0.59501400  0.54586900  1
  C  C6  1  0.18043300  0.40529300  0.45429100  1
  C  C7  1  0.76901800  0.50683900  0.50149800  1
  C  C8  1  0.23085500  0.49349800  0.49828500  1
  C  C9  1  0.81054300  0.41507600  0.45785400  1
  C  C10  1  0.18970500  0.58521700  0.54210300  1
  C  C11  1  0.90357000  0.40957700  0.45992500  1
  C  C12  1  0.09672000  0.59049400  0.53972900  1
  C  C13  1  0.95389300  0.50064200  0.50021900  1
  C  C14  1  0.04638300  0.49991200  0.49946100  1
  C  C15  1  0.91156500  0.59247100  0.54277700  1
  C  C16  1  0.08853300  0.40795100  0.45752200  1
  C  C17  1  0.94724100  0.31579500  0.42210100  1
  C  C18  1  0.05306700  0.68375300  0.57831100  1
  C  C19  1  0.03943500  0.31712600  0.41949500  1
  C  C20  1  0.96090000  0.68280000  0.58155000  1
  C  C21  1  0.48408500  0.81519700  0.53332000  1
  C  C22  1  0.51590900  0.18469000  0.46617700  1
  C  C23  1  0.54096600  0.01282400  0.35834500  1
  C  C24  1  0.45839200  0.98701400  0.64057700  1
  C  C25  1  0.54503300  0.12035000  0.36620500  1
  C  C26  1  0.45393900  0.87946700  0.63261200  1
  C  C27  1  0.48855300  0.13859700  0.55757100  1
  C  C28  1  0.51257800  0.86131300  0.44236000  1
  C  C29  1  0.48739100  0.03135000  0.54960000  1
  C  C30  1  0.51300000  0.96849300  0.44997400  1
  C  C31  1  0.42009700  0.39995400  0.01832800  1
  C  C32  1  0.58165700  0.59904800  0.98226000  1
  C  C33  1  0.42624200  0.40976600  0.13963200  1
  C  C34  1  0.57353100  0.59077800  0.86058200  1
  C  C35  1  0.53240200  0.54539300  0.15621300  1
  C  C36  1  0.46710100  0.45550800  0.84385200  1
  C  C37  1  0.52908200  0.53588900  0.03492100  1
  C  C38  1  0.47228200  0.46343200  0.96535700  1
  C  C39  1  0.90021200  0.21373300  0.38876300  1
  C  C40  1  0.10040400  0.78566500  0.61147100  1
  C  C41  1  0.41362900  0.84041400  0.72999700  1
  C  C42  1  0.58620300  0.15939700  0.26976400  1
  N  N1  1  0.51723200  0.51994400  0.79347800  1
  N  N2  1  0.48285100  0.48069100  0.20658900  1
  O  O1  1  0.51407700  0.35538400  0.58436800  1
  O  O2  1  0.48530000  0.64485100  0.41552800  1
  O  O3  1  0.49672300  0.34195000  0.38267500  1
  O  O4  1  0.50303200  0.65834500  0.61731100  1
  O  O5  1  0.37562700  0.50311900  0.60067000  1
  O  O6  1  0.62405000  0.49701300  0.39959700  1
  O  O7  1  0.36435400  0.48201100  0.39748000  1
  O  O8  1  0.63533700  0.51783500  0.60230400  1
  O  O9  1  0.93963400  0.13809100  0.34040300  1
  O  O10  1  0.06117000  0.86189000  0.65915900  1
  O  O11  1  0.36823900  0.76041800  0.71258400  1
  O  O12  1  0.63139500  0.23951600  0.28834700  1
