# generated using pymatgen
data_Zn2H14C31(NO5)2
_symmetry_space_group_name_H-M   'P 1'
_cell_length_a   8.53182200
_cell_length_b   11.07839100
_cell_length_c   12.15115100
_cell_angle_alpha   107.63578600
_cell_angle_beta   90.09399200
_cell_angle_gamma   102.56833200
_symmetry_Int_Tables_number   1
_chemical_formula_structural   Zn2H14C31(NO5)2
_chemical_formula_sum   'Zn2 H14 C31 N2 O10'
_cell_volume   1065.48436991
_cell_formula_units_Z   1
loop_
 _symmetry_equiv_pos_site_id
 _symmetry_equiv_pos_as_xyz
  1  'x, y, z'
loop_
 _atom_site_type_symbol
 _atom_site_label
 _atom_site_symmetry_multiplicity
 _atom_site_fract_x
 _atom_site_fract_y
 _atom_site_fract_z
 _atom_site_occupancy
  Zn  Zn1  1  0.49187200  0.46788100  0.86919800  1
  Zn  Zn2  1  0.50789700  0.53421300  0.12667900  1
  H  H1  1  0.97266900  0.39908400  0.95215700  1
  H  H2  1  0.63365100  0.08655900  0.00952800  1
  H  H3  1  0.02708300  0.60303300  0.04425000  1
  H  H4  1  0.36605200  0.91530600  0.98653100  1
  H  H5  1  0.28123600  0.10630600  0.98373400  1
  H  H6  1  0.71854100  0.89562500  0.01238100  1
  H  H7  1  0.56976100  0.77325600  0.28242800  1
  H  H8  1  0.58723100  0.82322300  0.67363500  1
  H  H9  1  0.59320700  0.85729100  0.49253700  1
  H  H10  1  0.46943900  0.39036100  0.28894600  1
  H  H11  1  0.43024500  0.23319400  0.72278300  1
  H  H12  1  0.43853100  0.27000700  0.38874200  1
  H  H13  1  0.55319600  0.68471200  0.79093600  1
  H  H14  1  0.35170300  0.94248200  0.35961700  1
  C  C1  1  0.07005100  0.24875700  0.97768100  1
  C  C2  1  0.94617300  0.30623400  0.96688000  1
  C  C3  1  0.79091600  0.25180200  0.98275100  1
  C  C4  1  0.75612100  0.13079500  0.99842000  1
  C  C5  1  0.87808500  0.06545500  0.99691400  1
  C  C6  1  0.03624900  0.12552500  0.98936500  1
  C  C7  1  0.84209600  0.94100100  0.00532300  1
  C  C8  1  0.96353600  0.87646600  0.00679500  1
  C  C9  1  0.12167100  0.93652700  0.99922500  1
  C  C10  1  0.15767200  0.06096200  0.99079600  1
  C  C11  1  0.92981400  0.75327000  0.01855400  1
  C  C12  1  0.05358200  0.69585400  0.02947100  1
  C  C13  1  0.20869200  0.75019700  0.01347600  1
  C  C14  1  0.24358000  0.87115200  0.99771300  1
  C  C15  1  0.76664300  0.67492700  0.01162500  1
  C  C16  1  0.67059300  0.32924700  0.98842600  1
  C  C17  1  0.23344600  0.32698000  0.98454800  1
  C  C18  1  0.32870600  0.67262200  0.00773800  1
  C  C19  1  0.56540800  0.75334000  0.45027800  1
  C  C20  1  0.44711200  0.29538100  0.66847700  1
  C  C21  1  0.43187000  0.23982800  0.55030600  1
  C  C22  1  0.45199300  0.31794700  0.48026100  1
  C  C23  1  0.48779100  0.45235700  0.52882400  1
  C  C24  1  0.50289000  0.50480200  0.64963800  1
  C  C25  1  0.50872900  0.53568200  0.45998300  1
  C  C26  1  0.54409400  0.66868600  0.51415400  1
  C  C27  1  0.55913200  0.71908800  0.63237500  1
  C  C28  1  0.53905800  0.63850000  0.69948600  1
  C  C29  1  0.49593900  0.49152600  0.33862000  1
  C  C30  1  0.55198500  0.70594500  0.33208700  1
  C  C31  1  0.39375200  0.09753000  0.49932100  1
  N  N1  1  0.51783200  0.57704600  0.27811700  1
  N  N2  1  0.48210100  0.42558600  0.71743000  1
  O  O1  1  0.71124300  0.65550800  0.10671300  1
  O  O2  1  0.69512700  0.60983200  0.90845500  1
  O  O3  1  0.62739000  0.34829500  0.89238600  1
  O  O4  1  0.63275800  0.39355500  0.09109500  1
  O  O5  1  0.28875500  0.34622700  0.88913000  1
  O  O6  1  0.30517000  0.39177500  0.08799300  1
  O  O7  1  0.37197900  0.65345900  0.10346400  1
  O  O8  1  0.36613900  0.60800700  0.90533500  1
  O  O9  1  0.37581400  0.02837200  0.56170800  1
  O  O10  1  0.37787100  0.04058500  0.37967500  1
