# generated using pymatgen
data_CuH16C18N3O5
_symmetry_space_group_name_H-M   'P 1'
_cell_length_a   10.67635700
_cell_length_b   15.55615600
_cell_length_c   17.04692000
_cell_angle_alpha   96.34482900
_cell_angle_beta   90.00242500
_cell_angle_gamma   92.82963300
_symmetry_Int_Tables_number   1
_chemical_formula_structural   CuH16C18N3O5
_chemical_formula_sum   'Cu2 H32 C36 N6 O10'
_cell_volume   2810.38923913
_cell_formula_units_Z   2
loop_
 _symmetry_equiv_pos_site_id
 _symmetry_equiv_pos_as_xyz
  1  'x, y, z'
loop_
 _atom_site_type_symbol
 _atom_site_label
 _atom_site_symmetry_multiplicity
 _atom_site_fract_x
 _atom_site_fract_y
 _atom_site_fract_z
 _atom_site_occupancy
  Cu  Cu1  1  0.49269600  0.41238800  0.50277200  1
  Cu  Cu2  1  0.50548800  0.58526900  0.51077100  1
  H  H1  1  0.09659700  0.38025400  0.43180200  1
  H  H2  1  0.10973200  0.47551900  0.38036800  1
  H  H3  1  0.89774000  0.48254200  0.37847200  1
  H  H4  1  0.09750200  0.39140400  0.57620000  1
  H  H5  1  0.88922600  0.38885900  0.57427800  1
  H  H6  1  0.11108000  0.63090300  0.56517600  1
  H  H7  1  0.11126900  0.62254000  0.45818200  1
  H  H8  1  0.90381300  0.62168000  0.45743700  1
  H  H9  1  0.90157500  0.62912100  0.56408600  1
  H  H10  1  0.10230600  0.49624400  0.63338700  1
  H  H11  1  0.89199400  0.49328500  0.63140400  1
  H  H12  1  0.52058800  0.37707500  0.74614300  1
  H  H13  1  0.47860400  0.33374500  0.10946500  1
  H  H14  1  0.48112700  0.34359500  0.25210800  1
  H  H15  1  0.49255900  0.65164000  0.76395700  1
  H  H16  1  0.50617500  0.61104800  0.12167700  1
  H  H17  1  0.49523500  0.65751100  0.90679800  1
  H  H18  1  0.50763200  0.62006300  0.26382300  1
  H  H19  1  0.62560100  0.28099700  0.58248500  1
  H  H20  1  0.61801500  0.12605800  0.57953900  1
  H  H21  1  0.66600100  0.88746500  0.61377500  1
  H  H22  1  0.65273500  0.72796200  0.60525600  1
  H  H23  1  0.34318000  0.26887700  0.40901100  1
  H  H24  1  0.38075300  0.87160000  0.43495100  1
  H  H25  1  0.32904400  0.11034600  0.40333900  1
  H  H26  1  0.37377000  0.71675300  0.43022900  1
  H  H27  1  0.71459200  0.41520900  0.89243900  1
  H  H28  1  0.68390900  0.30917700  0.83825000  1
  H  H29  1  0.68604200  0.32168300  0.94493600  1
  H  H30  1  0.92856800  0.35627800  0.30410700  1
  H  H31  1  0.76283300  0.37422400  0.32582500  1
  H  H32  1  0.82628700  0.27051300  0.33249400  1
  C  C1  1  0.49659700  0.48923900  0.35514200  1
  C  C2  1  0.25835400  0.49925500  0.50775800  1
  C  C3  1  0.50231500  0.50832900  0.65826100  1
  C  C4  1  0.73998200  0.49853600  0.50522000  1
  C  C5  1  0.06877800  0.44794200  0.43240600  1
  C  C6  1  0.92673600  0.44902300  0.42924800  1
  C  C7  1  0.06720700  0.45879300  0.57793900  1
  C  C8  1  0.07595700  0.59199800  0.51039300  1
  C  C9  1  0.11856300  0.49980700  0.50729600  1
  C  C10  1  0.88043300  0.49846000  0.50506000  1
  C  C11  1  0.92542700  0.45709700  0.57637200  1
  C  C12  1  0.93408700  0.59119200  0.50964800  1
  C  C13  1  0.49550300  0.48286500  0.26846500  1
  C  C14  1  0.50204000  0.55689600  0.23027900  1
  C  C15  1  0.50138000  0.55126100  0.14879100  1
  C  C16  1  0.49343700  0.47058900  0.10469200  1
  C  C17  1  0.48559200  0.39695000  0.14310300  1
  C  C18  1  0.48712900  0.40274200  0.22425900  1
  C  C19  1  0.51916300  0.44205300  0.86210600  1
  C  C20  1  0.51496800  0.43923700  0.78096400  1
  C  C21  1  0.50944700  0.52144300  0.90860600  1
  C  C22  1  0.50543200  0.51364700  0.74467000  1
  C  C23  1  0.49969300  0.59222300  0.79056500  1
  C  C24  1  0.50139600  0.59561000  0.87167700  1
  C  C25  1  0.44005000  0.75439200  0.46982800  1
  C  C26  1  0.44447900  0.84332000  0.47276900  1
  C  C27  1  0.52722100  0.89242700  0.52411300  1
  C  C28  1  0.60254700  0.85034400  0.57183400  1
  C  C29  1  0.59535700  0.76103100  0.56725500  1
  C  C30  1  0.55605800  0.15435300  0.54020900  1
  C  C31  1  0.56048400  0.24331600  0.54264800  1
  C  C32  1  0.47257600  0.10541300  0.48917400  1
  C  C33  1  0.40347700  0.23646900  0.44621900  1
  C  C34  1  0.39599400  0.14740400  0.44246300  1
  C  C35  1  0.66051900  0.35238400  0.89189800  1
  C  C36  1  0.84753300  0.34129300  0.34209800  1
  N  N1  1  0.49265300  0.46085600  0.02111200  1
  N  N2  1  0.50914700  0.53059500  0.99231700  1
  N  N3  1  0.51475200  0.71454300  0.51667000  1
  N  N4  1  0.53685500  0.98391200  0.52913900  1
  N  N5  1  0.46292600  0.01398700  0.48396400  1
  N  N6  1  0.48371300  0.28316700  0.49710100  1
  O  O1  1  0.49599800  0.41753300  0.38900400  1
  O  O2  1  0.49872100  0.56589000  0.39544800  1
  O  O3  1  0.31176400  0.42501800  0.50741300  1
  O  O4  1  0.32257100  0.57334500  0.50792000  1
  O  O5  1  0.50054200  0.43176800  0.61802700  1
  O  O6  1  0.50206600  0.58022300  0.62450400  1
  O  O7  1  0.67586100  0.42467300  0.50528400  1
  O  O8  1  0.68649200  0.57254800  0.50640800  1
  O  O9  1  0.53197500  0.36558000  0.89341100  1
  O  O10  1  0.87666600  0.36366200  0.42194300  1
