# generated using pymatgen
data_ZnH6C16NO4F3
_symmetry_space_group_name_H-M   'P 1'
_cell_length_a   8.52388000
_cell_length_b   9.29883300
_cell_length_c   13.03715000
_cell_angle_alpha   90.59104300
_cell_angle_beta   86.47240800
_cell_angle_gamma   93.24539000
_symmetry_Int_Tables_number   1
_chemical_formula_structural   ZnH6C16NO4F3
_chemical_formula_sum   'Zn2 H12 C32 N2 O8 F6'
_cell_volume   1029.71613167
_cell_formula_units_Z   2
loop_
 _symmetry_equiv_pos_site_id
 _symmetry_equiv_pos_as_xyz
  1  'x, y, z'
loop_
 _atom_site_type_symbol
 _atom_site_label
 _atom_site_symmetry_multiplicity
 _atom_site_fract_x
 _atom_site_fract_y
 _atom_site_fract_z
 _atom_site_occupancy
  Zn  Zn1  1  0.50782200  0.16422200  0.49892700  1
  Zn  Zn2  1  0.49741200  0.84190500  0.50255200  1
  H  H1  1  0.98318400  0.98347200  0.43099500  1
  H  H2  1  0.29303700  0.96824600  0.17192000  1
  H  H3  1  0.31788900  0.94418000  0.01770100  1
  H  H4  1  0.34954100  0.95881600  0.83795900  1
  H  H5  1  0.02363400  0.05885300  0.57622900  1
  H  H6  1  0.70851900  0.97950700  0.83152000  1
  H  H7  1  0.68903700  0.03991800  0.98248200  1
  H  H8  1  0.65889100  0.03978400  0.16344100  1
  H  H9  1  0.51282500  0.37235800  0.65745900  1
  H  H10  1  0.51192800  0.24448500  0.30443400  1
  H  H11  1  0.49400100  0.75703100  0.30476900  1
  H  H12  1  0.50238600  0.63509400  0.65971500  1
  C  C1  1  0.87616100  0.00348400  0.29247600  1
  C  C2  1  0.00243900  0.99060400  0.34966000  1
  C  C3  1  0.15044700  0.98635100  0.30496300  1
  C  C4  1  0.17366700  0.97841400  0.20021000  1
  C  C5  1  0.04690000  0.98499900  0.13814900  1
  C  C6  1  0.89797000  0.00222500  0.18586300  1
  C  C7  1  0.06643000  0.97920200  0.03025000  1
  C  C8  1  0.93709800  0.99359400  0.97168800  1
  C  C9  1  0.79161900  0.01709600  0.02189300  1
  C  C10  1  0.77267800  0.01942500  0.12720100  1
  C  C11  1  0.21293900  0.96120800  0.97932800  1
  C  C12  1  0.23290800  0.96753400  0.87406600  1
  C  C13  1  0.10707800  0.98633500  0.81594800  1
  C  C14  1  0.95686200  0.99226500  0.86400300  1
  C  C15  1  0.12982700  0.00291200  0.71011100  1
  C  C16  1  0.00339000  0.03196400  0.65545800  1
  C  C17  1  0.85299600  0.01802600  0.69899700  1
  C  C18  1  0.82896800  0.99549900  0.80265700  1
  C  C19  1  0.72035100  0.01406400  0.63297700  1
  C  C20  1  0.72468000  0.00730100  0.35210500  1
  C  C21  1  0.28208500  0.99206000  0.37054600  1
  C  C22  1  0.28239200  0.99958200  0.65025800  1
  C  C23  1  0.50103400  0.35608800  0.31207400  1
  C  C24  1  0.49012500  0.42536700  0.22013800  1
  C  C25  1  0.49218100  0.57291600  0.22014200  1
  C  C26  1  0.49520600  0.64546300  0.31281900  1
  C  C27  1  0.49711100  0.57680600  0.40803600  1
  C  C28  1  0.50287200  0.42757300  0.40699500  1
  C  C29  1  0.50917300  0.42892400  0.58570700  1
  C  C30  1  0.50190600  0.57791900  0.58711200  1
  C  C31  1  0.48537500  0.33850200  0.12223700  1
  C  C32  1  0.48666000  0.65623100  0.12197900  1
  N  N1  1  0.51027000  0.35399600  0.49646700  1
  N  N2  1  0.49526800  0.65200100  0.49923900  1
  O  O1  1  0.66498200  0.88606700  0.60261800  1
  O  O2  1  0.67023300  0.13748800  0.60220200  1
  O  O3  1  0.67977300  0.13066400  0.38924700  1
  O  O4  1  0.66500900  0.88541400  0.38955600  1
  O  O5  1  0.33679400  0.11749000  0.40182000  1
  O  O6  1  0.33054000  0.87187300  0.40322200  1
  O  O7  1  0.32880500  0.87306600  0.61503700  1
  O  O8  1  0.34237800  0.12455800  0.61397500  1
  F  F1  1  0.43596100  0.19747400  0.14277000  1
  F  F2  1  0.63409800  0.34050700  0.07336400  1
  F  F3  1  0.38065000  0.39203100  0.05765100  1
  F  F4  1  0.58630700  0.60090900  0.04584300  1
  F  F5  1  0.53425000  0.79910600  0.13552700  1
  F  F6  1  0.33432600  0.65004200  0.09071000  1
