# generated using pymatgen
data_ZnH14C30NO6
_symmetry_space_group_name_H-M   'P 1'
_cell_length_a   14.48894100
_cell_length_b   14.54532600
_cell_length_c   10.45898600
_cell_angle_alpha   89.99717000
_cell_angle_beta   89.99551900
_cell_angle_gamma   90.00000000
_symmetry_Int_Tables_number   1
_chemical_formula_structural   ZnH14C30NO6
_chemical_formula_sum   'Zn2 H28 C60 N2 O12'
_cell_volume   2204.19332646
_cell_formula_units_Z   2
loop_
 _symmetry_equiv_pos_site_id
 _symmetry_equiv_pos_as_xyz
  1  'x, y, z'
loop_
 _atom_site_type_symbol
 _atom_site_label
 _atom_site_symmetry_multiplicity
 _atom_site_fract_x
 _atom_site_fract_y
 _atom_site_fract_z
 _atom_site_occupancy
  Zn  Zn1  1  0.49701300  0.50825400  0.63199700  1
  Zn  Zn2  1  0.51214200  0.49576300  0.34422500  1
  H  H1  1  0.75489200  0.79861600  0.30334500  1
  H  H2  1  0.26847500  0.19376100  0.67484200  1
  H  H3  1  0.59245100  0.82052000  0.25844800  1
  H  H4  1  0.43151700  0.18208500  0.72433000  1
  H  H5  1  0.50079200  0.70313200  0.19380600  1
  H  H6  1  0.51529600  0.30630100  0.78504800  1
  H  H7  1  0.72830400  0.53680200  0.13462700  1
  H  H8  1  0.27794700  0.45872100  0.84396800  1
  H  H9  1  0.03000500  0.68956900  0.22691600  1
  H  H10  1  0.12976900  0.76658300  0.38194400  1
  H  H11  1  0.06888700  0.81201000  0.59203200  1
  H  H12  1  0.90760200  0.77821300  0.64763500  1
  H  H13  1  0.80742300  0.69966100  0.49562500  1
  H  H14  1  0.00057700  0.32443700  0.60784100  1
  H  H15  1  0.89290400  0.19493500  0.61228600  1
  H  H16  1  0.92652500  0.05916200  0.74435700  1
  H  H17  1  0.06772200  0.05443800  0.87455800  1
  H  H18  1  0.17492600  0.18400700  0.87284200  1
  H  H19  1  0.83334800  0.67217400  0.88608600  1
  H  H20  1  0.86157600  0.83753100  0.89917300  1
  H  H21  1  0.73223100  0.94482200  0.92852400  1
  H  H22  1  0.57358300  0.88589900  0.94280400  1
  H  H23  1  0.54346400  0.72151000  0.92769100  1
  H  H24  1  0.18731400  0.32578100  0.13332800  1
  H  H25  1  0.17292300  0.15960400  0.15760500  1
  H  H26  1  0.30747100  0.05942300  0.12493100  1
  H  H27  1  0.45786800  0.12688500  0.07032500  1
  H  H28  1  0.47512100  0.29228200  0.04980300  1
  C  C1  1  0.49360800  0.32171300  0.51151700  1
  C  C2  1  0.51534200  0.68218600  0.46440300  1
  C  C3  1  0.32480600  0.51392500  0.47369900  1
  C  C4  1  0.68439600  0.49012700  0.50243900  1
  C  C5  1  0.22592000  0.51428100  0.46604100  1
  C  C6  1  0.78330900  0.49108100  0.50892500  1
  C  C7  1  0.14279800  0.51193700  0.46872200  1
  C  C8  1  0.86633600  0.49475200  0.50411700  1
  C  C9  1  0.04575400  0.50674000  0.47955000  1
  C  C10  1  0.96319300  0.50118100  0.49150000  1
  C  C11  1  0.50074000  0.22291500  0.50530300  1
  C  C12  1  0.50731900  0.78096400  0.46887700  1
  C  C13  1  0.50362300  0.14023800  0.49734400  1
  C  C14  1  0.50389400  0.86367400  0.47543100  1
  C  C15  1  0.50385500  0.04333200  0.48918200  1
  C  C16  1  0.50334500  0.96061200  0.48276500  1
  C  C17  1  0.61909900  0.75127400  0.26389700  1
  C  C18  1  0.39974900  0.24919600  0.72026400  1
  C  C19  1  0.56052400  0.67697400  0.24394600  1
  C  C20  1  0.45348100  0.32750100  0.73524600  1
  C  C21  1  0.60386600  0.61325100  0.16470200  1
  C  C22  1  0.40728700  0.39049900  0.81274300  1
  C  C23  1  0.69764100  0.59654900  0.17896600  1
  C  C24  1  0.31232000  0.40045400  0.80108700  1
  C  C25  1  0.75206000  0.65736900  0.24619200  1
  C  C26  1  0.26055900  0.33291700  0.74294000  1
  C  C27  1  0.71267100  0.73990000  0.27923200  1
  C  C28  1  0.30554000  0.25404000  0.70617200  1
  C  C29  1  0.58587600  0.54159500  0.94859300  1
  C  C30  1  0.42315000  0.46692100  0.02650000  1
  C  C31  1  0.45821300  0.44751200  0.90540300  1
  C  C32  1  0.55097100  0.56047200  0.06980500  1
  C  C33  1  0.85254300  0.64280700  0.25474700  1
  C  C34  1  0.91070800  0.69158600  0.34829400  1
  C  C35  1  0.00214000  0.70891000  0.31893300  1
  C  C36  1  0.05859600  0.75252100  0.40601200  1
  C  C37  1  0.02450600  0.77805300  0.52368300  1
  C  C38  1  0.93402600  0.75937700  0.55461800  1
  C  C39  1  0.87729300  0.71594600  0.46767300  1
  C  C40  1  0.15933900  0.34208000  0.73596700  1
  C  C41  1  0.09693000  0.26213600  0.73650000  1
  C  C42  1  0.01617900  0.26533000  0.66636200  1
  C  C43  1  0.95544900  0.19235300  0.66851600  1
  C  C44  1  0.97426700  0.11626000  0.74243300  1
  C  C45  1  0.05353000  0.11353100  0.81503800  1
  C  C46  1  0.11441300  0.18639200  0.81281100  1
  C  C47  1  0.67050900  0.58476500  0.89944300  1
  C  C48  1  0.68667000  0.68452400  0.90887200  1
  C  C49  1  0.77558600  0.71833900  0.89857000  1
  C  C50  1  0.79184900  0.81158100  0.90622700  1
  C  C51  1  0.71941300  0.87172100  0.92283600  1
  C  C52  1  0.63054600  0.83862800  0.93121200  1
  C  C53  1  0.61398300  0.74540100  0.92399900  1
  C  C54  1  0.34003800  0.42243600  0.07773900  1
  C  C55  1  0.33162300  0.32163500  0.08645000  1
  C  C56  1  0.24744300  0.28308100  0.11870300  1
  C  C57  1  0.23893900  0.18919500  0.13258000  1
  C  C58  1  0.31425700  0.13302900  0.11415000  1
  C  C59  1  0.39844300  0.17087500  0.08312300  1
  C  C60  1  0.40749000  0.26479400  0.06997800  1
  N  N1  1  0.53946600  0.48442600  0.87062200  1
  N  N2  1  0.46980300  0.52368300  0.10458000  1
  O  O1  1  0.48623200  0.36942500  0.62033100  1
  O  O2  1  0.52406900  0.63448800  0.35609900  1
  O  O3  1  0.50308200  0.36284800  0.40055500  1
  O  O4  1  0.50546700  0.64120000  0.57545700  1
  O  O5  1  0.36105600  0.51241400  0.58812200  1
  O  O6  1  0.64797000  0.49063100  0.38834300  1
  O  O7  1  0.37396300  0.50995700  0.36821800  1
  O  O8  1  0.63529300  0.49481100  0.60793300  1
  O  O9  1  0.88926100  0.58963200  0.18033400  1
  O  O10  1  0.12578600  0.41886000  0.73131700  1
  O  O11  1  0.72735000  0.53671000  0.84541800  1
  O  O12  1  0.27956300  0.47069000  0.12320000  1
