# generated using pymatgen
data_Zn3H28C72(Cl7O6)2
_symmetry_space_group_name_H-M   'P 1'
_cell_length_a   38.47632400
_cell_length_b   21.74763300
_cell_length_c   21.56761000
_cell_angle_alpha   90.00000000
_cell_angle_beta   56.25109300
_cell_angle_gamma   90.00000000
_symmetry_Int_Tables_number   1
_chemical_formula_structural   Zn3H28C72(Cl7O6)2
_chemical_formula_sum   'Zn12 H112 C288 Cl56 O48'
_cell_volume   15005.81222794
_cell_formula_units_Z   4
loop_
 _symmetry_equiv_pos_site_id
 _symmetry_equiv_pos_as_xyz
  1  'x, y, z'
loop_
 _atom_site_type_symbol
 _atom_site_label
 _atom_site_symmetry_multiplicity
 _atom_site_fract_x
 _atom_site_fract_y
 _atom_site_fract_z
 _atom_site_occupancy
  Zn  Zn1  1  0.00004800  0.44501700  0.50008500  1
  Zn  Zn2  1  0.95880000  0.49296700  0.04250000  1
  Zn  Zn3  1  0.54121600  0.99303400  0.95737200  1
  Zn  Zn4  1  0.45880000  0.99296700  0.04250000  1
  Zn  Zn5  1  0.50004800  0.94501700  0.50008500  1
  Zn  Zn6  1  0.00014000  0.58438700  0.49981600  1
  Zn  Zn7  1  0.50014000  0.08438700  0.49981600  1
  Zn  Zn8  1  0.49364700  0.49304800  0.93671200  1
  Zn  Zn9  1  0.50649500  0.49308600  0.06304100  1
  Zn  Zn10  1  0.99364700  0.99304800  0.93671200  1
  Zn  Zn11  1  0.00649500  0.99308600  0.06304100  1
  Zn  Zn12  1  0.04121600  0.49303400  0.95737200  1
  H  H1  1  0.72411500  0.51643100  0.64225200  1
  H  H2  1  0.22928500  0.50532400  0.19007300  1
  H  H3  1  0.45122300  0.15042500  0.73146000  1
  H  H4  1  0.14471800  0.65405100  0.99542100  1
  H  H5  1  0.16505700  0.46098500  0.97196900  1
  H  H6  1  0.09482000  0.44484800  0.08507500  1
  H  H7  1  0.85487800  0.65441300  0.00488500  1
  H  H8  1  0.83519000  0.46121400  0.02842000  1
  H  H9  1  0.90541400  0.44543000  0.91513700  1
  H  H10  1  0.64471800  0.15405100  0.99542100  1
  H  H11  1  0.66505700  0.96098500  0.97196900  1
  H  H12  1  0.59482000  0.94484800  0.08507500  1
  H  H13  1  0.27101300  0.00326700  0.80959800  1
  H  H14  1  0.35487800  0.15441300  0.00488500  1
  H  H15  1  0.33519000  0.96121400  0.02842000  1
  H  H16  1  0.40541400  0.94543000  0.91513700  1
  H  H17  1  0.72928500  0.00532400  0.19007300  1
  H  H18  1  0.72693100  0.41206000  0.79021100  1
  H  H19  1  0.27306300  0.41292300  0.20868400  1
  H  H20  1  0.22693100  0.91206000  0.79021100  1
  H  H21  1  0.77306300  0.91292300  0.20868400  1
  H  H22  1  0.94479600  0.46527600  0.24769500  1
  H  H23  1  0.05556800  0.46764100  0.75185800  1
  H  H24  1  0.44479600  0.96527600  0.24769500  1
  H  H25  1  0.27593200  0.51527200  0.35797500  1
  H  H26  1  0.55556800  0.96764100  0.75185800  1
  H  H27  1  0.94397300  0.47193700  0.36171000  1
  H  H28  1  0.05657100  0.47524200  0.63771000  1
  H  H29  1  0.44397400  0.97193700  0.36171000  1
  H  H30  1  0.55657100  0.97524200  0.63771000  1
  H  H31  1  0.54606200  0.68763500  0.02436300  1
  H  H32  1  0.45406500  0.68804700  0.97347500  1
  H  H33  1  0.04606200  0.18763500  0.02436300  1
  H  H34  1  0.95406500  0.18804700  0.97347500  1
  H  H35  1  0.72059700  0.74484300  0.63172100  1
  H  H36  1  0.22411500  0.01643100  0.64225200  1
  H  H37  1  0.85070500  0.71451600  0.52721200  1
  H  H38  1  0.83661200  0.61744600  0.59090300  1
  H  H39  1  0.28013900  0.74333400  0.37108600  1
  H  H40  1  0.14999800  0.71466300  0.47404200  1
  H  H41  1  0.16384500  0.61812500  0.40939400  1
  H  H42  1  0.22059700  0.24484300  0.63172100  1
  H  H43  1  0.35070500  0.21451600  0.52721200  1
  H  H44  1  0.33661200  0.11744600  0.59090300  1
  H  H45  1  0.78013900  0.24333400  0.37108600  1
  H  H46  1  0.64999800  0.21466300  0.47404200  1
  H  H47  1  0.77593200  0.01527200  0.35797500  1
  H  H48  1  0.66384500  0.11812500  0.40939400  1
  H  H49  1  0.40610700  0.35877900  0.29209500  1
  H  H50  1  0.33484000  0.35565300  0.19608200  1
  H  H51  1  0.39421400  0.30953800  0.08204300  1
  H  H52  1  0.59353100  0.35957900  0.70985600  1
  H  H53  1  0.66536200  0.35502100  0.80473600  1
  H  H54  1  0.60605100  0.30897800  0.91890100  1
  H  H55  1  0.90610700  0.85877900  0.29209500  1
  H  H56  1  0.83484000  0.85565300  0.19608200  1
  H  H57  1  0.89421400  0.80953800  0.08204300  1
  H  H58  1  0.71789900  0.59280800  0.81383700  1
  H  H59  1  0.09353100  0.85957900  0.70985600  1
  H  H60  1  0.16536200  0.85502100  0.80473600  1
  H  H61  1  0.10605100  0.80897800  0.91890100  1
  H  H62  1  0.88111500  0.60192800  0.27695900  1
  H  H63  1  0.83205600  0.64725100  0.14816200  1
  H  H64  1  0.89868300  0.69555600  0.05395900  1
  H  H65  1  0.11807100  0.60256600  0.72349200  1
  H  H66  1  0.16791500  0.64636200  0.85142500  1
  H  H67  1  0.10152400  0.69490500  0.94625500  1
  H  H68  1  0.38111500  0.10192800  0.27695900  1
  H  H69  1  0.28255500  0.59381200  0.18705200  1
  H  H70  1  0.33205600  0.14725100  0.14816200  1
  H  H71  1  0.39868300  0.19555600  0.05395900  1
  H  H72  1  0.61807100  0.10256600  0.72349200  1
  H  H73  1  0.66791500  0.14636200  0.85142500  1
  H  H74  1  0.60152400  0.19490500  0.94625500  1
  H  H75  1  0.07902900  0.31393400  0.15333200  1
  H  H76  1  0.15850600  0.34407100  0.91913100  1
  H  H77  1  0.10035600  0.31982500  0.90657700  1
  H  H78  1  0.92048400  0.31462900  0.84608200  1
  H  H79  1  0.84155600  0.34456400  0.08039100  1
  H  H80  1  0.21789900  0.09280800  0.81383700  1
  H  H81  1  0.89992900  0.32013000  0.09223700  1
  H  H82  1  0.57902900  0.81393400  0.15333200  1
  H  H83  1  0.65850600  0.84407100  0.91913100  1
  H  H84  1  0.60035600  0.81982500  0.90657700  1
  H  H85  1  0.42048400  0.81462900  0.84608200  1
  H  H86  1  0.34155600  0.84456400  0.08039100  1
  H  H87  1  0.39992900  0.82013000  0.09223700  1
  H  H88  1  0.84325500  0.28408400  0.58306100  1
  H  H89  1  0.79712500  0.36320500  0.46201600  1
  H  H90  1  0.76622400  0.44709300  0.55110800  1
  H  H91  1  0.78255500  0.09381200  0.18705200  1
  H  H92  1  0.15601000  0.28466300  0.41440000  1
  H  H93  1  0.20205400  0.36127600  0.53677100  1
  H  H94  1  0.23346900  0.44559000  0.44839900  1
  H  H95  1  0.34325500  0.78408400  0.58306100  1
  H  H96  1  0.29712500  0.86320500  0.46201600  1
  H  H97  1  0.26622400  0.94709300  0.55110800  1
  H  H98  1  0.65601000  0.78466300  0.41440000  1
  H  H99  1  0.70205400  0.86127600  0.53677100  1
  H  H100  1  0.73346900  0.94559000  0.44839900  1
  H  H101  1  0.16714800  0.51744100  0.20653800  1
  H  H102  1  0.77101300  0.50326700  0.80959800  1
  H  H103  1  0.10974100  0.69403600  0.25972000  1
  H  H104  1  0.04875700  0.64942000  0.26775900  1
  H  H105  1  0.83279900  0.51812300  0.79367000  1
  H  H106  1  0.89024600  0.69468900  0.73916700  1
  H  H107  1  0.95122300  0.65042500  0.73146000  1
  H  H108  1  0.66714800  0.01744100  0.20653800  1
  H  H109  1  0.60974100  0.19403600  0.25972000  1
  H  H110  1  0.54875700  0.14942000  0.26775900  1
  H  H111  1  0.33279900  0.01812300  0.79367000  1
  H  H112  1  0.39024600  0.19468900  0.73916700  1
  C  C1  1  0.00394400  0.51340800  0.37519700  1
  C  C2  1  0.26375600  0.51213500  0.32205500  1
  C  C3  1  0.03298800  0.77326000  0.94213900  1
  C  C4  1  0.96577100  0.70955500  0.05714500  1
  C  C5  1  0.03417800  0.70961600  0.94401800  1
  C  C6  1  0.46577100  0.20955500  0.05714500  1
  C  C7  1  0.53417800  0.20961600  0.94401800  1
  C  C8  1  0.99997200  0.67741200  0.00052800  1
  C  C9  1  0.49997200  0.17741200  0.00052800  1
  C  C10  1  0.50004600  0.30519500  0.00086400  1
  C  C11  1  0.00004600  0.80519500  0.00086400  1
  C  C12  1  0.52534800  0.71233600  0.01411500  1
  C  C13  1  0.23636000  0.01258300  0.67801400  1
  C  C14  1  0.47480100  0.71257000  0.98381100  1
  C  C15  1  0.02534800  0.21233600  0.01411500  1
  C  C16  1  0.97480100  0.21257000  0.98381100  1
  C  C17  1  0.02616700  0.27576200  0.01285600  1
  C  C18  1  0.97396200  0.27598600  0.98547100  1
  C  C19  1  0.52616700  0.77576200  0.01285600  1
  C  C20  1  0.47396200  0.77598600  0.98547100  1
  C  C21  1  0.00006100  0.30845200  0.99926400  1
  C  C22  1  0.50006100  0.80845200  0.99926400  1
  C  C23  1  0.50007800  0.68058200  0.99885900  1
  C  C24  1  0.76375600  0.01213500  0.32205500  1
  C  C25  1  0.00007800  0.18058200  0.99885900  1
  C  C26  1  0.76966200  0.62390700  0.64968500  1
  C  C27  1  0.73726500  0.66114500  0.66042500  1
  C  C28  1  0.74594600  0.71646300  0.62331500  1
  C  C29  1  0.78653800  0.73567300  0.57545900  1
  C  C30  1  0.81873000  0.69957600  0.56481300  1
  C  C31  1  0.81042400  0.64417100  0.60148800  1
  C  C32  1  0.23078700  0.62375200  0.35140600  1
  C  C33  1  0.26326900  0.66039700  0.34133800  1
  C  C34  1  0.25472800  0.71542300  0.37896700  1
  C  C35  1  0.76051600  0.56242400  0.68831900  1
  C  C36  1  0.21419700  0.73494200  0.42666100  1
  C  C37  1  0.18192600  0.69946200  0.43660200  1
  C  C38  1  0.19009000  0.64434900  0.39940300  1
  C  C39  1  0.26966200  0.12390700  0.64968500  1
  C  C40  1  0.23726500  0.16114500  0.66042500  1
  C  C41  1  0.24594600  0.21646300  0.62331500  1
  C  C42  1  0.28653800  0.23567300  0.57545900  1
  C  C43  1  0.31873000  0.19957600  0.56481300  1
  C  C44  1  0.31042400  0.14417100  0.60148800  1
  C  C45  1  0.73078700  0.12375200  0.35140600  1
  C  C46  1  0.23977000  0.56256600  0.31220100  1
  C  C47  1  0.76326900  0.16039700  0.34133800  1
  C  C48  1  0.75472800  0.21542300  0.37896700  1
  C  C49  1  0.71419700  0.23494200  0.42666100  1
  C  C50  1  0.68192600  0.19946200  0.43660200  1
  C  C51  1  0.69009000  0.14434900  0.39940300  1
  C  C52  1  0.43314000  0.30623800  0.12391200  1
  C  C53  1  0.43659100  0.32094900  0.18264300  1
  C  C54  1  0.40348300  0.34772800  0.24599300  1
  C  C55  1  0.36682200  0.35956400  0.25114900  1
  C  C56  1  0.36356100  0.34609700  0.19212900  1
  C  C57  1  0.26051600  0.06242400  0.68831900  1
  C  C58  1  0.39689200  0.32023900  0.12814700  1
  C  C59  1  0.56683300  0.30639900  0.87760800  1
  C  C60  1  0.56320800  0.32150000  0.81916300  1
  C  C61  1  0.59628900  0.34824000  0.75574100  1
  C  C62  1  0.63309700  0.35963900  0.75022000  1
  C  C63  1  0.63652800  0.34580900  0.80897000  1
  C  C64  1  0.60322900  0.31999400  0.87302900  1
  C  C65  1  0.93314000  0.80623800  0.12391200  1
  C  C66  1  0.93659100  0.82094900  0.18264300  1
  C  C67  1  0.90348300  0.84772800  0.24599300  1
  C  C68  1  0.73977000  0.06256600  0.31220100  1
  C  C69  1  0.86682200  0.85956400  0.25114900  1
  C  C70  1  0.86356100  0.84609700  0.19212900  1
  C  C71  1  0.89689200  0.82023900  0.12814700  1
  C  C72  1  0.06683300  0.80639900  0.87760800  1
  C  C73  1  0.06320800  0.82150000  0.81916300  1
  C  C74  1  0.09628900  0.84824000  0.75574100  1
  C  C75  1  0.13309700  0.85963900  0.75022000  1
  C  C76  1  0.13652800  0.84580800  0.80897000  1
  C  C77  1  0.10322900  0.81999400  0.87302900  1
  C  C78  1  0.92728900  0.67731500  0.11297300  1
  C  C79  1  0.87338300  0.51383600  0.61372700  1
  C  C80  1  0.92210300  0.65104400  0.17604200  1
  C  C81  1  0.88499300  0.62250300  0.22786000  1
  C  C82  1  0.85268300  0.62086700  0.21777000  1
  C  C83  1  0.85758900  0.64747300  0.15550000  1
  C  C84  1  0.89492800  0.67484700  0.10286200  1
  C  C85  1  0.07253900  0.67736600  0.88776400  1
  C  C86  1  0.07744000  0.65147800  0.82475100  1
  C  C87  1  0.11442000  0.62285000  0.77254200  1
  C  C88  1  0.14688300  0.62073600  0.78220100  1
  C  C89  1  0.14226200  0.64697200  0.84441300  1
  C  C90  1  0.12679800  0.51520200  0.38619600  1
  C  C91  1  0.10505800  0.67446100  0.89741400  1
  C  C92  1  0.42728900  0.17731500  0.11297300  1
  C  C93  1  0.42210300  0.15104400  0.17604200  1
  C  C94  1  0.38499300  0.12250300  0.22786000  1
  C  C95  1  0.35268300  0.12086700  0.21777000  1
  C  C96  1  0.35758900  0.14747300  0.15550000  1
  C  C97  1  0.39492800  0.17484700  0.10286200  1
  C  C98  1  0.57253900  0.17736600  0.88776400  1
  C  C99  1  0.57744000  0.15147800  0.82475100  1
  C  C100  1  0.61442000  0.12285000  0.77254200  1
  C  C101  1  0.37338300  0.01383600  0.61372700  1
  C  C102  1  0.64688300  0.12073600  0.78220100  1
  C  C103  1  0.64226200  0.14697200  0.84441300  1
  C  C104  1  0.60505800  0.17446100  0.89741400  1
  C  C105  1  0.05655200  0.30543600  0.02322800  1
  C  C106  1  0.05061700  0.30405000  0.09251500  1
  C  C107  1  0.08351200  0.31628300  0.09927500  1
  C  C108  1  0.12243600  0.32962000  0.03684500  1
  C  C109  1  0.12801100  0.33346400  0.96807900  1
  C  C110  1  0.09517400  0.32096900  0.96122000  1
  C  C111  1  0.94348400  0.30584900  0.97548300  1
  C  C112  1  0.99627000  0.51601300  0.62467800  1
  C  C113  1  0.62679800  0.01520200  0.38619600  1
  C  C114  1  0.94919700  0.30456400  0.90636700  1
  C  C115  1  0.91617100  0.31689600  0.90000600  1
  C  C116  1  0.87733700  0.33023500  0.96266300  1
  C  C117  1  0.87198200  0.33396400  0.03126100  1
  C  C118  1  0.90494900  0.32137600  0.03772100  1
  C  C119  1  0.55655200  0.80543600  0.02322800  1
  C  C120  1  0.55061700  0.80405000  0.09251500  1
  C  C121  1  0.58351200  0.81628300  0.09927500  1
  C  C122  1  0.62243600  0.82962000  0.03684500  1
  C  C123  1  0.62801100  0.83346400  0.96807900  1
  C  C124  1  0.62577600  0.49679800  0.85127300  1
  C  C125  1  0.59517400  0.82096900  0.96122000  1
  C  C126  1  0.44348400  0.80584900  0.97548300  1
  C  C127  1  0.44919700  0.80456400  0.90636700  1
  C  C128  1  0.41617100  0.81689600  0.90000600  1
  C  C129  1  0.37733700  0.83023500  0.96266300  1
  C  C130  1  0.37198200  0.83396400  0.03126100  1
  C  C131  1  0.40494900  0.82137600  0.03772100  1
  C  C132  1  0.78604500  0.41317400  0.62035200  1
  C  C133  1  0.80840100  0.36705300  0.62809600  1
  C  C134  1  0.82605300  0.31998300  0.57665700  1
  C  C135  1  0.37436200  0.49675400  0.14855700  1
  C  C136  1  0.82183800  0.31831700  0.51735700  1
  C  C137  1  0.80025700  0.36422200  0.50880600  1
  C  C138  1  0.78262800  0.41152400  0.55975000  1
  C  C139  1  0.21374200  0.41294600  0.37853800  1
  C  C140  1  0.19126500  0.36740900  0.37020700  1
  C  C141  1  0.17331800  0.32009600  0.42124300  1
  C  C142  1  0.17735200  0.31761300  0.48072000  1
  C  C143  1  0.19906700  0.36292900  0.48983600  1
  C  C144  1  0.21699400  0.41046700  0.43929200  1
  C  C145  1  0.28604500  0.91317400  0.62035200  1
  C  C146  1  0.12577600  0.99679800  0.85127300  1
  C  C147  1  0.30840100  0.86705300  0.62809600  1
  C  C148  1  0.32605300  0.81998300  0.57665700  1
  C  C149  1  0.32183800  0.81831700  0.51735700  1
  C  C150  1  0.30025700  0.86422200  0.50880600  1
  C  C151  1  0.28262800  0.91152400  0.55975000  1
  C  C152  1  0.71374200  0.91294600  0.37853800  1
  C  C153  1  0.69126500  0.86740900  0.37020700  1
  C  C154  1  0.67331800  0.82009600  0.42124300  1
  C  C155  1  0.67735200  0.81761300  0.48072000  1
  C  C156  1  0.69906700  0.86292900  0.48983600  1
  C  C157  1  0.87436200  0.99675400  0.14855700  1
  C  C158  1  0.71699400  0.91046700  0.43929200  1
  C  C159  1  0.07444200  0.55884200  0.23920300  1
  C  C160  1  0.10720100  0.52155300  0.22438300  1
  C  C161  1  0.14148900  0.54679400  0.21923300  1
  C  C162  1  0.14269900  0.60883200  0.23111200  1
  C  C163  1  0.10917300  0.64556100  0.24927700  1
  C  C164  1  0.07504900  0.62053300  0.25353700  1
  C  C165  1  0.92551100  0.55988600  0.76072900  1
  C  C166  1  0.89275500  0.52248200  0.77578400  1
  C  C167  1  0.85846900  0.54753600  0.78076100  1
  C  C168  1  0.76587200  0.46455600  0.67589800  1
  C  C169  1  0.85726500  0.60947600  0.76844500  1
  C  C170  1  0.89080700  0.64629400  0.74996600  1
  C  C171  1  0.92493300  0.62145800  0.74586900  1
  C  C172  1  0.57444200  0.05884200  0.23920300  1
  C  C173  1  0.60720100  0.02155300  0.22438300  1
  C  C174  1  0.64148900  0.04679400  0.21923300  1
  C  C175  1  0.64269900  0.10883200  0.23111200  1
  C  C176  1  0.60917300  0.14556100  0.24927700  1
  C  C177  1  0.57504900  0.12053300  0.25353700  1
  C  C178  1  0.42551100  0.05988600  0.76072900  1
  C  C179  1  0.23414800  0.46464600  0.32353900  1
  C  C180  1  0.39275500  0.02248200  0.77578400  1
  C  C181  1  0.35846900  0.04753600  0.78076100  1
  C  C182  1  0.35726500  0.10947600  0.76844500  1
  C  C183  1  0.39080700  0.14629400  0.74996600  1
  C  C184  1  0.42493300  0.12145800  0.74586900  1
  C  C185  1  0.07989900  0.53962400  0.10329100  1
  C  C186  1  0.09380000  0.59873100  0.07708000  1
  C  C187  1  0.13357500  0.60785900  0.01469600  1
  C  C188  1  0.15930000  0.55848400  0.97727300  1
  C  C189  1  0.14497700  0.49975600  0.00142800  1
  C  C190  1  0.26587200  0.96455600  0.67589800  1
  C  C191  1  0.10557000  0.49061600  0.06436000  1
  C  C192  1  0.91999300  0.54030800  0.89681900  1
  C  C193  1  0.90590400  0.59935600  0.92304500  1
  C  C194  1  0.86615100  0.60827300  0.98556800  1
  C  C195  1  0.84061700  0.55875000  0.02307700  1
  C  C196  1  0.85512100  0.50009500  0.99888100  1
  C  C197  1  0.89451600  0.49115700  0.93583900  1
  C  C198  1  0.57989900  0.03962400  0.10329100  1
  C  C199  1  0.59380000  0.09873100  0.07708000  1
  C  C200  1  0.63357500  0.10785900  0.01469600  1
  C  C201  1  0.73414800  0.96464600  0.32353900  1
  C  C202  1  0.65930000  0.05848400  0.97727300  1
  C  C203  1  0.64497700  0.99975600  0.00142800  1
  C  C204  1  0.60557000  0.99061600  0.06436000  1
  C  C205  1  0.41999300  0.04030800  0.89681900  1
  C  C206  1  0.40590400  0.09935600  0.92304500  1
  C  C207  1  0.36615100  0.10827300  0.98556800  1
  C  C208  1  0.34061700  0.05875000  0.02307700  1
  C  C209  1  0.35512100  0.00009500  0.99888100  1
  C  C210  1  0.39451600  0.99115700  0.93583900  1
  C  C211  1  0.78985200  0.51412300  0.68561200  1
  C  C212  1  0.50394400  0.01340800  0.37519700  1
  C  C213  1  0.21033400  0.51479100  0.31428500  1
  C  C214  1  0.28985200  0.01412300  0.68561200  1
  C  C215  1  0.71033400  0.01479100  0.31428500  1
  C  C216  1  0.73755900  0.45633100  0.75968300  1
  C  C217  1  0.26249900  0.45699600  0.23967100  1
  C  C218  1  0.23755900  0.95633100  0.75968300  1
  C  C219  1  0.76249900  0.95699600  0.23967100  1
  C  C220  1  0.70902200  0.50501000  0.76186400  1
  C  C221  1  0.29113400  0.50515700  0.23812600  1
  C  C222  1  0.20902200  0.00501000  0.76186400  1
  C  C223  1  0.49627000  0.01601300  0.62467800  1
  C  C224  1  0.79113400  0.00515700  0.23812600  1
  C  C225  1  0.76172500  0.50633700  0.76957500  1
  C  C226  1  0.23849900  0.50758900  0.23024500  1
  C  C227  1  0.26172500  0.00633700  0.76957500  1
  C  C228  1  0.73849900  0.00758900  0.23024500  1
  C  C229  1  0.73244600  0.55503400  0.77246500  1
  C  C230  1  0.26787600  0.55575800  0.22799200  1
  C  C231  1  0.23244600  0.05503400  0.77246500  1
  C  C232  1  0.76787600  0.05575800  0.22799200  1
  C  C233  1  0.83572600  0.51404300  0.64589300  1
  C  C234  1  0.91829800  0.51364800  0.57500100  1
  C  C235  1  0.16445600  0.51503700  0.35401800  1
  C  C236  1  0.33572600  0.01404300  0.64589300  1
  C  C237  1  0.66445600  0.01503700  0.35401800  1
  C  C238  1  0.66330600  0.50022300  0.80935900  1
  C  C239  1  0.33684000  0.50020800  0.19057700  1
  C  C240  1  0.16330600  0.00022300  0.80935900  1
  C  C241  1  0.83684000  0.00020800  0.19057700  1
  C  C242  1  0.03885900  0.53351500  0.24065600  1
  C  C243  1  0.96111200  0.53477700  0.75937900  1
  C  C244  1  0.53885900  0.03351500  0.24065600  1
  C  C245  1  0.08188100  0.51566800  0.42491700  1
  C  C246  1  0.46111200  0.03477700  0.75937900  1
  C  C247  1  0.04052400  0.52693800  0.17503000  1
  C  C248  1  0.95939400  0.52785500  0.82502000  1
  C  C249  1  0.54052400  0.02693800  0.17503000  1
  C  C250  1  0.45939400  0.02785500  0.82502000  1
  C  C251  1  0.00653400  0.50145100  0.17795800  1
  C  C252  1  0.99351500  0.50267100  0.82192500  1
  C  C253  1  0.50653400  0.00145100  0.17795800  1
  C  C254  1  0.49351500  0.00267100  0.82192500  1
  C  C255  1  0.97148400  0.48411900  0.24539900  1
  C  C256  1  0.41829800  0.01364800  0.57500100  1
  C  C257  1  0.02877300  0.48619900  0.75429500  1
  C  C258  1  0.47148400  0.98411900  0.24539900  1
  C  C259  1  0.52877300  0.98619900  0.75429500  1
  C  C260  1  0.97092600  0.48796700  0.30945500  1
  C  C261  1  0.02945100  0.49060100  0.69015900  1
  C  C262  1  0.47092600  0.98796700  0.30945500  1
  C  C263  1  0.52945100  0.99060100  0.69015900  1
  C  C264  1  0.00436700  0.51301500  0.30729700  1
  C  C265  1  0.99583800  0.51518500  0.69255100  1
  C  C266  1  0.50436700  0.01301500  0.30729700  1
  C  C267  1  0.58188100  0.01566800  0.42491700  1
  C  C268  1  0.49583800  0.01518500  0.69255100  1
  C  C269  1  0.50010100  0.37261900  0.00106000  1
  C  C270  1  0.00010100  0.87261900  0.00106000  1
  C  C271  1  0.58122500  0.49350400  0.90394000  1
  C  C272  1  0.41890000  0.49353500  0.09573400  1
  C  C273  1  0.08122500  0.99350400  0.90394000  1
  C  C274  1  0.91890000  0.99353500  0.09573400  1
  C  C275  1  0.50005000  0.61340300  0.99867400  1
  C  C276  1  0.00005000  0.11340300  0.99867400  1
  C  C277  1  0.00004700  0.37597000  0.99949900  1
  C  C278  1  0.73636000  0.51258300  0.67801400  1
  C  C279  1  0.50004700  0.87597000  0.99949900  1
  C  C280  1  0.00491900  0.49706000  0.11222000  1
  C  C281  1  0.99508900  0.49785500  0.88768700  1
  C  C282  1  0.50491900  0.99706000  0.11222000  1
  C  C283  1  0.49508900  0.99785500  0.88768700  1
  C  C284  1  0.99996500  0.60988200  0.00036300  1
  C  C285  1  0.49996500  0.10988200  0.00036300  1
  C  C286  1  0.46703200  0.27318000  0.05936200  1
  C  C287  1  0.53298800  0.27326000  0.94213900  1
  C  C288  1  0.96703200  0.77318000  0.05936200  1
  Cl  Cl1  1  0.68449500  0.64062000  0.71999200  1
  Cl  Cl2  1  0.32450300  0.39165300  0.33285400  1
  Cl  Cl3  1  0.51676800  0.30693900  0.82467700  1
  Cl  Cl4  1  0.67538600  0.39163300  0.66839300  1
  Cl  Cl5  1  0.98285700  0.80588300  0.17754900  1
  Cl  Cl6  1  0.82450300  0.89165300  0.33285400  1
  Cl  Cl7  1  0.01676800  0.80693900  0.82467700  1
  Cl  Cl8  1  0.17538600  0.89163300  0.66839300  1
  Cl  Cl9  1  0.96163300  0.65387300  0.19242900  1
  Cl  Cl10  1  0.80532800  0.58552500  0.28428300  1
  Cl  Cl11  1  0.03769000  0.65490100  0.80896400  1
  Cl  Cl12  1  0.79713300  0.80565200  0.52798400  1
  Cl  Cl13  1  0.19406900  0.58526100  0.71521400  1
  Cl  Cl14  1  0.46163300  0.15387300  0.19242900  1
  Cl  Cl15  1  0.30532800  0.08552500  0.28428300  1
  Cl  Cl16  1  0.53769000  0.15490100  0.80896400  1
  Cl  Cl17  1  0.69406900  0.08526100  0.71521400  1
  Cl  Cl18  1  0.00193100  0.28356100  0.17166600  1
  Cl  Cl19  1  0.16472500  0.34171300  0.04502600  1
  Cl  Cl20  1  0.99776600  0.28409100  0.82691600  1
  Cl  Cl21  1  0.83488900  0.34250500  0.95498300  1
  Cl  Cl22  1  0.50193100  0.78356100  0.17166600  1
  Cl  Cl23  1  0.31597700  0.63948500  0.28195500  1
  Cl  Cl24  1  0.66472500  0.84171300  0.04502600  1
  Cl  Cl25  1  0.49776600  0.78409100  0.82691600  1
  Cl  Cl26  1  0.33488900  0.84250500  0.95498300  1
  Cl  Cl27  1  0.81527300  0.36612200  0.70198500  1
  Cl  Cl28  1  0.84407400  0.25810400  0.45270100  1
  Cl  Cl29  1  0.18457200  0.36755900  0.29610100  1
  Cl  Cl30  1  0.15469600  0.25713100  0.54490500  1
  Cl  Cl31  1  0.31527300  0.86612200  0.70198500  1
  Cl  Cl32  1  0.34407400  0.75810400  0.45270100  1
  Cl  Cl33  1  0.68457200  0.86755900  0.29610100  1
  Cl  Cl34  1  0.20378200  0.80455000  0.47477300  1
  Cl  Cl35  1  0.65469600  0.75713100  0.54490500  1
  Cl  Cl36  1  0.10513300  0.44199400  0.21420400  1
  Cl  Cl37  1  0.18631800  0.64099200  0.22460800  1
  Cl  Cl38  1  0.89487200  0.44298300  0.78626900  1
  Cl  Cl39  1  0.81362300  0.64136500  0.77479800  1
  Cl  Cl40  1  0.60513300  0.94199400  0.21420400  1
  Cl  Cl41  1  0.68631800  0.14099200  0.22460800  1
  Cl  Cl42  1  0.39487200  0.94298300  0.78626900  1
  Cl  Cl43  1  0.31362300  0.14136500  0.77479800  1
  Cl  Cl44  1  0.06216400  0.66297700  0.12121000  1
  Cl  Cl45  1  0.18449500  0.14062000  0.71999200  1
  Cl  Cl46  1  0.21035900  0.57010700  0.89988700  1
  Cl  Cl47  1  0.93728500  0.66379900  0.87876900  1
  Cl  Cl48  1  0.78957000  0.57008000  0.10063200  1
  Cl  Cl49  1  0.56216400  0.16297700  0.12121000  1
  Cl  Cl50  1  0.71035900  0.07010700  0.89988700  1
  Cl  Cl51  1  0.43728500  0.16379900  0.87876900  1
  Cl  Cl52  1  0.28957000  0.07008000  0.10063200  1
  Cl  Cl53  1  0.29713300  0.30565200  0.52798400  1
  Cl  Cl54  1  0.81597700  0.13948500  0.28195500  1
  Cl  Cl55  1  0.70378200  0.30455000  0.47477300  1
  Cl  Cl56  1  0.48285700  0.30588300  0.17754900  1
  O  O1  1  0.00170300  0.46028200  0.40587000  1
  O  O2  1  0.06223400  0.46273900  0.44101200  1
  O  O3  1  0.43768700  0.96046200  0.55643900  1
  O  O4  1  0.56223400  0.96273900  0.44101200  1
  O  O5  1  0.93796000  0.56664800  0.55816400  1
  O  O6  1  0.06247600  0.56889600  0.44422500  1
  O  O7  1  0.43796000  0.06664800  0.55816400  1
  O  O8  1  0.56247600  0.06889600  0.44422500  1
  O  O9  1  0.49443600  0.40161800  0.95400100  1
  O  O10  1  0.50585200  0.40120900  0.04821200  1
  O  O11  1  0.99443600  0.90161800  0.95400100  1
  O  O12  1  0.99647600  0.46296800  0.59561400  1
  O  O13  1  0.00585200  0.90120900  0.04821200  1
  O  O14  1  0.55691200  0.49508900  0.87900600  1
  O  O15  1  0.44321900  0.49235000  0.12067100  1
  O  O16  1  0.05691200  0.99508900  0.87900600  1
  O  O17  1  0.94321900  0.99235000  0.12067100  1
  O  O18  1  0.56691100  0.49162200  0.97508300  1
  O  O19  1  0.43321000  0.49455300  0.02457600  1
  O  O20  1  0.06691100  0.99162200  0.97508300  1
  O  O21  1  0.93321000  0.99455300  0.02457600  1
  O  O22  1  0.49373600  0.58496800  0.95209500  1
  O  O23  1  0.50170300  0.96028200  0.40587000  1
  O  O24  1  0.50624900  0.58456900  0.04521700  1
  O  O25  1  0.99373600  0.08496800  0.95209500  1
  O  O26  1  0.00624900  0.08456900  0.04521700  1
  O  O27  1  0.02939100  0.40592000  0.94039800  1
  O  O28  1  0.97069300  0.40568600  0.05882000  1
  O  O29  1  0.52939100  0.90592000  0.94039800  1
  O  O30  1  0.47069300  0.90568600  0.05882000  1
  O  O31  1  0.03250300  0.46425300  0.05443500  1
  O  O32  1  0.96753600  0.46478700  0.94522100  1
  O  O33  1  0.53250300  0.96425300  0.05443500  1
  O  O34  1  0.49647600  0.96296800  0.59561400  1
  O  O35  1  0.46753600  0.96478700  0.94522100  1
  O  O36  1  0.97277000  0.52165000  0.11570500  1
  O  O37  1  0.02722700  0.52227100  0.88438300  1
  O  O38  1  0.47277000  0.02165000  0.11570500  1
  O  O39  1  0.52722700  0.02227100  0.88438300  1
  O  O40  1  0.03027700  0.57994600  0.99818600  1
  O  O41  1  0.96966900  0.58009300  0.00233700  1
  O  O42  1  0.53027700  0.07994600  0.99818600  1
  O  O43  1  0.46966900  0.08009300  0.00233700  1
  O  O44  1  0.00430800  0.56645000  0.40376800  1
  O  O45  1  0.99788700  0.56920500  0.59458900  1
  O  O46  1  0.50430800  0.06645000  0.40376800  1
  O  O47  1  0.49788700  0.06920500  0.59458900  1
  O  O48  1  0.93768700  0.46046200  0.55643900  1
