# generated using pymatgen
data_ZnH7C23N(O2F)2
_symmetry_space_group_name_H-M   'P 1'
_cell_length_a   8.55242500
_cell_length_b   11.14318100
_cell_length_c   17.45790700
_cell_angle_alpha   90.55129200
_cell_angle_beta   92.64672900
_cell_angle_gamma   80.66481700
_symmetry_Int_Tables_number   1
_chemical_formula_structural   ZnH7C23N(O2F)2
_chemical_formula_sum   'Zn2 H14 C46 N2 O8 F4'
_cell_volume   1639.97032959
_cell_formula_units_Z   2
loop_
 _symmetry_equiv_pos_site_id
 _symmetry_equiv_pos_as_xyz
  1  'x, y, z'
loop_
 _atom_site_type_symbol
 _atom_site_label
 _atom_site_symmetry_multiplicity
 _atom_site_fract_x
 _atom_site_fract_y
 _atom_site_fract_z
 _atom_site_occupancy
  Zn  Zn1  1  0.49550600  0.49139600  0.91475600  1
  Zn  Zn2  1  0.50449400  0.50860400  0.08524400  1
  H  H1  1  0.00394800  0.58354800  0.97377400  1
  H  H2  1  0.99605200  0.41645200  0.02622600  1
  H  H3  1  0.65217000  0.89091600  0.00812400  1
  H  H4  1  0.34783100  0.10908500  0.99187600  1
  H  H5  1  0.28319800  0.91272700  0.99293700  1
  H  H6  1  0.71680300  0.08727400  0.00706300  1
  H  H7  1  0.44685100  0.67601800  0.81060000  1
  H  H8  1  0.55314900  0.32398200  0.18940100  1
  H  H9  1  0.41921300  0.79158900  0.69499300  1
  H  H10  1  0.58078700  0.20841100  0.30500700  1
  H  H11  1  0.39609000  0.90672800  0.57903900  1
  H  H12  1  0.60391100  0.09327200  0.42096100  1
  H  H13  1  0.53517000  0.29439000  0.80516500  1
  H  H14  1  0.46483000  0.70561100  0.19483600  1
  C  C1  1  0.09225900  0.74788100  0.99054000  1
  C  C2  1  0.90774100  0.25211900  0.00946000  1
  C  C3  1  0.97319100  0.67919800  0.98386800  1
  C  C4  1  0.02680900  0.32080300  0.01613200  1
  C  C5  1  0.81798000  0.72988100  0.99365800  1
  C  C6  1  0.18202100  0.27011900  0.00634200  1
  C  C7  1  0.77541900  0.85239700  0.00219200  1
  C  C8  1  0.22458100  0.14760400  0.99780900  1
  C  C9  1  0.88915100  0.92543800  0.00040000  1
  C  C10  1  0.11084900  0.07456200  0.99960000  1
  C  C11  1  0.04842400  0.87396300  0.99663200  1
  C  C12  1  0.95157600  0.12603700  0.00336800  1
  C  C13  1  0.84103300  0.04989700  0.00351500  1
  C  C14  1  0.15896700  0.95010300  0.99648500  1
  C  C15  1  0.30118600  0.34737800  0.00337300  1
  C  C16  1  0.69881500  0.65262300  0.99662700  1
  C  C17  1  0.25634700  0.67833900  0.99365000  1
  C  C18  1  0.74365300  0.32166200  0.00635000  1
  C  C19  1  0.46478300  0.59260000  0.77777300  1
  C  C20  1  0.53521700  0.40740000  0.22222700  1
  C  C21  1  0.51446200  0.37974200  0.77456300  1
  C  C22  1  0.48553800  0.62025800  0.22543700  1
  C  C23  1  0.44049200  0.70824800  0.66216500  1
  C  C24  1  0.55950900  0.29175200  0.33783500  1
  C  C25  1  0.46522500  0.59750800  0.69905700  1
  C  C26  1  0.53477500  0.40249200  0.30094400  1
  C  C27  1  0.49218200  0.49146600  0.65748900  1
  C  C28  1  0.50781900  0.50853400  0.34251100  1
  C  C29  1  0.51664900  0.38162400  0.69528000  1
  C  C30  1  0.48335100  0.61837700  0.30472000  1
  C  C31  1  0.54479600  0.27460900  0.65389700  1
  C  C32  1  0.45520500  0.72539100  0.34610300  1
  C  C33  1  0.41864700  0.82325800  0.54642000  1
  C  C34  1  0.58135300  0.17674200  0.45358000  1
  C  C35  1  0.44346300  0.71262000  0.58336800  1
  C  C36  1  0.55653800  0.28738000  0.41663200  1
  C  C37  1  0.47162400  0.60637900  0.54156500  1
  C  C38  1  0.52837700  0.39362200  0.45843500  1
  C  C39  1  0.42225300  0.82826200  0.46770700  1
  C  C40  1  0.57774800  0.17173800  0.53229300  1
  C  C41  1  0.45113300  0.72188600  0.42535500  1
  C  C42  1  0.54886700  0.27811400  0.57464500  1
  C  C43  1  0.49583600  0.49555200  0.57873200  1
  C  C44  1  0.50416500  0.50444800  0.42126800  1
  C  C45  1  0.52431300  0.38898900  0.53728500  1
  C  C46  1  0.47568700  0.61101100  0.46271500  1
  N  N1  1  0.48972400  0.48484200  0.81430000  1
  N  N2  1  0.51027700  0.51515800  0.18570000  1
  O  O1  1  0.34911600  0.39239800  0.06789500  1
  O  O2  1  0.65088400  0.60760300  0.93210500  1
  O  O3  1  0.34876000  0.37273500  0.93606700  1
  O  O4  1  0.65124000  0.62726500  0.06393300  1
  O  O5  1  0.30974800  0.62497200  0.93013400  1
  O  O6  1  0.69025200  0.37502800  0.06986600  1
  O  O7  1  0.32156600  0.64387900  0.06157800  1
  O  O8  1  0.67843400  0.35612100  0.93842200  1
  F  F1  1  0.56903900  0.16680100  0.69142300  1
  F  F2  1  0.43096100  0.83320000  0.30857700  1
  F  F3  1  0.39705500  0.93836100  0.43295600  1
  F  F4  1  0.60294500  0.06164000  0.56704400  1
