# generated using pymatgen
data_Cu3H42C60N2(ClO8)2
_symmetry_space_group_name_H-M   'P 1'
_cell_length_a   21.24565600
_cell_length_b   21.24565600
_cell_length_c   46.67032100
_cell_angle_alpha   90.00000000
_cell_angle_beta   90.00000000
_cell_angle_gamma   90.00000000
_symmetry_Int_Tables_number   1
_chemical_formula_structural   Cu3H42C60N2(ClO8)2
_chemical_formula_sum   'Cu12 H168 C240 N8 Cl8 O64'
_cell_volume   21065.95143258
_cell_formula_units_Z   4
loop_
 _symmetry_equiv_pos_site_id
 _symmetry_equiv_pos_as_xyz
  1  'x, y, z'
loop_
 _atom_site_type_symbol
 _atom_site_label
 _atom_site_symmetry_multiplicity
 _atom_site_fract_x
 _atom_site_fract_y
 _atom_site_fract_z
 _atom_site_occupancy
  Cu  Cu1  1  0.00000000  0.00000000  0.02057200  1
  Cu  Cu2  1  0.50000000  0.50000000  0.52057200  1
  Cu  Cu3  1  0.00000000  0.00000000  0.96486200  1
  Cu  Cu4  1  0.50000000  0.50000000  0.46486200  1
  Cu  Cu5  1  0.50113900  0.06273200  0.00455400  1
  Cu  Cu6  1  0.93726800  0.50113900  0.00455400  1
  Cu  Cu7  1  0.49886100  0.93726800  0.00455400  1
  Cu  Cu8  1  0.06273200  0.49886100  0.00455400  1
  Cu  Cu9  1  0.00113900  0.56273200  0.50455400  1
  Cu  Cu10  1  0.43726800  0.00113900  0.50455400  1
  Cu  Cu11  1  0.99886100  0.43726800  0.50455400  1
  Cu  Cu12  1  0.56273200  0.99886100  0.50455400  1
  H  H1  1  0.88524400  0.60683300  0.78044400  1
  H  H2  1  0.39316700  0.88524400  0.78044400  1
  H  H3  1  0.11475500  0.39316700  0.78044400  1
  H  H4  1  0.60683300  0.11475500  0.78044400  1
  H  H5  1  0.38524400  0.10683300  0.28044400  1
  H  H6  1  0.89316700  0.38524400  0.28044400  1
  H  H7  1  0.61475500  0.89316700  0.28044400  1
  H  H8  1  0.10683300  0.61475500  0.28044400  1
  H  H9  1  0.19023800  0.00168100  0.04127900  1
  H  H10  1  0.99831900  0.19023800  0.04127900  1
  H  H11  1  0.80976200  0.99831900  0.04127900  1
  H  H12  1  0.00168100  0.80976200  0.04127900  1
  H  H13  1  0.69023800  0.50168100  0.54127900  1
  H  H14  1  0.49831900  0.69023800  0.54127900  1
  H  H15  1  0.30976200  0.49831900  0.54127900  1
  H  H16  1  0.50168100  0.30976200  0.54127900  1
  H  H17  1  0.18980800  0.08093100  0.02728800  1
  H  H18  1  0.91906900  0.18980800  0.02728800  1
  H  H19  1  0.81019200  0.91906900  0.02728800  1
  H  H20  1  0.08093100  0.81019200  0.02728800  1
  H  H21  1  0.68980800  0.58093100  0.52728800  1
  H  H22  1  0.41906900  0.68980800  0.52728800  1
  H  H23  1  0.31019200  0.41906900  0.52728800  1
  H  H24  1  0.58093100  0.31019200  0.52728800  1
  H  H25  1  0.29502000  0.08491200  0.02864500  1
  H  H26  1  0.91508800  0.29502000  0.02864500  1
  H  H27  1  0.70498000  0.91508800  0.02864500  1
  H  H28  1  0.08491200  0.70498000  0.02864500  1
  H  H29  1  0.79502000  0.58491200  0.52864500  1
  H  H30  1  0.41508800  0.79502000  0.52864500  1
  H  H31  1  0.20498000  0.41508800  0.52864500  1
  H  H32  1  0.58491200  0.20498000  0.52864500  1
  H  H33  1  0.29428800  0.00961500  0.04657200  1
  H  H34  1  0.99038500  0.29428800  0.04657200  1
  H  H35  1  0.70571200  0.99038500  0.04657200  1
  H  H36  1  0.00961500  0.70571200  0.04657200  1
  H  H37  1  0.79428800  0.50961500  0.54657200  1
  H  H38  1  0.49038500  0.79428800  0.54657200  1
  H  H39  1  0.20571200  0.49038500  0.54657200  1
  H  H40  1  0.50961500  0.20571200  0.54657200  1
  H  H41  1  0.18988100  0.91216600  0.01066100  1
  H  H42  1  0.08783400  0.18988100  0.01066100  1
  H  H43  1  0.81011900  0.08783400  0.01066100  1
  H  H44  1  0.91216600  0.81011900  0.01066100  1
  H  H45  1  0.68988100  0.41216600  0.51066100  1
  H  H46  1  0.58783400  0.68988100  0.51066100  1
  H  H47  1  0.31011900  0.58783400  0.51066100  1
  H  H48  1  0.41216600  0.31011900  0.51066100  1
  H  H49  1  0.29327300  0.91151300  0.01802500  1
  H  H50  1  0.08848700  0.29327300  0.01802500  1
  H  H51  1  0.70672700  0.08848700  0.01802500  1
  H  H52  1  0.91151300  0.70672700  0.01802500  1
  H  H53  1  0.79327300  0.41151300  0.51802500  1
  H  H54  1  0.58848700  0.79327300  0.51802500  1
  H  H55  1  0.20672700  0.58848700  0.51802500  1
  H  H56  1  0.41151300  0.20672700  0.51802500  1
  H  H57  1  0.21214200  0.09700700  0.97935100  1
  H  H58  1  0.90299300  0.21214200  0.97935100  1
  H  H59  1  0.78785800  0.90299300  0.97935100  1
  H  H60  1  0.09700700  0.78785800  0.97935100  1
  H  H61  1  0.71214200  0.59700700  0.47935100  1
  H  H62  1  0.40299300  0.71214200  0.47935100  1
  H  H63  1  0.28785800  0.40299200  0.47935100  1
  H  H64  1  0.59700700  0.28785800  0.47935100  1
  H  H65  1  0.31139100  0.09213600  0.97752100  1
  H  H66  1  0.90786400  0.31139100  0.97752100  1
  H  H67  1  0.68860900  0.90786400  0.97752100  1
  H  H68  1  0.09213600  0.68860900  0.97752100  1
  H  H69  1  0.81139100  0.59213600  0.47752100  1
  H  H70  1  0.40786400  0.81139100  0.47752100  1
  H  H71  1  0.18860900  0.40786400  0.47752100  1
  H  H72  1  0.59213600  0.18860900  0.47752100  1
  H  H73  1  0.31651600  0.02448300  0.95559100  1
  H  H74  1  0.97551700  0.31651600  0.95559100  1
  H  H75  1  0.68348400  0.97551700  0.95559100  1
  H  H76  1  0.02448300  0.68348400  0.95559100  1
  H  H77  1  0.81651600  0.52448300  0.45559100  1
  H  H78  1  0.47551700  0.81651600  0.45559100  1
  H  H79  1  0.18348400  0.47551700  0.45559100  1
  H  H80  1  0.52448300  0.18348400  0.45559100  1
  H  H81  1  0.20012400  0.91789400  0.97293100  1
  H  H82  1  0.08210600  0.20012400  0.97293100  1
  H  H83  1  0.79987600  0.08210600  0.97293100  1
  H  H84  1  0.91789400  0.79987600  0.97293100  1
  H  H85  1  0.70012400  0.41789400  0.47293100  1
  H  H86  1  0.58210600  0.70012400  0.47293100  1
  H  H87  1  0.29987600  0.58210600  0.47293100  1
  H  H88  1  0.41789400  0.29987600  0.47293100  1
  H  H89  1  0.30642800  0.91335700  0.97997600  1
  H  H90  1  0.08664300  0.30642900  0.97997600  1
  H  H91  1  0.69357100  0.08664300  0.97997600  1
  H  H92  1  0.91335700  0.69357200  0.97997600  1
  H  H93  1  0.80642900  0.41335700  0.47997600  1
  H  H94  1  0.58664300  0.80642900  0.47997600  1
  H  H95  1  0.19357100  0.58664300  0.47997600  1
  H  H96  1  0.41335700  0.19357100  0.47997600  1
  H  H97  1  0.90305800  0.47384400  0.86226900  1
  H  H98  1  0.52615600  0.90305800  0.86226900  1
  H  H99  1  0.09694200  0.52615600  0.86226900  1
  H  H100  1  0.47384400  0.09694200  0.86226900  1
  H  H101  1  0.40305800  0.97384400  0.36226900  1
  H  H102  1  0.02615600  0.40305800  0.36226900  1
  H  H103  1  0.59694200  0.02615600  0.36226900  1
  H  H104  1  0.97384400  0.59694200  0.36226900  1
  H  H105  1  0.90249200  0.47470900  0.91437400  1
  H  H106  1  0.52529100  0.90249200  0.91437400  1
  H  H107  1  0.09750800  0.52529100  0.91437400  1
  H  H108  1  0.47470900  0.09750800  0.91437400  1
  H  H109  1  0.40249200  0.97470900  0.41437400  1
  H  H110  1  0.02529100  0.40249200  0.41437400  1
  H  H111  1  0.59750800  0.02529100  0.41437400  1
  H  H112  1  0.97470900  0.59750800  0.41437400  1
  H  H113  1  0.38471000  0.10625500  0.22873200  1
  H  H114  1  0.89374500  0.38471000  0.22873200  1
  H  H115  1  0.61529000  0.89374500  0.22873200  1
  H  H116  1  0.10625500  0.61529000  0.22873200  1
  H  H117  1  0.88471000  0.60625500  0.72873200  1
  H  H118  1  0.39374500  0.88471000  0.72873200  1
  H  H119  1  0.11529000  0.39374500  0.72873200  1
  H  H120  1  0.60625500  0.11529000  0.72873200  1
  H  H121  1  0.48171500  0.90127000  0.14688900  1
  H  H122  1  0.09873000  0.48171500  0.14688900  1
  H  H123  1  0.51828500  0.09873000  0.14688900  1
  H  H124  1  0.90127000  0.51828500  0.14688900  1
  H  H125  1  0.98171500  0.40127000  0.64688900  1
  H  H126  1  0.59873000  0.98171500  0.64688900  1
  H  H127  1  0.01828500  0.59873000  0.64688900  1
  H  H128  1  0.40127000  0.01828500  0.64688900  1
  H  H129  1  0.48267800  0.90075200  0.09479900  1
  H  H130  1  0.09924800  0.48267800  0.09479900  1
  H  H131  1  0.51732200  0.09924800  0.09479900  1
  H  H132  1  0.90075200  0.51732200  0.09479900  1
  H  H133  1  0.98267800  0.40075200  0.59479900  1
  H  H134  1  0.59924800  0.98267800  0.59479900  1
  H  H135  1  0.01732200  0.59924800  0.59479900  1
  H  H136  1  0.40075200  0.01732200  0.59479900  1
  H  H137  1  0.20665500  0.97582300  0.87627200  1
  H  H138  1  0.13755600  0.06342500  0.86347000  1
  H  H139  1  0.10805700  0.14066200  0.89994000  1
  H  H140  1  0.14471900  0.13054100  0.94858600  1
  H  H141  1  0.02417700  0.20665500  0.87627200  1
  H  H142  1  0.93657500  0.13755600  0.86347000  1
  H  H143  1  0.85933700  0.10805700  0.89994000  1
  H  H144  1  0.86945900  0.14471900  0.94858600  1
  H  H145  1  0.79334500  0.02417700  0.87627200  1
  H  H146  1  0.86244400  0.93657500  0.86347000  1
  H  H147  1  0.89194300  0.85933700  0.89994000  1
  H  H148  1  0.85528100  0.86945900  0.94858600  1
  H  H149  1  0.97582300  0.79334500  0.87627200  1
  H  H150  1  0.06342500  0.86244400  0.86347000  1
  H  H151  1  0.14066200  0.89194300  0.89994000  1
  H  H152  1  0.13054100  0.85528100  0.94858600  1
  H  H153  1  0.70665500  0.47582300  0.37627200  1
  H  H154  1  0.63755600  0.56342500  0.36347000  1
  H  H155  1  0.60805700  0.64066200  0.39994000  1
  H  H156  1  0.64471900  0.63054100  0.44858600  1
  H  H157  1  0.52417700  0.70665500  0.37627200  1
  H  H158  1  0.43657500  0.63755600  0.36347000  1
  H  H159  1  0.35933800  0.60805700  0.39994000  1
  H  H160  1  0.36945900  0.64471900  0.44858600  1
  H  H161  1  0.29334500  0.52417700  0.37627200  1
  H  H162  1  0.36244400  0.43657500  0.36347000  1
  H  H163  1  0.39194300  0.35933700  0.39994000  1
  H  H164  1  0.35528100  0.36945900  0.44858600  1
  H  H165  1  0.47582300  0.29334500  0.37627200  1
  H  H166  1  0.56342500  0.36244400  0.36347000  1
  H  H167  1  0.64066200  0.39194300  0.39994000  1
  H  H168  1  0.63054100  0.35528100  0.44858600  1
  C  C1  1  0.99213200  0.11921300  0.99278400  1
  C  C2  1  0.88078700  0.99213200  0.99278400  1
  C  C3  1  0.00786800  0.88078700  0.99278400  1
  C  C4  1  0.11921300  0.00786800  0.99278400  1
  C  C5  1  0.49213200  0.61921300  0.49278400  1
  C  C6  1  0.38078700  0.49213200  0.49278400  1
  C  C7  1  0.50786800  0.38078700  0.49278400  1
  C  C8  1  0.61921300  0.50786800  0.49278400  1
  C  C9  1  0.50000000  0.00000000  0.23981000  1
  C  C10  1  0.00000000  0.50000000  0.23981000  1
  C  C11  1  0.00000000  0.50000000  0.73981000  1
  C  C12  1  0.50000000  0.00000000  0.73981000  1
  C  C13  1  0.50000000  0.00000000  0.09102000  1
  C  C14  1  0.00000000  0.50000000  0.09102000  1
  C  C15  1  0.00000000  0.50000000  0.59102000  1
  C  C16  1  0.50000000  0.00000000  0.59102000  1
  C  C17  1  0.91788500  0.57640900  0.76934700  1
  C  C18  1  0.42359100  0.91788500  0.76934700  1
  C  C19  1  0.08211500  0.42359100  0.76934700  1
  C  C20  1  0.57640900  0.08211500  0.76934700  1
  C  C21  1  0.41788500  0.07640900  0.26934700  1
  C  C22  1  0.92359100  0.41788500  0.26934700  1
  C  C23  1  0.58211500  0.92359100  0.26934700  1
  C  C24  1  0.07640900  0.58211500  0.26934700  1
  C  C25  1  0.45882200  0.03782400  0.22496000  1
  C  C26  1  0.96217600  0.45882200  0.22496000  1
  C  C27  1  0.54117800  0.96217600  0.22496000  1
  C  C28  1  0.03782400  0.54117800  0.22496000  1
  C  C29  1  0.95882200  0.53782400  0.72496000  1
  C  C30  1  0.46217600  0.95882200  0.72496000  1
  C  C31  1  0.04117800  0.46217600  0.72496000  1
  C  C32  1  0.53782400  0.04117800  0.72496000  1
  C  C33  1  0.20866000  0.03271600  0.02409600  1
  C  C34  1  0.96728400  0.20866000  0.02409600  1
  C  C35  1  0.79134000  0.96728400  0.02409600  1
  C  C36  1  0.03271600  0.79134000  0.02409600  1
  C  C37  1  0.70866000  0.53271600  0.52409600  1
  C  C38  1  0.46728400  0.70866000  0.52409600  1
  C  C39  1  0.29134000  0.46728400  0.52409600  1
  C  C40  1  0.53271600  0.29134000  0.52409600  1
  C  C41  1  0.27974700  0.03515000  0.02693600  1
  C  C42  1  0.96485000  0.27974700  0.02693600  1
  C  C43  1  0.72025300  0.96485000  0.02693600  1
  C  C44  1  0.03515000  0.72025300  0.02693600  1
  C  C45  1  0.77974700  0.53515000  0.52693600  1
  C  C46  1  0.46485000  0.77974700  0.52693600  1
  C  C47  1  0.22025300  0.46485000  0.52693600  1
  C  C48  1  0.53515000  0.22025300  0.52693600  1
  C  C49  1  0.21295300  0.93978600  0.99345400  1
  C  C50  1  0.06021400  0.21295300  0.99345400  1
  C  C51  1  0.78704700  0.06021400  0.99345400  1
  C  C52  1  0.93978600  0.78704700  0.99345400  1
  C  C53  1  0.71295300  0.43978600  0.49345400  1
  C  C54  1  0.56021400  0.71295300  0.49345400  1
  C  C55  1  0.28704700  0.56021400  0.49345400  1
  C  C56  1  0.43978600  0.28704700  0.49345400  1
  C  C57  1  0.22205500  0.04850500  0.97202200  1
  C  C58  1  0.95149500  0.22205500  0.97202200  1
  C  C59  1  0.77794500  0.95149500  0.97202200  1
  C  C60  1  0.04850500  0.77794500  0.97202200  1
  C  C61  1  0.72205500  0.54850500  0.47202200  1
  C  C62  1  0.45149500  0.72205500  0.47202200  1
  C  C63  1  0.27794500  0.45149500  0.47202200  1
  C  C64  1  0.54850500  0.27794500  0.47202200  1
  C  C65  1  0.18984000  0.00704700  0.99468800  1
  C  C66  1  0.99295300  0.18984000  0.99468800  1
  C  C67  1  0.81016000  0.99295300  0.99468800  1
  C  C68  1  0.00704700  0.81016000  0.99468800  1
  C  C69  1  0.68984000  0.50704700  0.49468800  1
  C  C70  1  0.49295300  0.68984000  0.49468800  1
  C  C71  1  0.31016000  0.49295300  0.49468800  1
  C  C72  1  0.50704700  0.31016000  0.49468800  1
  C  C73  1  0.30933500  0.00472000  0.00093600  1
  C  C74  1  0.99528000  0.30933500  0.00093600  1
  C  C75  1  0.69066500  0.99528000  0.00093600  1
  C  C76  1  0.00472000  0.69066500  0.00093600  1
  C  C77  1  0.80933500  0.50472000  0.50093600  1
  C  C78  1  0.49528000  0.80933500  0.50093600  1
  C  C79  1  0.19066500  0.49528000  0.50093600  1
  C  C80  1  0.50472000  0.19066500  0.50093600  1
  C  C81  1  0.28361500  0.93813300  0.99805700  1
  C  C82  1  0.06186700  0.28361500  0.99805700  1
  C  C83  1  0.71638500  0.06186700  0.99805700  1
  C  C84  1  0.93813300  0.71638500  0.99805700  1
  C  C85  1  0.78361500  0.43813300  0.49805700  1
  C  C86  1  0.56186700  0.78361500  0.49805700  1
  C  C87  1  0.21638500  0.56186700  0.49805700  1
  C  C88  1  0.43813300  0.21638500  0.49805700  1
  C  C89  1  0.29303200  0.04369900  0.97470200  1
  C  C90  1  0.95630100  0.29303200  0.97470200  1
  C  C91  1  0.70696800  0.95630100  0.97470200  1
  C  C92  1  0.04369900  0.70696800  0.97470200  1
  C  C93  1  0.79303200  0.54369900  0.47470200  1
  C  C94  1  0.45630100  0.79303200  0.47470200  1
  C  C95  1  0.20696800  0.45630100  0.47470200  1
  C  C96  1  0.54369900  0.20696800  0.47470200  1
  C  C97  1  0.50000000  0.00000000  0.15039700  1
  C  C98  1  0.00000000  0.50000000  0.15039700  1
  C  C99  1  0.00000000  0.50000000  0.65039700  1
  C  C100  1  0.50000000  0.00000000  0.65039700  1
  C  C101  1  0.00000000  0.50000000  0.85877000  1
  C  C102  1  0.50000000  0.00000000  0.85877000  1
  C  C103  1  0.50000000  0.00000000  0.35877000  1
  C  C104  1  0.00000000  0.50000000  0.35877000  1
  C  C105  1  0.41753900  0.07603400  0.23982900  1
  C  C106  1  0.92396600  0.41753900  0.23982900  1
  C  C107  1  0.58246100  0.92396600  0.23982900  1
  C  C108  1  0.07603400  0.58246100  0.23982900  1
  C  C109  1  0.91753900  0.57603400  0.73982900  1
  C  C110  1  0.42396600  0.91753900  0.73982900  1
  C  C111  1  0.08246100  0.42396600  0.73982900  1
  C  C112  1  0.57603400  0.08246100  0.73982900  1
  C  C113  1  0.94568700  0.48581900  0.87367800  1
  C  C114  1  0.51418100  0.94568700  0.87367800  1
  C  C115  1  0.05431300  0.51418100  0.87367800  1
  C  C116  1  0.48581900  0.05431300  0.87367800  1
  C  C117  1  0.44568700  0.98581900  0.37367800  1
  C  C118  1  0.01418100  0.44568700  0.37367800  1
  C  C119  1  0.55431300  0.01418100  0.37367800  1
  C  C120  1  0.98581900  0.55431300  0.37367800  1
  C  C121  1  0.45899900  0.03692600  0.19533900  1
  C  C122  1  0.96307400  0.45899900  0.19533900  1
  C  C123  1  0.54100100  0.96307400  0.19533900  1
  C  C124  1  0.03692600  0.54100100  0.19533900  1
  C  C125  1  0.95899900  0.53692600  0.69533900  1
  C  C126  1  0.46307400  0.95899900  0.69533900  1
  C  C127  1  0.04100100  0.46307400  0.69533900  1
  C  C128  1  0.53692600  0.04100100  0.69533900  1
  C  C129  1  0.94553200  0.48619000  0.90320700  1
  C  C130  1  0.51381000  0.94553200  0.90320700  1
  C  C131  1  0.05446800  0.51381000  0.90320700  1
  C  C132  1  0.48619000  0.05446800  0.90320700  1
  C  C133  1  0.44553200  0.98619000  0.40320700  1
  C  C134  1  0.01381000  0.44553200  0.40320700  1
  C  C135  1  0.55446800  0.01381000  0.40320700  1
  C  C136  1  0.98619000  0.55446800  0.40320700  1
  C  C137  1  0.00000000  0.50000000  0.91812800  1
  C  C138  1  0.50000000  0.00000000  0.91812800  1
  C  C139  1  0.50000000  0.00000000  0.41812800  1
  C  C140  1  0.00000000  0.50000000  0.41812800  1
  C  C141  1  0.50000000  0.00000000  0.05962500  1
  C  C142  1  0.00000000  0.50000000  0.05962500  1
  C  C143  1  0.00000000  0.50000000  0.55962500  1
  C  C144  1  0.50000000  0.00000000  0.55962500  1
  C  C145  1  0.37917500  0.00300000  0.00392100  1
  C  C146  1  0.99700000  0.37917500  0.00392100  1
  C  C147  1  0.62082500  0.99700000  0.00392100  1
  C  C148  1  0.00300000  0.62082500  0.00392100  1
  C  C149  1  0.87917500  0.50300000  0.50392100  1
  C  C150  1  0.49700000  0.87917500  0.50392100  1
  C  C151  1  0.12082500  0.49700000  0.50392100  1
  C  C152  1  0.50300000  0.12082500  0.50392100  1
  C  C153  1  0.50000000  0.00000000  0.94950700  1
  C  C154  1  0.00000000  0.50000000  0.94950700  1
  C  C155  1  0.00000000  0.50000000  0.44950700  1
  C  C156  1  0.50000000  0.00000000  0.44950700  1
  C  C157  1  0.49022800  0.94472800  0.13548400  1
  C  C158  1  0.05527200  0.49022800  0.13548400  1
  C  C159  1  0.50977200  0.05527200  0.13548400  1
  C  C160  1  0.94472800  0.50977200  0.13548400  1
  C  C161  1  0.99022800  0.44472800  0.63548400  1
  C  C162  1  0.55527200  0.99022800  0.63548400  1
  C  C163  1  0.00977200  0.55527200  0.63548400  1
  C  C164  1  0.44472800  0.00977200  0.63548400  1
  C  C165  1  0.49061400  0.94460000  0.10595300  1
  C  C166  1  0.05540000  0.49061400  0.10595300  1
  C  C167  1  0.50938600  0.05540000  0.10595300  1
  C  C168  1  0.94460000  0.50938600  0.10595300  1
  C  C169  1  0.99061400  0.44460000  0.60595300  1
  C  C170  1  0.55540000  0.99061400  0.60595300  1
  C  C171  1  0.00938600  0.55540000  0.60595300  1
  C  C172  1  0.44460000  0.00938600  0.60595300  1
  C  C173  1  0.03995600  0.46194400  0.81383700  1
  C  C174  1  0.53805600  0.03995600  0.81383700  1
  C  C175  1  0.96004400  0.53805600  0.81383700  1
  C  C176  1  0.46194400  0.96004400  0.81383700  1
  C  C177  1  0.53995600  0.96194400  0.31383700  1
  C  C178  1  0.03805600  0.53995600  0.31383700  1
  C  C179  1  0.46004400  0.03805600  0.31383700  1
  C  C180  1  0.96194400  0.46004400  0.31383700  1
  C  C181  1  0.95913800  0.53816700  0.78421600  1
  C  C182  1  0.46183300  0.95913800  0.78421600  1
  C  C183  1  0.04086200  0.46183300  0.78421600  1
  C  C184  1  0.53816700  0.04086200  0.78421600  1
  C  C185  1  0.45913800  0.03816700  0.28421600  1
  C  C186  1  0.96183300  0.45913800  0.28421600  1
  C  C187  1  0.54086200  0.96183300  0.28421600  1
  C  C188  1  0.03816700  0.54086200  0.28421600  1
  C  C189  1  0.00000000  0.50000000  0.76936600  1
  C  C190  1  0.50000000  0.00000000  0.76936600  1
  C  C191  1  0.50000000  0.00000000  0.26936600  1
  C  C192  1  0.00000000  0.50000000  0.26936600  1
  C  C193  1  0.19771500  0.04583100  0.94141100  1
  C  C194  1  0.21469800  0.00193200  0.92018600  1
  C  C195  1  0.19282800  0.00930100  0.89253400  1
  C  C196  1  0.15414200  0.05836400  0.88524200  1
  C  C197  1  0.13733600  0.10133200  0.90568600  1
  C  C198  1  0.15881800  0.09521800  0.93332400  1
  C  C199  1  0.95416900  0.19771500  0.94141100  1
  C  C200  1  0.99806800  0.21469800  0.92018600  1
  C  C201  1  0.99069900  0.19282800  0.89253400  1
  C  C202  1  0.94163600  0.15414200  0.88524200  1
  C  C203  1  0.89866800  0.13733600  0.90568600  1
  C  C204  1  0.90478200  0.15881800  0.93332400  1
  C  C205  1  0.80228500  0.95416900  0.94141100  1
  C  C206  1  0.78530200  0.99806800  0.92018600  1
  C  C207  1  0.80717200  0.99069900  0.89253400  1
  C  C208  1  0.84585800  0.94163600  0.88524200  1
  C  C209  1  0.86266400  0.89866800  0.90568600  1
  C  C210  1  0.84118200  0.90478200  0.93332400  1
  C  C211  1  0.04583100  0.80228500  0.94141100  1
  C  C212  1  0.00193200  0.78530200  0.92018600  1
  C  C213  1  0.00930100  0.80717200  0.89253400  1
  C  C214  1  0.05836400  0.84585800  0.88524200  1
  C  C215  1  0.10133200  0.86266400  0.90568600  1
  C  C216  1  0.09521800  0.84118200  0.93332400  1
  C  C217  1  0.69771500  0.54583100  0.44141100  1
  C  C218  1  0.71469800  0.50193200  0.42018600  1
  C  C219  1  0.69282800  0.50930100  0.39253400  1
  C  C220  1  0.65414200  0.55836400  0.38524200  1
  C  C221  1  0.63733600  0.60133200  0.40568600  1
  C  C222  1  0.65881800  0.59521800  0.43332400  1
  C  C223  1  0.45416900  0.69771500  0.44141100  1
  C  C224  1  0.49806800  0.71469800  0.42018600  1
  C  C225  1  0.49069900  0.69282800  0.39253400  1
  C  C226  1  0.44163600  0.65414200  0.38524200  1
  C  C227  1  0.39866800  0.63733600  0.40568600  1
  C  C228  1  0.40478200  0.65881800  0.43332400  1
  C  C229  1  0.30228500  0.45416900  0.44141100  1
  C  C230  1  0.28530200  0.49806800  0.42018600  1
  C  C231  1  0.30717200  0.49069900  0.39253400  1
  C  C232  1  0.34585800  0.44163600  0.38524200  1
  C  C233  1  0.36266400  0.39866800  0.40568600  1
  C  C234  1  0.34118200  0.40478200  0.43332400  1
  C  C235  1  0.54583100  0.30228500  0.44141100  1
  C  C236  1  0.50193200  0.28530200  0.42018600  1
  C  C237  1  0.50930100  0.30717200  0.39253400  1
  C  C238  1  0.55836400  0.34585800  0.38524200  1
  C  C239  1  0.60133200  0.36266400  0.40568600  1
  C  C240  1  0.59521800  0.34118200  0.43332400  1
  N  N1  1  0.50000000  0.00000000  0.18099500  1
  N  N2  1  0.00000000  0.50000000  0.18099500  1
  N  N3  1  0.00000000  0.50000000  0.68099500  1
  N  N4  1  0.50000000  0.00000000  0.68099500  1
  N  N5  1  0.00000000  0.50000000  0.82817700  1
  N  N6  1  0.50000000  0.00000000  0.82817700  1
  N  N7  1  0.50000000  0.00000000  0.32817700  1
  N  N8  1  0.00000000  0.50000000  0.32817700  1
  Cl  Cl1  1  0.26435100  0.93678100  0.92498000  1
  Cl  Cl2  1  0.06321900  0.26435100  0.92498000  1
  Cl  Cl3  1  0.73564900  0.06321900  0.92498000  1
  Cl  Cl4  1  0.93678100  0.73564900  0.92498000  1
  Cl  Cl5  1  0.76435100  0.43678100  0.42498000  1
  Cl  Cl6  1  0.56321900  0.76435100  0.42498000  1
  Cl  Cl7  1  0.23564900  0.56321900  0.42498000  1
  Cl  Cl8  1  0.43678100  0.23564900  0.42498000  1
  O  O1  1  0.97569200  0.08814900  0.01615400  1
  O  O2  1  0.91185100  0.97569200  0.01615400  1
  O  O3  1  0.02430800  0.91185100  0.01615400  1
  O  O4  1  0.08814900  0.02430800  0.01615400  1
  O  O5  1  0.47569200  0.58814900  0.51615400  1
  O  O6  1  0.41185100  0.47569200  0.51615400  1
  O  O7  1  0.52430800  0.41185100  0.51615400  1
  O  O8  1  0.58814900  0.52430800  0.51615400  1
  O  O9  1  0.01267900  0.09074200  0.96928500  1
  O  O10  1  0.90925800  0.01267900  0.96928500  1
  O  O11  1  0.98732100  0.90925800  0.96928500  1
  O  O12  1  0.09074200  0.98732100  0.96928500  1
  O  O13  1  0.51267900  0.59074200  0.46928500  1
  O  O14  1  0.40925800  0.51267900  0.46928500  1
  O  O15  1  0.48732100  0.40925800  0.46928500  1
  O  O16  1  0.59074200  0.48732100  0.46928500  1
  O  O17  1  0.07804500  0.42292600  0.82843100  1
  O  O18  1  0.57707400  0.07804500  0.82843100  1
  O  O19  1  0.92195500  0.57707400  0.82843100  1
  O  O20  1  0.42292600  0.92195500  0.82843100  1
  O  O21  1  0.57804500  0.92292600  0.32843100  1
  O  O22  1  0.07707400  0.57804500  0.32843100  1
  O  O23  1  0.42195500  0.07707400  0.32843100  1
  O  O24  1  0.92292600  0.42195500  0.32843100  1
  O  O25  1  0.41716700  0.07191300  0.18075100  1
  O  O26  1  0.92808700  0.41716700  0.18075100  1
  O  O27  1  0.58283300  0.92808700  0.18075100  1
  O  O28  1  0.07191300  0.58283300  0.18075100  1
  O  O29  1  0.91716700  0.57191300  0.68075100  1
  O  O30  1  0.42808700  0.91716700  0.68075100  1
  O  O31  1  0.08283300  0.42808700  0.68075100  1
  O  O32  1  0.57191300  0.08283300  0.68075100  1
  O  O33  1  0.49939000  0.05432300  0.04621600  1
  O  O34  1  0.94567700  0.49939000  0.04621600  1
  O  O35  1  0.50061000  0.94567700  0.04621600  1
  O  O36  1  0.05432300  0.50061000  0.04621600  1
  O  O37  1  0.99939000  0.55432300  0.54621600  1
  O  O38  1  0.44567700  0.99939000  0.54621600  1
  O  O39  1  0.00061000  0.44567700  0.54621600  1
  O  O40  1  0.55432300  0.00061000  0.54621600  1
  O  O41  1  0.40950100  0.05651600  0.00600600  1
  O  O42  1  0.94348400  0.40950100  0.00600600  1
  O  O43  1  0.59049900  0.94348400  0.00600600  1
  O  O44  1  0.05651600  0.59049900  0.00600600  1
  O  O45  1  0.90950100  0.55651600  0.50600600  1
  O  O46  1  0.44348400  0.90950100  0.50600600  1
  O  O47  1  0.09049900  0.44348400  0.50600600  1
  O  O48  1  0.55651600  0.09049900  0.50600600  1
  O  O49  1  0.40736800  0.94818100  0.00513000  1
  O  O50  1  0.05181900  0.40736800  0.00513000  1
  O  O51  1  0.59263200  0.05181900  0.00513000  1
  O  O52  1  0.94818100  0.59263200  0.00513000  1
  O  O53  1  0.90736800  0.44818100  0.50513000  1
  O  O54  1  0.55181900  0.90736800  0.50513000  1
  O  O55  1  0.09263200  0.55181900  0.50513000  1
  O  O56  1  0.44818100  0.09263200  0.50513000  1
  O  O57  1  0.49741300  0.05418100  0.96292600  1
  O  O58  1  0.94581900  0.49741300  0.96292600  1
  O  O59  1  0.50258700  0.94581900  0.96292600  1
  O  O60  1  0.05418100  0.50258700  0.96292600  1
  O  O61  1  0.99741300  0.55418100  0.46292600  1
  O  O62  1  0.44581900  0.99741300  0.46292600  1
  O  O63  1  0.00258700  0.44581900  0.46292600  1
  O  O64  1  0.55418100  0.00258700  0.46292600  1
