# generated using pymatgen
data_Zn3H13C37(O3F)4
_symmetry_space_group_name_H-M   'P 1'
_cell_length_a   28.17876600
_cell_length_b   19.01789900
_cell_length_c   16.75656400
_cell_angle_alpha   90.00000000
_cell_angle_beta   62.36569300
_cell_angle_gamma   90.00000000
_symmetry_Int_Tables_number   1
_chemical_formula_structural   Zn3H13C37(O3F)4
_chemical_formula_sum   'Zn12 H52 C148 O48 F16'
_cell_volume   7955.48993285
_cell_formula_units_Z   4
loop_
 _symmetry_equiv_pos_site_id
 _symmetry_equiv_pos_as_xyz
  1  'x, y, z'
loop_
 _atom_site_type_symbol
 _atom_site_label
 _atom_site_symmetry_multiplicity
 _atom_site_fract_x
 _atom_site_fract_y
 _atom_site_fract_z
 _atom_site_occupancy
  Zn  Zn1  1  0.79358500  0.20951300  0.50563300  1
  Zn  Zn2  1  0.20641500  0.79048700  0.49436700  1
  Zn  Zn3  1  0.20641400  0.20951600  0.49436900  1
  Zn  Zn4  1  0.79358600  0.79048300  0.50563100  1
  Zn  Zn5  1  0.29358600  0.70951600  0.50563100  1
  Zn  Zn6  1  0.70641400  0.29048300  0.49436900  1
  Zn  Zn7  1  0.70641500  0.70951300  0.49436700  1
  Zn  Zn8  1  0.29358500  0.29048600  0.50563300  1
  Zn  Zn9  1  0.50221600  0.50000000  0.08859500  1
  Zn  Zn10  1  0.49778400  0.50000000  0.91140500  1
  Zn  Zn11  1  0.00221600  0.00000000  0.08859500  1
  Zn  Zn12  1  0.99778400  0.00000000  0.91140500  1
  H  H1  1  0.10091100  0.38904200  0.53753300  1
  H  H2  1  0.89908900  0.61095800  0.46246700  1
  H  H3  1  0.89908700  0.38903700  0.46246900  1
  H  H4  1  0.10091300  0.61096300  0.53753100  1
  H  H5  1  0.60091300  0.88903700  0.53753100  1
  H  H6  1  0.39908700  0.11096300  0.46246900  1
  H  H7  1  0.39908900  0.88904200  0.46246700  1
  H  H8  1  0.60091100  0.11095800  0.53753300  1
  H  H9  1  0.73199700  0.99999900  0.53049900  1
  H  H10  1  0.26800300  0.00000100  0.46950200  1
  H  H11  1  0.23199700  0.50000100  0.53049900  1
  H  H12  1  0.76800300  0.49999900  0.46950200  1
  H  H13  1  0.59722200  0.12525200  0.40786700  1
  H  H14  1  0.40277800  0.87474900  0.59213300  1
  H  H15  1  0.40278800  0.12526500  0.59211800  1
  H  H16  1  0.59721200  0.87473500  0.40788200  1
  H  H17  1  0.09721200  0.62526500  0.40788200  1
  H  H18  1  0.90278800  0.37473500  0.59211800  1
  H  H19  1  0.90277800  0.62525100  0.59213300  1
  H  H20  1  0.09722200  0.37474800  0.40786700  1
  H  H21  1  0.54850600  0.23652000  0.44828300  1
  H  H22  1  0.45149400  0.76348000  0.55171700  1
  H  H23  1  0.45151200  0.23652600  0.55168500  1
  H  H24  1  0.54848800  0.76347300  0.44831600  1
  H  H25  1  0.04848800  0.73652600  0.44831600  1
  H  H26  1  0.95151200  0.26347400  0.55168500  1
  H  H27  1  0.95149400  0.73651900  0.55171700  1
  H  H28  1  0.04850600  0.26348000  0.44828300  1
  H  H29  1  0.72940500  0.37417100  0.98989800  1
  H  H30  1  0.27059500  0.62582900  0.01010200  1
  H  H31  1  0.27059400  0.37417300  0.01010300  1
  H  H32  1  0.72940600  0.62582700  0.98989700  1
  H  H33  1  0.22940600  0.87417300  0.98989700  1
  H  H34  1  0.77059400  0.12582700  0.01010300  1
  H  H35  1  0.77059500  0.87417100  0.01010200  1
  H  H36  1  0.22940500  0.12582900  0.98989800  1
  H  H37  1  0.61771000  0.34894000  0.77435600  1
  H  H38  1  0.38229000  0.65105900  0.22564500  1
  H  H39  1  0.38228900  0.34894300  0.22564600  1
  H  H40  1  0.61771100  0.65105700  0.77435400  1
  H  H41  1  0.11771100  0.84894200  0.77435400  1
  H  H42  1  0.88228900  0.15105700  0.22564600  1
  H  H43  1  0.88229000  0.84894100  0.22564500  1
  H  H44  1  0.11771000  0.15105900  0.77435600  1
  H  H45  1  0.74323400  0.23395400  0.78879100  1
  H  H46  1  0.25676600  0.76604600  0.21120900  1
  H  H47  1  0.25676500  0.23395600  0.21121100  1
  H  H48  1  0.74323500  0.76604400  0.78879000  1
  H  H49  1  0.24323500  0.73395600  0.78879000  1
  H  H50  1  0.75676500  0.26604400  0.21121100  1
  H  H51  1  0.75676600  0.73395400  0.21120900  1
  H  H52  1  0.24323400  0.26604600  0.78879100  1
  C  C1  1  0.70361700  0.27008300  0.67619600  1
  C  C2  1  0.29638300  0.72991700  0.32380400  1
  C  C3  1  0.29638100  0.27008600  0.32380600  1
  C  C4  1  0.70361900  0.72991400  0.67619500  1
  C  C5  1  0.20361900  0.77008600  0.67619500  1
  C  C6  1  0.79638100  0.22991400  0.32380600  1
  C  C7  1  0.79638300  0.77008300  0.32380400  1
  C  C8  1  0.20361700  0.22991700  0.67619600  1
  C  C9  1  0.69550300  0.12948300  0.52774800  1
  C  C10  1  0.30449700  0.87051700  0.47225300  1
  C  C11  1  0.30449600  0.12948600  0.47225400  1
  C  C12  1  0.69550400  0.87051400  0.52774600  1
  C  C13  1  0.19550400  0.62948600  0.52774600  1
  C  C14  1  0.80449600  0.37051400  0.47225400  1
  C  C15  1  0.80449700  0.62948300  0.47225300  1
  C  C16  1  0.19550300  0.37051700  0.52774800  1
  C  C17  1  0.62145300  0.93821800  0.52542700  1
  C  C18  1  0.37854700  0.06178200  0.47457400  1
  C  C19  1  0.37854800  0.93822200  0.47457200  1
  C  C20  1  0.62145200  0.06177800  0.52542800  1
  C  C21  1  0.12145200  0.43822200  0.52542800  1
  C  C22  1  0.87854800  0.56177800  0.47457200  1
  C  C23  1  0.87854700  0.43821800  0.47457400  1
  C  C24  1  0.12145300  0.56178200  0.52542700  1
  C  C25  1  0.66899100  0.93764900  0.53065500  1
  C  C26  1  0.33100900  0.06235100  0.46934500  1
  C  C27  1  0.33101000  0.93765300  0.46934400  1
  C  C28  1  0.66899000  0.06234700  0.53065600  1
  C  C29  1  0.16899000  0.43765300  0.53065600  1
  C  C30  1  0.83101000  0.56234700  0.46934400  1
  C  C31  1  0.83100900  0.43764900  0.46934500  1
  C  C32  1  0.16899100  0.56235100  0.53065500  1
  C  C33  1  0.69396800  0.99999800  0.52949600  1
  C  C34  1  0.30603200  0.00000100  0.47050400  1
  C  C35  1  0.19396800  0.50000100  0.52949600  1
  C  C36  1  0.80603200  0.49999800  0.47050400  1
  C  C37  1  0.60078500  0.99999800  0.50835300  1
  C  C38  1  0.39921500  0.00000200  0.49164700  1
  C  C39  1  0.10078500  0.50000200  0.50835300  1
  C  C40  1  0.89921500  0.49999800  0.49164700  1
  C  C41  1  0.55431300  0.12464800  0.44994500  1
  C  C42  1  0.44568700  0.87535200  0.55005600  1
  C  C43  1  0.44569700  0.12465500  0.55003800  1
  C  C44  1  0.55430300  0.87534500  0.44996300  1
  C  C45  1  0.05430300  0.62465500  0.44996300  1
  C  C46  1  0.94569700  0.37534500  0.55003800  1
  C  C47  1  0.94568700  0.62464800  0.55005600  1
  C  C48  1  0.05431300  0.37535200  0.44994500  1
  C  C49  1  0.52704300  0.18749000  0.47149600  1
  C  C50  1  0.47295700  0.81251000  0.52850400  1
  C  C51  1  0.47297100  0.18749400  0.52847700  1
  C  C52  1  0.52702900  0.81250600  0.47152300  1
  C  C53  1  0.02702900  0.68749400  0.47152300  1
  C  C54  1  0.97297100  0.31250600  0.52847700  1
  C  C55  1  0.97295700  0.68749000  0.52850400  1
  C  C56  1  0.02704300  0.31251000  0.47149600  1
  C  C57  1  0.47268500  0.06223500  0.51428700  1
  C  C58  1  0.52731500  0.93776500  0.48571300  1
  C  C59  1  0.52732000  0.06223100  0.48570300  1
  C  C60  1  0.47268000  0.93776800  0.51429700  1
  C  C61  1  0.97268000  0.56223200  0.51429700  1
  C  C62  1  0.02732000  0.43776800  0.48570300  1
  C  C63  1  0.02731500  0.56223500  0.48571300  1
  C  C64  1  0.97268500  0.43776500  0.51428700  1
  C  C65  1  0.94624200  0.49999800  0.51389400  1
  C  C66  1  0.05375800  0.50000200  0.48610600  1
  C  C67  1  0.44624200  0.00000200  0.51389400  1
  C  C68  1  0.55375800  0.99999800  0.48610600  1
  C  C69  1  0.72015100  0.26814300  0.95643800  1
  C  C70  1  0.27984900  0.73185700  0.04356200  1
  C  C71  1  0.27984800  0.26814400  0.04356300  1
  C  C72  1  0.72015200  0.73185600  0.95643700  1
  C  C73  1  0.22015200  0.76814400  0.95643700  1
  C  C74  1  0.77984800  0.23185600  0.04356300  1
  C  C75  1  0.77984900  0.76814300  0.04356200  1
  C  C76  1  0.22015100  0.23185700  0.95643800  1
  C  C77  1  0.73282200  0.19858100  0.96126500  1
  C  C78  1  0.26717800  0.80141900  0.03873600  1
  C  C79  1  0.26717700  0.19858200  0.03873700  1
  C  C80  1  0.73282300  0.80141800  0.96126300  1
  C  C81  1  0.23282300  0.69858200  0.96126300  1
  C  C82  1  0.76717700  0.30141800  0.03873700  1
  C  C83  1  0.76717800  0.69858100  0.03873600  1
  C  C84  1  0.23282200  0.30141900  0.96126500  1
  C  C85  1  0.76231300  0.18064600  0.00484600  1
  C  C86  1  0.23768700  0.81935400  0.99515400  1
  C  C87  1  0.23768600  0.18064700  0.99515500  1
  C  C88  1  0.76231400  0.81935300  0.00484500  1
  C  C89  1  0.26231400  0.68064700  0.00484500  1
  C  C90  1  0.73768600  0.31935300  0.99515500  1
  C  C91  1  0.73768700  0.68064600  0.99515400  1
  C  C92  1  0.26231300  0.31935400  0.00484600  1
  C  C93  1  0.64586700  0.33183400  0.94827600  1
  C  C94  1  0.35413300  0.66816600  0.05172400  1
  C  C95  1  0.35413200  0.33183500  0.05172500  1
  C  C96  1  0.64586800  0.66816500  0.94827500  1
  C  C97  1  0.14586800  0.83183500  0.94827500  1
  C  C98  1  0.85413200  0.16816500  0.05172500  1
  C  C99  1  0.85413300  0.83183400  0.05172400  1
  C  C100  1  0.14586700  0.16816600  0.94827600  1
  C  C101  1  0.61950300  0.35400000  0.90032400  1
  C  C102  1  0.38049700  0.64600000  0.09967700  1
  C  C103  1  0.38049600  0.35400100  0.09967800  1
  C  C104  1  0.61950400  0.64599900  0.90032300  1
  C  C105  1  0.11950400  0.85400100  0.90032300  1
  C  C106  1  0.88049600  0.14599900  0.09967800  1
  C  C107  1  0.88049700  0.85400000  0.09967700  1
  C  C108  1  0.11950300  0.14600000  0.90032400  1
  C  C109  1  0.63733600  0.33097400  0.81267600  1
  C  C110  1  0.36266400  0.66902600  0.18732500  1
  C  C111  1  0.36266300  0.33097600  0.18732600  1
  C  C112  1  0.63733700  0.66902400  0.81267400  1
  C  C113  1  0.13733700  0.83097600  0.81267400  1
  C  C114  1  0.86266300  0.16902400  0.18732600  1
  C  C115  1  0.86266400  0.83097400  0.18732500  1
  C  C116  1  0.13733600  0.16902600  0.81267600  1
  C  C117  1  0.68152600  0.28750100  0.77223000  1
  C  C118  1  0.31847400  0.71249900  0.22777000  1
  C  C119  1  0.31847200  0.28750300  0.22777200  1
  C  C120  1  0.68152800  0.71249700  0.77222900  1
  C  C121  1  0.18152800  0.78750300  0.77222900  1
  C  C122  1  0.81847200  0.21249700  0.22777200  1
  C  C123  1  0.81847400  0.78750100  0.22777000  1
  C  C124  1  0.18152600  0.21249900  0.77223000  1
  C  C125  1  0.70758800  0.26597100  0.82041400  1
  C  C126  1  0.29241200  0.73402900  0.17958600  1
  C  C127  1  0.29241100  0.26597300  0.17958800  1
  C  C128  1  0.70758900  0.73402700  0.82041200  1
  C  C129  1  0.20758900  0.76597300  0.82041200  1
  C  C130  1  0.79241100  0.23402700  0.17958800  1
  C  C131  1  0.79241200  0.76597100  0.17958600  1
  C  C132  1  0.20758800  0.23402900  0.82041400  1
  C  C133  1  0.68996900  0.28800400  0.90816900  1
  C  C134  1  0.31003100  0.71199600  0.09183100  1
  C  C135  1  0.31003000  0.28800500  0.09183300  1
  C  C136  1  0.68997000  0.71199500  0.90816800  1
  C  C137  1  0.18997000  0.78800500  0.90816800  1
  C  C138  1  0.81003000  0.21199500  0.09183300  1
  C  C139  1  0.81003100  0.78800400  0.09183100  1
  C  C140  1  0.18996900  0.21199600  0.90816900  1
  C  C141  1  0.07501600  0.09514000  0.93869900  1
  C  C142  1  0.92498400  0.90486000  0.06130200  1
  C  C143  1  0.92498300  0.09513900  0.06130200  1
  C  C144  1  0.07501700  0.90486000  0.93869800  1
  C  C145  1  0.57501700  0.59513900  0.93869800  1
  C  C146  1  0.42498300  0.40486000  0.06130200  1
  C  C147  1  0.42498400  0.59514000  0.06130200  1
  C  C148  1  0.57501600  0.40486000  0.93869900  1
  O  O1  1  0.74985500  0.23734300  0.63667500  1
  O  O2  1  0.25014500  0.76265700  0.36332500  1
  O  O3  1  0.25014300  0.23734600  0.36332700  1
  O  O4  1  0.74985700  0.76265400  0.63667400  1
  O  O5  1  0.24985700  0.73734600  0.63667400  1
  O  O6  1  0.75014300  0.26265400  0.36332700  1
  O  O7  1  0.75014500  0.73734300  0.36332500  1
  O  O8  1  0.24985600  0.26265700  0.63667500  1
  O  O9  1  0.67264700  0.18788500  0.52158800  1
  O  O10  1  0.32735300  0.81211500  0.47841200  1
  O  O11  1  0.32735200  0.18788800  0.47841400  1
  O  O12  1  0.67264800  0.81211200  0.52158600  1
  O  O13  1  0.17264800  0.68788800  0.52158600  1
  O  O14  1  0.82735200  0.31211200  0.47841400  1
  O  O15  1  0.82735300  0.68788500  0.47841200  1
  O  O16  1  0.17264700  0.31211500  0.52158800  1
  O  O17  1  0.74366000  0.12804700  0.52141000  1
  O  O18  1  0.25634000  0.87195200  0.47859000  1
  O  O19  1  0.25633800  0.12805000  0.47859200  1
  O  O20  1  0.74366200  0.87194900  0.52140900  1
  O  O21  1  0.24366200  0.62805000  0.52140900  1
  O  O22  1  0.75633800  0.37194900  0.47859200  1
  O  O23  1  0.75634000  0.62804700  0.47859000  1
  O  O24  1  0.24366000  0.37195200  0.52141000  1
  O  O25  1  0.67872000  0.29340500  0.63190200  1
  O  O26  1  0.32128000  0.70659500  0.36809800  1
  O  O27  1  0.32127800  0.29340800  0.36810000  1
  O  O28  1  0.67872200  0.70659200  0.63190000  1
  O  O29  1  0.17872200  0.79340800  0.63190000  1
  O  O30  1  0.82127800  0.20659200  0.36810000  1
  O  O31  1  0.82128000  0.79340500  0.36809800  1
  O  O32  1  0.17872000  0.20659500  0.63190200  1
  O  O33  1  0.06013300  0.07017200  0.01982300  1
  O  O34  1  0.93986700  0.92982800  0.98017700  1
  O  O35  1  0.93986700  0.07017100  0.98017800  1
  O  O36  1  0.06013300  0.92982900  0.01982200  1
  O  O37  1  0.56013300  0.57017100  0.01982200  1
  O  O38  1  0.43986700  0.42982900  0.98017800  1
  O  O39  1  0.43986700  0.57017200  0.98017700  1
  O  O40  1  0.56013300  0.42982800  0.01982300  1
  O  O41  1  0.94640300  0.07386400  0.11194600  1
  O  O42  1  0.05359700  0.92613600  0.88805500  1
  O  O43  1  0.05359600  0.07386500  0.88805500  1
  O  O44  1  0.94640400  0.92613500  0.11194500  1
  O  O45  1  0.44640400  0.57386500  0.11194500  1
  O  O46  1  0.55359600  0.42613500  0.88805500  1
  O  O47  1  0.55359700  0.57386400  0.88805500  1
  O  O48  1  0.44640300  0.42613600  0.11194600  1
  F  F1  1  0.71488700  0.14713100  0.92606500  1
  F  F2  1  0.28511300  0.85286900  0.07393500  1
  F  F3  1  0.28511200  0.14713200  0.07393600  1
  F  F4  1  0.71488800  0.85286800  0.92606400  1
  F  F5  1  0.21488800  0.64713200  0.92606400  1
  F  F6  1  0.78511200  0.35286800  0.07393600  1
  F  F7  1  0.78511300  0.64713100  0.07393500  1
  F  F8  1  0.21488700  0.35286900  0.92606500  1
  F  F9  1  0.62855000  0.35188900  0.03501000  1
  F  F10  1  0.37145000  0.64811100  0.96499000  1
  F  F11  1  0.37145000  0.35189000  0.96499100  1
  F  F12  1  0.62855100  0.64811000  0.03501000  1
  F  F13  1  0.12855100  0.85189000  0.03501000  1
  F  F14  1  0.87145000  0.14811000  0.96499100  1
  F  F15  1  0.87145000  0.85188900  0.96499000  1
  F  F16  1  0.12855000  0.14811100  0.03501000  1
