# generated using pymatgen
data_ZnH20C24N3O4
_symmetry_space_group_name_H-M   'P 1'
_cell_length_a   10.94285200
_cell_length_b   15.91402200
_cell_length_c   17.13246800
_cell_angle_alpha   89.12123500
_cell_angle_beta   89.99878700
_cell_angle_gamma   92.77852800
_symmetry_Int_Tables_number   1
_chemical_formula_structural   ZnH20C24N3O4
_chemical_formula_sum   'Zn2 H40 C48 N6 O8'
_cell_volume   2979.67111543
_cell_formula_units_Z   2
loop_
 _symmetry_equiv_pos_site_id
 _symmetry_equiv_pos_as_xyz
  1  'x, y, z'
loop_
 _atom_site_type_symbol
 _atom_site_label
 _atom_site_symmetry_multiplicity
 _atom_site_fract_x
 _atom_site_fract_y
 _atom_site_fract_z
 _atom_site_occupancy
  Zn  Zn1  1  0.47606600  0.40522200  0.50490800  1
  Zn  Zn2  1  0.49267900  0.59652900  0.49485600  1
  H  H1  1  0.87737900  0.60786700  0.74396600  1
  H  H2  1  0.09136500  0.39389200  0.25579600  1
  H  H3  1  0.75743200  0.43739200  0.36730700  1
  H  H4  1  0.21131300  0.56436300  0.63245600  1
  H  H5  1  0.86717000  0.38920800  0.25665800  1
  H  H6  1  0.10157500  0.61255100  0.74310400  1
  H  H7  1  0.20569200  0.44698100  0.36548800  1
  H  H8  1  0.76305200  0.55477200  0.63427600  1
  H  H9  1  0.47441400  0.35549500  0.26353500  1
  H  H10  1  0.49440100  0.64626000  0.73622400  1
  H  H11  1  0.47524000  0.38931800  0.89932100  1
  H  H12  1  0.49346500  0.61244300  0.10044600  1
  H  H13  1  0.47497400  0.37829200  0.76015300  1
  H  H14  1  0.49372400  0.62346400  0.23961400  1
  H  H15  1  0.62431600  0.26495900  0.57343800  1
  H  H16  1  0.34442300  0.73679300  0.42633100  1
  H  H17  1  0.61536200  0.11308500  0.56547500  1
  H  H18  1  0.35337800  0.88866700  0.43429400  1
  H  H19  1  0.68193600  0.87630800  0.56918200  1
  H  H20  1  0.28681400  0.12544400  0.43057700  1
  H  H21  1  0.66604700  0.72306000  0.55920900  1
  H  H22  1  0.30270300  0.27869300  0.44054900  1
  H  H23  1  0.54100700  0.28050200  0.14530500  1
  H  H24  1  0.49647900  0.31801700  0.05162200  1
  H  H25  1  0.31892700  0.27442500  0.18760900  1
  H  H26  1  0.27978400  0.32119800  0.01467100  1
  H  H27  1  0.23749300  0.38113400  0.09874500  1
  H  H28  1  0.16205700  0.28052200  0.08082800  1
  H  H29  1  0.37639500  0.18008800  0.03799200  1
  H  H30  1  0.25978500  0.15009200  0.10933100  1
  H  H31  1  0.41902600  0.15022800  0.13626900  1
  H  H32  1  0.47238900  0.68375300  0.94813700  1
  H  H33  1  0.42785600  0.72127300  0.85445600  1
  H  H34  1  0.64992400  0.72730400  0.81213100  1
  H  H35  1  0.59253900  0.82165400  0.96175500  1
  H  H36  1  0.54990100  0.85152500  0.86348300  1
  H  H37  1  0.70914600  0.85162400  0.89040600  1
  H  H38  1  0.68909100  0.68052200  0.98506500  1
  H  H39  1  0.80681700  0.72117000  0.91889500  1
  H  H40  1  0.73132800  0.62057400  0.90098700  1
  C  C1  1  0.48470900  0.50507900  0.65265300  1
  C  C2  1  0.48403800  0.49667300  0.34711100  1
  C  C3  1  0.72326400  0.49818400  0.49991800  1
  C  C4  1  0.24548100  0.50356800  0.49984600  1
  C  C5  1  0.85590600  0.43969800  0.37081900  1
  C  C6  1  0.11283900  0.56205600  0.62894500  1
  C  C7  1  0.91758500  0.41222200  0.30686800  1
  C  C8  1  0.05116000  0.58953500  0.69289500  1
  C  C9  1  0.04298800  0.41480500  0.30640200  1
  C  C10  1  0.92575700  0.58695200  0.69336100  1
  C  C11  1  0.10730500  0.44485500  0.36989000  1
  C  C12  1  0.86143900  0.55689800  0.62987400  1
  C  C13  1  0.04639000  0.47202100  0.43550200  1
  C  C14  1  0.92235500  0.52973100  0.56426200  1
  C  C15  1  0.91950000  0.46938900  0.43596100  1
  C  C16  1  0.04924400  0.53236300  0.56380400  1
  C  C17  1  0.11138500  0.50353900  0.49940300  1
  C  C18  1  0.85735900  0.49821200  0.50036200  1
  C  C19  1  0.48528000  0.51138700  0.73807600  1
  C  C20  1  0.48347400  0.49036700  0.26168700  1
  C  C21  1  0.49124900  0.58972200  0.77201000  1
  C  C22  1  0.47754200  0.41203400  0.22775100  1
  C  C23  1  0.49224800  0.59757100  0.85212400  1
  C  C24  1  0.47655500  0.40418800  0.14763600  1
  C  C25  1  0.48589300  0.52609200  0.89965700  1
  C  C26  1  0.48288000  0.47566900  0.10010600  1
  C  C27  1  0.47987000  0.44724300  0.86545000  1
  C  C28  1  0.48886400  0.55451700  0.13431500  1
  C  C29  1  0.47970400  0.44025000  0.78524200  1
  C  C30  1  0.48902300  0.56150600  0.21452400  1
  C  C31  1  0.41955100  0.76803600  0.45702600  1
  C  C32  1  0.54919000  0.23371600  0.54274100  1
  C  C33  1  0.42496300  0.85472500  0.46229200  1
  C  C34  1  0.54377900  0.14702700  0.53747500  1
  C  C35  1  0.51974900  0.89463000  0.50346500  1
  C  C36  1  0.44899600  0.10712200  0.49629800  1
  C  C37  1  0.60749600  0.84651600  0.53670700  1
  C  C38  1  0.36125200  0.15523600  0.46305400  1
  C  C39  1  0.59874200  0.76032400  0.53064200  1
  C  C40  1  0.37000500  0.24142800  0.46911800  1
  C  C41  1  0.47210800  0.31747800  0.11432400  1
  C  C42  1  0.34605800  0.27367800  0.12530700  1
  C  C43  1  0.25075100  0.31709200  0.07668600  1
  C  C44  1  0.35070100  0.18272200  0.10049300  1
  C  C45  1  0.49674400  0.68428400  0.88543200  1
  C  C46  1  0.62281000  0.72805600  0.87443700  1
  C  C47  1  0.61821800  0.81901400  0.89925200  1
  C  C48  1  0.71810800  0.68462000  0.92304700  1
  N  N1  1  0.48723200  0.53508700  0.98182000  1
  N  N2  1  0.48154500  0.46667600  0.01794300  1
  N  N3  1  0.50537800  0.72229800  0.49149700  1
  N  N4  1  0.46336600  0.27945300  0.50826700  1
  N  N5  1  0.52873000  0.98277200  0.51372000  1
  N  N6  1  0.44001600  0.01897900  0.48604400  1
  O  O1  1  0.47833200  0.43046200  0.62054400  1
  O  O2  1  0.49041300  0.57129000  0.37921900  1
  O  O3  1  0.49082500  0.57541900  0.61170800  1
  O  O4  1  0.47792100  0.42633300  0.38805600  1
  O  O5  1  0.66028000  0.42587200  0.50433000  1
  O  O6  1  0.30846500  0.57588000  0.49543400  1
  O  O7  1  0.67223000  0.57097900  0.49549100  1
  O  O8  1  0.29651500  0.43077300  0.50427200  1
