# generated using pymatgen
data_Zn3H14(C6O5)5
_symmetry_space_group_name_H-M   'P 1'
_cell_length_a   38.41468300
_cell_length_b   21.86734200
_cell_length_c   21.84292300
_cell_angle_alpha   90.00000000
_cell_angle_beta   56.79246700
_cell_angle_gamma   90.00000000
_symmetry_Int_Tables_number   1
_chemical_formula_structural   Zn3H14(C6O5)5
_chemical_formula_sum   'Zn12 H56 C120 O100'
_cell_volume   15352.17052882
_cell_formula_units_Z   4
loop_
 _symmetry_equiv_pos_site_id
 _symmetry_equiv_pos_as_xyz
  1  'x, y, z'
loop_
 _atom_site_type_symbol
 _atom_site_label
 _atom_site_symmetry_multiplicity
 _atom_site_fract_x
 _atom_site_fract_y
 _atom_site_fract_z
 _atom_site_occupancy
  Zn  Zn1  1  0.99988200  0.43208300  0.50015600  1
  Zn  Zn2  1  0.95290200  0.50020200  0.04541500  1
  Zn  Zn3  1  0.54715000  0.00031800  0.95463300  1
  Zn  Zn4  1  0.45290200  0.00020200  0.04541500  1
  Zn  Zn5  1  0.49988200  0.93208300  0.50015600  1
  Zn  Zn6  1  0.00011000  0.57067200  0.49972600  1
  Zn  Zn7  1  0.50011000  0.07067200  0.49972600  1
  Zn  Zn8  1  0.49862300  0.49998100  0.93203200  1
  Zn  Zn9  1  0.50138100  0.50005100  0.06799900  1
  Zn  Zn10  1  0.99862300  0.99998100  0.93203200  1
  Zn  Zn11  1  0.00138100  0.00005100  0.06799900  1
  Zn  Zn12  1  0.04715000  0.50031800  0.95463300  1
  H  H1  1  0.77181700  0.55521000  0.63281600  1
  H  H2  1  0.57539300  0.31695900  0.86785000  1
  H  H3  1  0.92401100  0.81747000  0.13482100  1
  H  H4  1  0.07539300  0.81695900  0.86785000  1
  H  H5  1  0.96928400  0.68191000  0.14861700  1
  H  H6  1  0.02935200  0.68229800  0.85390700  1
  H  H7  1  0.46928400  0.18191000  0.14861700  1
  H  H8  1  0.52935200  0.18229800  0.85390700  1
  H  H9  1  0.54038200  0.68775600  0.07631000  1
  H  H10  1  0.46031000  0.68903000  0.92097500  1
  H  H11  1  0.04038200  0.18775600  0.07631000  1
  H  H12  1  0.22786700  0.55345100  0.36754500  1
  H  H13  1  0.96031000  0.18903000  0.92097500  1
  H  H14  1  0.08130600  0.31166500  0.97466000  1
  H  H15  1  0.92009500  0.31297500  0.02272200  1
  H  H16  1  0.58130600  0.81166500  0.97466000  1
  H  H17  1  0.42009500  0.81297500  0.02272200  1
  H  H18  1  0.74418500  0.43197100  0.63033500  1
  H  H19  1  0.25614700  0.43049000  0.36915100  1
  H  H20  1  0.24418500  0.93197100  0.63033500  1
  H  H21  1  0.75614700  0.93049000  0.36915100  1
  H  H22  1  0.74602900  0.64298400  0.75019300  1
  H  H23  1  0.27181700  0.05521000  0.63281600  1
  H  H24  1  0.25320600  0.64172700  0.25079800  1
  H  H25  1  0.24602900  0.14298400  0.75019300  1
  H  H26  1  0.75320600  0.14172700  0.25079800  1
  H  H27  1  0.75544900  0.57284500  0.86440700  1
  H  H28  1  0.24418200  0.57174400  0.13604800  1
  H  H29  1  0.25544900  0.07284500  0.86440700  1
  H  H30  1  0.74418200  0.07174400  0.13604800  1
  H  H31  1  0.75225800  0.43100700  0.86831300  1
  H  H32  1  0.24812400  0.42996500  0.13110800  1
  H  H33  1  0.25225800  0.93100700  0.86831300  1
  H  H34  1  0.72786700  0.05345100  0.36754500  1
  H  H35  1  0.74812400  0.92996500  0.13110800  1
  H  H36  1  0.75359900  0.36040900  0.74374800  1
  H  H37  1  0.24713400  0.35907200  0.25518300  1
  H  H38  1  0.25359900  0.86040900  0.74374800  1
  H  H39  1  0.74713400  0.85907200  0.25518300  1
  H  H40  1  0.03559300  0.61877800  0.27758400  1
  H  H41  1  0.96423700  0.62118500  0.72366800  1
  H  H42  1  0.53559300  0.11877800  0.27758400  1
  H  H43  1  0.46423700  0.12118500  0.72366800  1
  H  H44  1  0.07810200  0.55870000  0.11206500  1
  H  H45  1  0.92187300  0.44467800  0.39262900  1
  H  H46  1  0.92195400  0.56061600  0.88798700  1
  H  H47  1  0.57810200  0.05870000  0.11206500  1
  H  H48  1  0.42195400  0.06061600  0.88798700  1
  H  H49  1  0.96554100  0.38369800  0.21550900  1
  H  H50  1  0.03435600  0.38501600  0.78353800  1
  H  H51  1  0.46554100  0.88369800  0.21550900  1
  H  H52  1  0.53435600  0.88501600  0.78353800  1
  H  H53  1  0.07828000  0.44728400  0.60701100  1
  H  H54  1  0.42187300  0.94467800  0.39262900  1
  H  H55  1  0.57828000  0.94728400  0.60701100  1
  H  H56  1  0.42401100  0.31747000  0.13482100  1
  C  C1  1  0.99945200  0.49999800  0.38072300  1
  C  C2  1  0.26472900  0.47248000  0.28576300  1
  C  C3  1  0.02373300  0.78154100  0.93647900  1
  C  C4  1  0.97481200  0.71851600  0.06593400  1
  C  C5  1  0.02403000  0.71849600  0.93661500  1
  C  C6  1  0.47481200  0.21851600  0.06593400  1
  C  C7  1  0.52403000  0.21849600  0.93661500  1
  C  C8  1  0.99933200  0.68676200  0.00125300  1
  C  C9  1  0.49933200  0.18676200  0.00125300  1
  C  C10  1  0.49969900  0.31335700  0.00134200  1
  C  C11  1  0.99969900  0.81335700  0.00134200  1
  C  C12  1  0.52699500  0.71839400  0.01131800  1
  C  C13  1  0.23539300  0.97371500  0.71400900  1
  C  C14  1  0.47386500  0.71897800  0.98601200  1
  C  C15  1  0.02699500  0.21839400  0.01131800  1
  C  C16  1  0.97386500  0.21897800  0.98601200  1
  C  C17  1  0.02773700  0.28144700  0.00993200  1
  C  C18  1  0.97349500  0.28203100  0.98744900  1
  C  C19  1  0.52773700  0.78144700  0.00993200  1
  C  C20  1  0.47349500  0.78203100  0.98744900  1
  C  C21  1  0.00070700  0.31356200  0.99871200  1
  C  C22  1  0.50070700  0.81356200  0.99871200  1
  C  C23  1  0.50033000  0.68681900  0.99866300  1
  C  C24  1  0.76472900  0.97248000  0.28576300  1
  C  C25  1  0.00033000  0.18681900  0.99866300  1
  C  C26  1  0.76227600  0.53103700  0.68436000  1
  C  C27  1  0.23754500  0.52948600  0.31581800  1
  C  C28  1  0.26227600  0.03103700  0.68436000  1
  C  C29  1  0.73754500  0.02948600  0.31581800  1
  C  C30  1  0.87396300  0.50269600  0.62302800  1
  C  C31  1  0.12601700  0.50012500  0.37688100  1
  C  C32  1  0.37396300  0.00269600  0.62302800  1
  C  C33  1  0.00055500  0.50278800  0.61916100  1
  C  C34  1  0.62601700  0.00012500  0.37688100  1
  C  C35  1  0.62599600  0.50021700  0.87405100  1
  C  C36  1  0.37399500  0.50017200  0.12593500  1
  C  C37  1  0.12599600  0.00021700  0.87405100  1
  C  C38  1  0.87399500  0.00017200  0.12593500  1
  C  C39  1  0.76398900  0.44598700  0.73336600  1
  C  C40  1  0.23629000  0.44452700  0.26618500  1
  C  C41  1  0.26398900  0.94598700  0.73336600  1
  C  C42  1  0.73629000  0.94452700  0.26618500  1
  C  C43  1  0.79094000  0.50265700  0.70515800  1
  C  C44  1  0.49945200  0.99999800  0.38072300  1
  C  C45  1  0.20904000  0.50088200  0.29479300  1
  C  C46  1  0.29094000  0.00265700  0.70515800  1
  C  C47  1  0.70904000  0.00088200  0.29479300  1
  C  C48  1  0.73814300  0.47330800  0.80878100  1
  C  C49  1  0.26200000  0.47225600  0.19097400  1
  C  C50  1  0.23814300  0.97330800  0.80878100  1
  C  C51  1  0.76200000  0.97225600  0.19097400  1
  C  C52  1  0.70898200  0.50085400  0.78992100  1
  C  C53  1  0.29100700  0.50003600  0.21005300  1
  C  C54  1  0.20898200  0.00085400  0.78992100  1
  C  C55  1  0.50055500  0.00278800  0.61916100  1
  C  C56  1  0.79100700  0.00003600  0.21005300  1
  C  C57  1  0.76471700  0.52992600  0.78103700  1
  C  C58  1  0.23512900  0.52856500  0.21911800  1
  C  C59  1  0.26471700  0.02992600  0.78103700  1
  C  C60  1  0.73512900  0.02856500  0.21911800  1
  C  C61  1  0.73612400  0.55732200  0.76149100  1
  C  C62  1  0.26356700  0.55618600  0.23888200  1
  C  C63  1  0.23612400  0.05732200  0.76149100  1
  C  C64  1  0.76356700  0.05618600  0.23888200  1
  C  C65  1  0.83646400  0.50265600  0.66004400  1
  C  C66  1  0.91863300  0.50278500  0.57914500  1
  C  C67  1  0.16351600  0.50040100  0.33988400  1
  C  C68  1  0.33646400  0.00265600  0.66004400  1
  C  C69  1  0.66351600  0.00040100  0.33988400  1
  C  C70  1  0.66347800  0.50046600  0.83606600  1
  C  C71  1  0.33651200  0.50011700  0.16391900  1
  C  C72  1  0.16347800  0.00046600  0.83606600  1
  C  C73  1  0.83651200  0.00011700  0.16391900  1
  C  C74  1  0.02466400  0.54006900  0.25766300  1
  C  C75  1  0.97536500  0.54222600  0.74259200  1
  C  C76  1  0.52466400  0.04006900  0.25766300  1
  C  C77  1  0.08134700  0.49997000  0.42074600  1
  C  C78  1  0.47536500  0.04222600  0.74259200  1
  C  C79  1  0.02526600  0.53908200  0.19401200  1
  C  C80  1  0.97481800  0.54086600  0.80618900  1
  C  C81  1  0.52526600  0.03908200  0.19401200  1
  C  C82  1  0.47481800  0.04086600  0.80618900  1
  C  C83  1  0.99937400  0.49982300  0.18730400  1
  C  C84  1  0.00067800  0.50133600  0.81269500  1
  C  C85  1  0.49937400  0.99982300  0.18730400  1
  C  C86  1  0.50067800  0.00133600  0.81269500  1
  C  C87  1  0.97346500  0.46073200  0.24406000  1
  C  C88  1  0.41863300  0.00278500  0.57914500  1
  C  C89  1  0.02655800  0.46243600  0.75563600  1
  C  C90  1  0.47346500  0.96073200  0.24406000  1
  C  C91  1  0.52655800  0.96243600  0.75563600  1
  C  C92  1  0.97393500  0.46016600  0.30667200  1
  C  C93  1  0.02614300  0.46239800  0.69296900  1
  C  C94  1  0.47393500  0.96016600  0.30667200  1
  C  C95  1  0.52614300  0.96239800  0.69296900  1
  C  C96  1  0.99929200  0.50017300  0.31395400  1
  C  C97  1  0.00075300  0.50257800  0.68595000  1
  C  C98  1  0.49929200  0.00017300  0.31395400  1
  C  C99  1  0.58134700  0.99997000  0.42074600  1
  C  C100  1  0.50075300  0.00257800  0.68595000  1
  C  C101  1  0.49987700  0.38030500  0.00139700  1
  C  C102  1  0.99987700  0.88030500  0.00139700  1
  C  C103  1  0.58134800  0.50000600  0.91924000  1
  C  C104  1  0.41864400  0.50019000  0.08073500  1
  C  C105  1  0.08134800  0.00000600  0.91924000  1
  C  C106  1  0.91864400  0.00019000  0.08073500  1
  C  C107  1  0.50014200  0.61980200  0.99861700  1
  C  C108  1  0.00014200  0.11980200  0.99861700  1
  C  C109  1  0.00086600  0.38053100  0.99881400  1
  C  C110  1  0.73539300  0.47371500  0.71400900  1
  C  C111  1  0.50086600  0.88053100  0.99881400  1
  C  C112  1  0.99918000  0.49987800  0.12062800  1
  C  C113  1  0.00086100  0.50086900  0.87943700  1
  C  C114  1  0.49918000  0.99987800  0.12062800  1
  C  C115  1  0.50086100  0.00086900  0.87943700  1
  C  C116  1  0.99918100  0.61988400  0.00121200  1
  C  C117  1  0.49918100  0.11988400  0.00121200  1
  C  C118  1  0.47547200  0.28155000  0.06615600  1
  C  C119  1  0.52373300  0.28154100  0.93647900  1
  C  C120  1  0.97547200  0.78155000  0.06615600  1
  O  O1  1  0.00011800  0.44713300  0.40844000  1
  O  O2  1  0.06205200  0.44713500  0.43777300  1
  O  O3  1  0.55165800  0.92214100  0.76183100  1
  O  O4  1  0.43802500  0.94999200  0.55924600  1
  O  O5  1  0.56205200  0.94713500  0.43777300  1
  O  O6  1  0.93792900  0.55563000  0.56139700  1
  O  O7  1  0.06195800  0.55274400  0.44133400  1
  O  O8  1  0.43792900  0.05563000  0.56139700  1
  O  O9  1  0.56195800  0.05274400  0.44133400  1
  O  O10  1  0.49827300  0.40906600  0.95025300  1
  O  O11  1  0.50159200  0.40867400  0.05260300  1
  O  O12  1  0.99827300  0.90906600  0.95025300  1
  O  O13  1  0.00155500  0.45008800  0.58949000  1
  O  O14  1  0.00159200  0.90867400  0.05260300  1
  O  O15  1  0.56082700  0.50185400  0.88710100  1
  O  O16  1  0.43917100  0.49924600  0.11288600  1
  O  O17  1  0.06082700  0.00185400  0.88710100  1
  O  O18  1  0.93917100  0.99924600  0.11288600  1
  O  O19  1  0.56320600  0.49830600  0.99048100  1
  O  O20  1  0.43678300  0.50136500  0.00948400  1
  O  O21  1  0.06320600  0.99830600  0.99048100  1
  O  O22  1  0.93678300  0.00136500  0.00948400  1
  O  O23  1  0.49779000  0.59138900  0.94809100  1
  O  O24  1  0.50011800  0.94713300  0.40844000  1
  O  O25  1  0.50234000  0.59099300  0.04912500  1
  O  O26  1  0.99779000  0.09138900  0.94809100  1
  O  O27  1  0.00234000  0.09099300  0.04912500  1
  O  O28  1  0.03681600  0.40894500  0.96367900  1
  O  O29  1  0.96502300  0.40927900  0.03402600  1
  O  O30  1  0.53681600  0.90894500  0.96367900  1
  O  O31  1  0.46502300  0.90927900  0.03402600  1
  O  O32  1  0.03500300  0.49956300  0.05733600  1
  O  O33  1  0.96507500  0.50289400  0.94273100  1
  O  O34  1  0.53500300  0.99956300  0.05733600  1
  O  O35  1  0.50155500  0.95008800  0.58949000  1
  O  O36  1  0.46507500  0.00289400  0.94273100  1
  O  O37  1  0.96317700  0.50039600  0.12708400  1
  O  O38  1  0.03681900  0.49843500  0.87305100  1
  O  O39  1  0.46317700  0.00039600  0.12708400  1
  O  O40  1  0.53681900  0.99843500  0.87305100  1
  O  O41  1  0.03502500  0.59121800  0.96428100  1
  O  O42  1  0.96323800  0.59153700  0.03816100  1
  O  O43  1  0.53502500  0.09121800  0.96428100  1
  O  O44  1  0.46323800  0.09153700  0.03816100  1
  O  O45  1  0.94804000  0.42131600  0.36241900  1
  O  O46  1  0.99901300  0.55270800  0.40985900  1
  O  O47  1  0.05213200  0.42382200  0.63695500  1
  O  O48  1  0.44804000  0.92131600  0.36241900  1
  O  O49  1  0.55213200  0.92382200  0.63695500  1
  O  O50  1  0.45085000  0.31222200  0.13059000  1
  O  O51  1  0.54852200  0.31219100  0.87208900  1
  O  O52  1  0.95085000  0.81222200  0.13059000  1
  O  O53  1  0.04852200  0.81219100  0.87208900  1
  O  O54  1  0.95086100  0.68773600  0.13050000  1
  O  O55  1  0.04781400  0.68770500  0.87200900  1
  O  O56  1  0.45086100  0.18773600  0.13050000  1
  O  O57  1  0.99928300  0.55558200  0.59194900  1
  O  O58  1  0.54781400  0.18770500  0.87200900  1
  O  O59  1  0.55396200  0.68750600  0.02254100  1
  O  O60  1  0.44672400  0.68867900  0.97474500  1
  O  O61  1  0.05396200  0.18750600  0.02254100  1
  O  O62  1  0.94672400  0.18867900  0.97474500  1
  O  O63  1  0.05432200  0.31183300  0.02252000  1
  O  O64  1  0.94709200  0.31299700  0.97488200  1
  O  O65  1  0.55432200  0.81183300  0.02252000  1
  O  O66  1  0.44709200  0.81299700  0.97488200  1
  O  O67  1  0.71943600  0.44223500  0.67911100  1
  O  O68  1  0.49901300  0.05270800  0.40985900  1
  O  O69  1  0.28084400  0.44107800  0.32044900  1
  O  O70  1  0.21943600  0.94223500  0.67911100  1
  O  O71  1  0.78084400  0.94107800  0.32044900  1
  O  O72  1  0.72096300  0.61699300  0.77836200  1
  O  O73  1  0.27841100  0.61603400  0.22245400  1
  O  O74  1  0.22096300  0.11699300  0.77836200  1
  O  O75  1  0.77841100  0.11603400  0.22245400  1
  O  O76  1  0.78042000  0.56085800  0.81669800  1
  O  O77  1  0.21927100  0.55942400  0.18366400  1
  O  O78  1  0.28042000  0.06085800  0.81669800  1
  O  O79  1  0.49928300  0.05558200  0.59194900  1
  O  O80  1  0.71927100  0.05942400  0.18366400  1
  O  O81  1  0.72584900  0.44299000  0.87375800  1
  O  O82  1  0.27446500  0.44220200  0.12576900  1
  O  O83  1  0.22584900  0.94299000  0.87375800  1
  O  O84  1  0.77446500  0.94220200  0.12576900  1
  O  O85  1  0.77890000  0.38615100  0.71747900  1
  O  O86  1  0.22169700  0.38451800  0.28162700  1
  O  O87  1  0.27890000  0.88615100  0.71747900  1
  O  O88  1  0.72169700  0.88451800  0.28162700  1
  O  O89  1  0.05049200  0.57914600  0.26343400  1
  O  O90  1  0.93802500  0.44999200  0.55924600  1
  O  O91  1  0.94944800  0.58146800  0.73728000  1
  O  O92  1  0.55049200  0.07914600  0.26343400  1
  O  O93  1  0.44944800  0.08146800  0.73728000  1
  O  O94  1  0.05049700  0.57879600  0.13880500  1
  O  O95  1  0.94963300  0.58049400  0.86154600  1
  O  O96  1  0.55049700  0.07879600  0.13880500  1
  O  O97  1  0.44963300  0.08049400  0.86154600  1
  O  O98  1  0.94829700  0.42082800  0.23753900  1
  O  O99  1  0.05165800  0.42214100  0.76183100  1
  O  O100  1  0.44829700  0.92082800  0.23753900  1
