# generated using pymatgen
data_Zn3H12(C3O2)8
_symmetry_space_group_name_H-M   'P 1'
_cell_length_a   18.60258300
_cell_length_b   18.60252700
_cell_length_c   32.26149200
_cell_angle_alpha   90.00000000
_cell_angle_beta   90.00000000
_cell_angle_gamma   90.00000000
_symmetry_Int_Tables_number   1
_chemical_formula_structural   Zn3H12(C3O2)8
_chemical_formula_sum   'Zn12 H48 C96 O64'
_cell_volume   11164.25230867
_cell_formula_units_Z   4
loop_
 _symmetry_equiv_pos_site_id
 _symmetry_equiv_pos_as_xyz
  1  'x, y, z'
loop_
 _atom_site_type_symbol
 _atom_site_label
 _atom_site_symmetry_multiplicity
 _atom_site_fract_x
 _atom_site_fract_y
 _atom_site_fract_z
 _atom_site_occupancy
  Zn  Zn1  1  0.91846100  0.50001600  0.50000200  1
  Zn  Zn2  1  0.50000000  0.91846700  0.50000100  1
  Zn  Zn3  1  0.08149200  0.49994200  0.50000100  1
  Zn  Zn4  1  0.49995500  0.08149900  0.50000000  1
  Zn  Zn5  1  0.41847800  0.00014100  0.99999800  1
  Zn  Zn6  1  0.00015400  0.41846600  0.99991700  1
  Zn  Zn7  1  0.58151100  0.99981700  0.99999900  1
  Zn  Zn8  1  0.99983100  0.58149800  0.00008600  1
  Zn  Zn9  1  0.99989900  0.99997600  0.45300200  1
  Zn  Zn10  1  0.00005400  0.99998200  0.54699600  1
  Zn  Zn11  1  0.49991000  0.50006100  0.95300300  1
  Zn  Zn12  1  0.50007400  0.49989700  0.04699700  1
  H  H1  1  0.17507400  0.44574600  0.32824400  1
  H  H2  1  0.14942400  0.50293900  0.28559400  1
  H  H3  1  0.19635200  0.41959100  0.27554100  1
  H  H4  1  0.55365700  0.17665100  0.32766700  1
  H  H5  1  0.49651700  0.15059700  0.28507500  1
  H  H6  1  0.57990900  0.19737300  0.27490600  1
  H  H7  1  0.82331300  0.55282400  0.32750400  1
  H  H8  1  0.84941200  0.49532900  0.28508000  1
  H  H9  1  0.80258400  0.57860100  0.27466700  1
  H  H10  1  0.44637600  0.82494800  0.32807800  1
  H  H11  1  0.50395400  0.85058000  0.28559700  1
  H  H12  1  0.42067200  0.80369400  0.27529800  1
  H  H13  1  0.82495300  0.44699000  0.67189300  1
  H  H14  1  0.85053300  0.50452700  0.71440400  1
  H  H15  1  0.80369700  0.42120100  0.72465900  1
  H  H16  1  0.44636300  0.17507000  0.67172900  1
  H  H17  1  0.50351900  0.14947300  0.71440600  1
  H  H18  1  0.42012800  0.19635000  0.72441800  1
  H  H19  1  0.17657400  0.55445600  0.67235200  1
  H  H20  1  0.15055300  0.49726100  0.71492700  1
  H  H21  1  0.19729100  0.58066500  0.72512100  1
  H  H22  1  0.55363100  0.82339000  0.67251300  1
  H  H23  1  0.49608500  0.84945600  0.71492100  1
  H  H24  1  0.57936900  0.80266700  0.72535800  1
  H  H25  1  0.67508000  0.94636000  0.82826800  1
  H  H26  1  0.64948200  0.00351300  0.78559000  1
  H  H27  1  0.69635800  0.92012100  0.77557900  1
  H  H28  1  0.05353800  0.67720200  0.82774600  1
  H  H29  1  0.99640000  0.65118000  0.78514700  1
  H  H30  1  0.07976500  0.69801300  0.77499300  1
  H  H31  1  0.32340200  0.05363100  0.82748800  1
  H  H32  1  0.34946500  0.99608100  0.78508200  1
  H  H33  1  0.30267700  0.07936500  0.77464400  1
  H  H34  1  0.94645300  0.32544100  0.82800300  1
  H  H35  1  0.00400300  0.35116600  0.78552800  1
  H  H36  1  0.92074600  0.30424500  0.77521600  1
  H  H37  1  0.32495700  0.94637600  0.17191800  1
  H  H38  1  0.35058700  0.00395100  0.21440100  1
  H  H39  1  0.30370100  0.92066800  0.22469700  1
  H  H40  1  0.94624000  0.67451700  0.17180600  1
  H  H41  1  0.00339800  0.64889000  0.21447700  1
  H  H42  1  0.91997800  0.69570800  0.22450300  1
  H  H43  1  0.67666000  0.05365500  0.17233500  1
  H  H44  1  0.65060300  0.99651200  0.21492600  1
  H  H45  1  0.69737900  0.07990300  0.22509700  1
  H  H46  1  0.05370900  0.32289700  0.17243800  1
  H  H47  1  0.99613500  0.34886800  0.21485200  1
  H  H48  1  0.07944500  0.30211600  0.22527500  1
  C  C1  1  0.99850800  0.35942000  0.50029100  1
  C  C2  1  0.64053600  0.99862300  0.49982600  1
  C  C3  1  0.00144600  0.64053700  0.49971000  1
  C  C4  1  0.35941700  0.00134200  0.50017300  1
  C  C5  1  0.50110000  0.85941700  0.99982800  1
  C  C6  1  0.14055300  0.49887500  0.99982700  1
  C  C7  1  0.49888800  0.14053900  0.00017200  1
  C  C8  1  0.85943100  0.50108900  0.00017400  1
  C  C9  1  0.99857900  0.49960200  0.41901800  1
  C  C10  1  0.49981400  0.00138100  0.41901700  1
  C  C11  1  0.00137600  0.50035200  0.58098300  1
  C  C12  1  0.50013800  0.99858500  0.58098200  1
  C  C13  1  0.49859800  0.00014000  0.91901700  1
  C  C14  1  0.99982700  0.50163700  0.91902000  1
  C  C15  1  0.50139100  0.99981300  0.08098200  1
  C  C16  1  0.00015300  0.49832800  0.08098200  1
  C  C17  1  0.04442700  0.45272900  0.22872000  1
  C  C18  1  0.54674900  0.04498900  0.22859100  1
  C  C19  1  0.95499000  0.54513100  0.22845600  1
  C  C20  1  0.45429400  0.95560500  0.22858400  1
  C  C21  1  0.95559200  0.45486600  0.77139900  1
  C  C22  1  0.45331600  0.04444000  0.77126200  1
  C  C23  1  0.04492400  0.54737000  0.77142800  1
  C  C24  1  0.54576800  0.95505600  0.77156100  1
  C  C25  1  0.54444500  0.95330700  0.72873700  1
  C  C26  1  0.04667400  0.54567200  0.72860800  1
  C  C27  1  0.45506100  0.04576100  0.72843800  1
  C  C28  1  0.95427000  0.45623600  0.72856900  1
  C  C29  1  0.45561000  0.95428800  0.27141400  1
  C  C30  1  0.95323800  0.54375500  0.27127900  1
  C  C31  1  0.54499400  0.04674200  0.27140900  1
  C  C32  1  0.04574300  0.45442400  0.27154600  1
  C  C33  1  0.99981300  0.49884800  0.20725000  1
  C  C34  1  0.50063300  0.00018900  0.20725000  1
  C  C35  1  0.00015500  0.50119800  0.79275100  1
  C  C36  1  0.49943100  0.99984800  0.79274900  1
  C  C37  1  0.49985200  0.99942200  0.70725000  1
  C  C38  1  0.00058200  0.50087000  0.70725100  1
  C  C39  1  0.50019300  0.00062600  0.29275000  1
  C  C40  1  0.99937800  0.49916600  0.29275000  1
  C  C41  1  0.99999000  0.49865400  0.16276800  1
  C  C42  1  0.50086500  0.99999300  0.16276800  1
  C  C43  1  0.99998200  0.50134200  0.83723300  1
  C  C44  1  0.49915300  0.00000200  0.83723100  1
  C  C45  1  0.50000300  0.99914100  0.66276800  1
  C  C46  1  0.00083600  0.50068000  0.66276900  1
  C  C47  1  0.49999500  0.00085600  0.33723100  1
  C  C48  1  0.99912100  0.49931300  0.33723200  1
  C  C49  1  0.99888300  0.49944200  0.37456700  1
  C  C50  1  0.49988100  0.00108000  0.37456600  1
  C  C51  1  0.00107200  0.50052700  0.62543500  1
  C  C52  1  0.50008900  0.99889200  0.62543400  1
  C  C53  1  0.49890500  0.00009000  0.87456500  1
  C  C54  1  0.99988400  0.50147100  0.87456800  1
  C  C55  1  0.50109000  0.99988000  0.12543400  1
  C  C56  1  0.00009300  0.49850000  0.12543400  1
  C  C57  1  0.99878700  0.28230800  0.50047100  1
  C  C58  1  0.71764800  0.99894800  0.49965600  1
  C  C59  1  0.00116700  0.71764900  0.49952800  1
  C  C60  1  0.28230600  0.00101600  0.50034200  1
  C  C61  1  0.50065500  0.78230700  0.99965800  1
  C  C62  1  0.21766300  0.49932000  0.99965800  1
  C  C63  1  0.49933300  0.21765000  0.00034200  1
  C  C64  1  0.78232000  0.50064300  0.00034300  1
  C  C65  1  0.99903800  0.21754200  0.50062300  1
  C  C66  1  0.78241300  0.99920500  0.49949100  1
  C  C67  1  0.00091500  0.78241500  0.49937600  1
  C  C68  1  0.21754100  0.00075700  0.50050700  1
  C  C69  1  0.50034200  0.71754200  0.99949300  1
  C  C70  1  0.28242800  0.49963100  0.99949300  1
  C  C71  1  0.49964400  0.28241400  0.00050700  1
  C  C72  1  0.71755600  0.50033000  0.00050800  1
  C  C73  1  0.14043000  0.00047300  0.50072500  1
  C  C74  1  0.99936300  0.14043000  0.50080300  1
  C  C75  1  0.85952400  0.99948600  0.49927400  1
  C  C76  1  0.00059000  0.85952700  0.49919500  1
  C  C77  1  0.64044500  0.50005500  0.00072500  1
  C  C78  1  0.50006700  0.64043200  0.99927600  1
  C  C79  1  0.35953800  0.49990400  0.99927600  1
  C  C80  1  0.49991700  0.35952500  0.00072400  1
  C  C81  1  0.15609800  0.44633200  0.29566400  1
  C  C82  1  0.55311300  0.15734100  0.29515100  1
  C  C83  1  0.84262900  0.55200800  0.29499200  1
  C  C84  1  0.44725600  0.84393100  0.29550100  1
  C  C85  1  0.84392400  0.44783800  0.70447300  1
  C  C86  1  0.44692000  0.15610700  0.70431200  1
  C  C87  1  0.15726900  0.55387000  0.70486800  1
  C  C88  1  0.55277500  0.84270200  0.70502600  1
  C  C89  1  0.65611500  0.94691500  0.79568600  1
  C  C90  1  0.05299400  0.65793900  0.79522200  1
  C  C91  1  0.34271200  0.05277300  0.79497500  1
  C  C92  1  0.94731200  0.34447000  0.79543500  1
  C  C93  1  0.34393800  0.94725300  0.20449500  1
  C  C94  1  0.94679800  0.65550700  0.20438000  1
  C  C95  1  0.65734900  0.05310800  0.20485000  1
  C  C96  1  0.05283300  0.34216200  0.20495900  1
  O  O1  1  0.93630000  0.39254900  0.49924100  1
  O  O2  1  0.60745000  0.93639300  0.50088800  1
  O  O3  1  0.06365300  0.60740800  0.50079600  1
  O  O4  1  0.39250500  0.06357300  0.49914700  1
  O  O5  1  0.06051100  0.39302400  0.50116200  1
  O  O6  1  0.39306300  0.93936300  0.50107200  1
  O  O7  1  0.93944400  0.60693300  0.49880700  1
  O  O8  1  0.60689100  0.06060100  0.49889500  1
  O  O9  1  0.43917800  0.89316400  0.99892800  1
  O  O10  1  0.10757000  0.43658600  0.00082500  1
  O  O11  1  0.56081000  0.10679200  0.00110300  1
  O  O12  1  0.89241400  0.56337900  0.99921200  1
  O  O13  1  0.56338700  0.89240000  0.00085300  1
  O  O14  1  0.89317800  0.43916300  0.00101000  1
  O  O15  1  0.43660200  0.10755700  0.99911100  1
  O  O16  1  0.10680600  0.56080100  0.99895900  1
  O  O17  1  0.93635600  0.49804100  0.43810900  1
  O  O18  1  0.50147500  0.93939200  0.43840200  1
  O  O19  1  0.06056800  0.50127300  0.43840000  1
  O  O20  1  0.49815600  0.06360300  0.43810600  1
  O  O21  1  0.06359600  0.50201700  0.56189300  1
  O  O22  1  0.50190000  0.93636400  0.56189400  1
  O  O23  1  0.93938800  0.49858700  0.56160200  1
  O  O24  1  0.49838300  0.06057100  0.56159800  1
  O  O25  1  0.43638000  0.00200400  0.93810500  1
  O  O26  1  0.00158800  0.43959200  0.93834100  1
  O  O27  1  0.56058000  0.99828500  0.93840100  1
  O  O28  1  0.99806700  0.56379700  0.93817200  1
  O  O29  1  0.56361000  0.99805400  0.06189400  1
  O  O30  1  0.00201700  0.43616900  0.06183000  1
  O  O31  1  0.43940600  0.00157500  0.06159700  1
  O  O32  1  0.99829800  0.56037000  0.06166100  1
  O  O33  1  0.10675300  0.99871300  0.46500000  1
  O  O34  1  0.99777500  0.10679500  0.46506300  1
  O  O35  1  0.89258100  0.99785000  0.46337900  1
  O  O36  1  0.99867900  0.89262500  0.46331700  1
  O  O37  1  0.89320000  0.00128500  0.53499800  1
  O  O38  1  0.00131400  0.10733200  0.53668000  1
  O  O39  1  0.10737300  0.00206800  0.53662000  1
  O  O40  1  0.00213900  0.89316200  0.53493600  1
  O  O41  1  0.60675800  0.50176900  0.96500300  1
  O  O42  1  0.49822800  0.60738700  0.96338000  1
  O  O43  1  0.39258300  0.50170300  0.96338000  1
  O  O44  1  0.49824200  0.39321200  0.96500200  1
  O  O45  1  0.39322600  0.49822800  0.03499800  1
  O  O46  1  0.50178200  0.60674400  0.03499800  1
  O  O47  1  0.60740000  0.49821400  0.03662000  1
  O  O48  1  0.50171700  0.39256900  0.03662000  1
  O  O49  1  0.09071000  0.40968700  0.29301100  1
  O  O50  1  0.58972300  0.09190600  0.29274200  1
  O  O51  1  0.90804100  0.58864000  0.29248000  1
  O  O52  1  0.41066600  0.90933800  0.29274800  1
  O  O53  1  0.90935200  0.41128600  0.70721800  1
  O  O54  1  0.41031500  0.09069600  0.70695700  1
  O  O55  1  0.09181700  0.59044800  0.70729300  1
  O  O56  1  0.58937400  0.90813200  0.70755200  1
  O  O57  1  0.59070400  0.91031000  0.79304200  1
  O  O58  1  0.08963800  0.59252600  0.79277800  1
  O  O59  1  0.40814200  0.08937000  0.79244700  1
  O  O60  1  0.91068200  0.40985800  0.79271500  1
  O  O61  1  0.40934400  0.91066300  0.20724900  1
  O  O62  1  0.91022700  0.59007300  0.20699100  1
  O  O63  1  0.59191300  0.08971900  0.20726000  1
  O  O64  1  0.08939000  0.40761100  0.20751900  1
