# generated using pymatgen
data_ZnH18C27(NO2)4
_symmetry_space_group_name_H-M   'P 1'
_cell_length_a   10.00692500
_cell_length_b   11.24661600
_cell_length_c   27.65843400
_cell_angle_alpha   89.98000600
_cell_angle_beta   80.78174700
_cell_angle_gamma   92.44733400
_symmetry_Int_Tables_number   1
_chemical_formula_structural   ZnH18C27(NO2)4
_chemical_formula_sum   'Zn2 H36 C54 N8 O16'
_cell_volume   3069.70704193
_cell_formula_units_Z   2
loop_
 _symmetry_equiv_pos_site_id
 _symmetry_equiv_pos_as_xyz
  1  'x, y, z'
loop_
 _atom_site_type_symbol
 _atom_site_label
 _atom_site_symmetry_multiplicity
 _atom_site_fract_x
 _atom_site_fract_y
 _atom_site_fract_z
 _atom_site_occupancy
  Zn  Zn1  1  0.37082500  0.51670800  0.50775600  1
  Zn  Zn2  1  0.67310300  0.47481300  0.48957100  1
  H  H1  1  0.73327600  0.54975900  0.63750600  1
  H  H2  1  0.66729100  0.36600700  0.33917500  1
  H  H3  1  0.74398300  0.55185200  0.72469900  1
  H  H4  1  0.67265200  0.35936700  0.25076200  1
  H  H5  1  0.38885400  0.63295800  0.26076300  1
  H  H6  1  0.33099800  0.42822000  0.75602100  1
  H  H7  1  0.68430500  0.76147400  0.11071200  1
  H  H8  1  0.47616100  0.20134400  0.88088100  1
  H  H9  1  0.69142600  0.76523400  0.02575700  1
  H  H10  1  0.47482000  0.19645400  0.96555600  1
  H  H11  1  0.62859600  0.78357600  0.95897300  1
  H  H12  1  0.40309900  0.21385500  0.03918600  1
  H  H13  1  0.64384400  0.09101400  0.49223100  1
  H  H14  1  0.40006800  0.90051700  0.50514600  1
  H  H15  1  0.33465800  0.10422800  0.50733300  1
  H  H16  1  0.70926900  0.88729900  0.48989700  1
  H  H17  1  0.13806900  0.42125000  0.46864100  1
  H  H18  1  0.90510000  0.56703200  0.53002900  1
  H  H19  1  0.12542300  0.60489800  0.54444700  1
  H  H20  1  0.91895000  0.38843200  0.45220000  1
  H  H21  1  0.59860400  0.88357600  0.88542600  1
  H  H22  1  0.75516800  0.01504400  0.84298300  1
  H  H23  1  0.88066800  0.94994200  0.79768500  1
  H  H24  1  0.91332300  0.97017400  0.85963500  1
  H  H25  1  0.30079400  0.15110700  0.12038100  1
  H  H26  1  0.32853100  0.96726200  0.15177200  1
  H  H27  1  0.47749700  0.95370600  0.18020200  1
  H  H28  1  0.48538400  0.92328400  0.11563800  1
  H  H29  1  0.40454500  0.70672500  0.38415700  1
  H  H30  1  0.20421100  0.79560400  0.41169900  1
  H  H31  1  0.07249100  0.67878700  0.41863300  1
  H  H32  1  0.08226200  0.78786400  0.37010700  1
  H  H33  1  0.29818200  0.35055000  0.63556600  1
  H  H34  1  0.07154900  0.35880500  0.63084000  1
  H  H35  1  0.03196900  0.51430700  0.63150200  1
  H  H36  1  0.97011100  0.42050600  0.68406300  1
  C  C1  1  0.57460900  0.72573100  0.49705800  1
  C  C2  1  0.46932100  0.26579000  0.50024000  1
  C  C3  1  0.52303800  0.49039100  0.59334800  1
  C  C4  1  0.52090800  0.50093900  0.40406400  1
  C  C5  1  0.57190100  0.59494500  0.81936200  1
  C  C6  1  0.48681300  0.39416500  0.17753000  1
  C  C7  1  0.52028100  0.38995000  0.82295900  1
  C  C8  1  0.58544800  0.58707100  0.17148500  1
  C  C9  1  0.41856100  0.45672800  0.72978800  1
  C  C10  1  0.44727900  0.57250800  0.27846800  1
  C  C11  1  0.41082700  0.45480100  0.68030300  1
  C  C12  1  0.44154800  0.57594500  0.32879000  1
  C  C13  1  0.64381800  0.52262200  0.66305900  1
  C  C14  1  0.60503800  0.42486900  0.32243200  1
  C  C15  1  0.64989700  0.52517900  0.71246900  1
  C  C16  1  0.60738600  0.42012300  0.27254700  1
  C  C17  1  0.53724800  0.49222100  0.74605300  1
  C  C18  1  0.52878900  0.49418500  0.25040000  1
  C  C19  1  0.54999400  0.49252900  0.89657100  1
  C  C20  1  0.54222600  0.48831700  0.09853900  1
  C  C21  1  0.57871200  0.59661000  0.86943900  1
  C  C22  1  0.49169000  0.38979400  0.12678700  1
  C  C23  1  0.60949800  0.70035800  0.89338600  1
  C  C24  1  0.44385900  0.29081600  0.10369100  1
  C  C25  1  0.52116800  0.38914100  0.87280900  1
  C  C26  1  0.58947200  0.58681500  0.12136400  1
  C  C27  1  0.52480900  0.48825900  0.64643100  1
  C  C28  1  0.52192100  0.50166200  0.35094900  1
  C  C29  1  0.59095600  0.59086200  0.02067400  1
  C  C30  1  0.51377600  0.38694200  0.97377600  1
  C  C31  1  0.50263500  0.38846500  0.02491300  1
  C  C32  1  0.58399200  0.59412800  0.97047400  1
  C  C33  1  0.54542800  0.48912500  0.04794300  1
  C  C34  1  0.54949000  0.49121100  0.94701900  1
  C  C35  1  0.64375200  0.68687700  0.04438800  1
  C  C36  1  0.49141000  0.28286100  0.94850200  1
  C  C37  1  0.64268800  0.68457700  0.09397500  1
  C  C38  1  0.49505700  0.28431900  0.89878400  1
  C  C39  1  0.60984800  0.69861600  0.94304700  1
  C  C40  1  0.44788000  0.29163300  0.05380500  1
  C  C41  1  0.60443900  0.85457600  0.49539600  1
  C  C42  1  0.43948600  0.13694500  0.50189500  1
  C  C43  1  0.50542300  0.93154600  0.49988300  1
  C  C44  1  0.53849500  0.05997400  0.49746100  1
  C  C45  1  0.94858700  0.50419000  0.50287700  1
  C  C46  1  0.09486400  0.48529700  0.49531500  1
  C  C47  1  0.77429300  0.82619600  0.85006700  1
  C  C48  1  0.83411000  0.94799800  0.83687600  1
  C  C49  1  0.48242300  0.10711300  0.13451400  1
  C  C50  1  0.44043100  0.98009900  0.14622100  1
  C  C51  1  0.23089400  0.65616200  0.35824600  1
  C  C52  1  0.14242600  0.73451600  0.39182900  1
  C  C53  1  0.18028300  0.47150000  0.67546200  1
  C  C54  1  0.05611400  0.43900400  0.65402400  1
  N  N1  1  0.54396300  0.49223300  0.79723900  1
  N  N2  1  0.53403700  0.49175400  0.19858400  1
  N  N3  1  0.87166900  0.44669000  0.47734400  1
  N  N4  1  0.17225800  0.54480500  0.52004300  1
  N  N5  1  0.64133500  0.80986700  0.86835400  1
  N  N6  1  0.38892000  0.18761100  0.12988800  1
  N  N7  1  0.36694400  0.66495300  0.35577600  1
  N  N8  1  0.29149100  0.40625300  0.66527300  1
  O  O1  1  0.44760500  0.68663100  0.50444900  1
  O  O2  1  0.59632300  0.30488400  0.49305100  1
  O  O3  1  0.67694900  0.65508700  0.49055500  1
  O  O4  1  0.36698300  0.33644100  0.50657700  1
  O  O5  1  0.40864900  0.50820800  0.57748700  1
  O  O6  1  0.63530500  0.48276700  0.41983300  1
  O  O7  1  0.63769400  0.47673800  0.56376900  1
  O  O8  1  0.40618300  0.51534200  0.43354400  1
  O  O9  1  0.58785100  0.69564300  0.79253200  1
  O  O10  1  0.43182700  0.30335500  0.20666100  1
  O  O11  1  0.63416300  0.68231600  0.19348100  1
  O  O12  1  0.49672600  0.28803000  0.79977600  1
  O  O13  1  0.84648200  0.74106500  0.84420600  1
  O  O14  1  0.60218600  0.13801600  0.12912300  1
  O  O15  1  0.17909100  0.58360900  0.33333333  1
  O  O16  1  0.18074700  0.55804900  0.70198000  1
