# generated using pymatgen
data_ZnH13C29N3O4
_symmetry_space_group_name_H-M   'P 1'
_cell_length_a   17.46396300
_cell_length_b   8.54594900
_cell_length_c   14.99918400
_cell_angle_alpha   90.00000000
_cell_angle_beta   90.98422600
_cell_angle_gamma   90.00000000
_symmetry_Int_Tables_number   1
_chemical_formula_structural   ZnH13C29N3O4
_chemical_formula_sum   'Zn2 H26 C58 N6 O8'
_cell_volume   2238.23999813
_cell_formula_units_Z   2
loop_
 _symmetry_equiv_pos_site_id
 _symmetry_equiv_pos_as_xyz
  1  'x, y, z'
loop_
 _atom_site_type_symbol
 _atom_site_label
 _atom_site_symmetry_multiplicity
 _atom_site_fract_x
 _atom_site_fract_y
 _atom_site_fract_z
 _atom_site_occupancy
  Zn  Zn1  1  0.91494400  0.48971400  0.50643300  1
  Zn  Zn2  1  0.08505600  0.48971400  0.49356700  1
  H  H1  1  0.03144700  0.98967800  0.56208700  1
  H  H2  1  0.96855300  0.98967800  0.43791300  1
  H  H3  1  0.99514300  0.24080100  0.80097100  1
  H  H4  1  0.00486200  0.73864500  0.19900200  1
  H  H5  1  0.00485800  0.24080100  0.19902900  1
  H  H6  1  0.99513800  0.73864500  0.80099800  1
  H  H7  1  0.80896800  0.48974700  0.37116300  1
  H  H8  1  0.19103200  0.48974700  0.62883700  1
  H  H9  1  0.69405200  0.48750000  0.28775300  1
  H  H10  1  0.30594800  0.48750000  0.71224700  1
  H  H11  1  0.68682300  0.49171800  0.72821700  1
  H  H12  1  0.31317700  0.49171800  0.27178300  1
  H  H13  1  0.43249400  0.49810600  0.19639500  1
  H  H14  1  0.56750600  0.49810600  0.80360500  1
  H  H15  1  0.80714300  0.48994600  0.65114800  1
  H  H16  1  0.19285700  0.48994600  0.34885200  1
  H  H17  1  0.64181400  0.72470700  0.21372900  1
  H  H18  1  0.70584800  0.74837900  0.06973700  1
  H  H19  1  0.68054300  0.55510600  0.95133100  1
  H  H20  1  0.59065500  0.33890000  0.97684100  1
  H  H21  1  0.52643800  0.31505500  0.12079200  1
  H  H22  1  0.35818600  0.72470700  0.78627100  1
  H  H23  1  0.29415200  0.74837900  0.93026300  1
  H  H24  1  0.31945700  0.55510600  0.04866900  1
  H  H25  1  0.40934500  0.33890000  0.02315900  1
  H  H26  1  0.47356200  0.31505500  0.87920800  1
  C  C1  1  0.01081100  0.12925600  0.67575800  1
  C  C2  1  0.98918900  0.85014500  0.32422500  1
  C  C3  1  0.98918900  0.12925600  0.32424200  1
  C  C4  1  0.01081100  0.85014500  0.67577500  1
  C  C5  1  0.00049000  0.13021400  0.76670700  1
  C  C6  1  0.99951200  0.84922100  0.23327700  1
  C  C7  1  0.99951000  0.13021400  0.23329300  1
  C  C8  1  0.00048800  0.84922100  0.76672200  1
  C  C9  1  0.99925100  0.98972600  0.81312700  1
  C  C10  1  0.00074900  0.98972600  0.18687300  1
  C  C11  1  0.02066000  0.98969200  0.63233800  1
  C  C12  1  0.97934100  0.98969200  0.36766100  1
  C  C13  1  0.00212600  0.98973600  0.08918300  1
  C  C14  1  0.99787400  0.98973600  0.91081700  1
  C  C15  1  0.00703700  0.70806400  0.62176800  1
  C  C16  1  0.99296300  0.27131800  0.37826600  1
  C  C17  1  0.99296300  0.70806400  0.37823200  1
  C  C18  1  0.00703700  0.27131800  0.62173400  1
  C  C19  1  0.77699700  0.49052100  0.43220200  1
  C  C20  1  0.22300300  0.49052100  0.56779700  1
  C  C21  1  0.77603400  0.49079700  0.58821700  1
  C  C22  1  0.22396600  0.49079700  0.41178300  1
  C  C23  1  0.66033500  0.49542500  0.34708500  1
  C  C24  1  0.33966500  0.49542500  0.65291500  1
  C  C25  1  0.69818500  0.49388200  0.42843400  1
  C  C26  1  0.30181500  0.49388200  0.57156600  1
  C  C27  1  0.65775400  0.49543500  0.50599400  1
  C  C28  1  0.34224600  0.49543500  0.49400600  1
  C  C29  1  0.69678800  0.49314800  0.58653600  1
  C  C30  1  0.30321200  0.49314800  0.41346400  1
  C  C31  1  0.65649300  0.49324100  0.66478700  1
  C  C32  1  0.34350700  0.49324100  0.33521300  1
  C  C33  1  0.54173000  0.50336600  0.26175700  1
  C  C34  1  0.45827000  0.50336600  0.73824300  1
  C  C35  1  0.58107000  0.50111500  0.34302900  1
  C  C36  1  0.41893000  0.50111500  0.65697100  1
  C  C37  1  0.54048500  0.49925300  0.42149500  1
  C  C38  1  0.45951500  0.49925300  0.57850500  1
  C  C39  1  0.46283800  0.49685000  0.25981300  1
  C  C40  1  0.53716200  0.49685000  0.74018700  1
  C  C41  1  0.42260700  0.49537600  0.33802400  1
  C  C42  1  0.57739400  0.49537600  0.66197500  1
  C  C43  1  0.57887300  0.49757100  0.50283300  1
  C  C44  1  0.42112700  0.49757100  0.49716600  1
  C  C45  1  0.53854600  0.49774100  0.58111400  1
  C  C46  1  0.46145400  0.49774100  0.41888500  1
  C  C47  1  0.58141100  0.51621800  0.17696400  1
  C  C48  1  0.63106500  0.63889600  0.16204900  1
  C  C49  1  0.66673700  0.65268200  0.08112600  1
  C  C50  1  0.65242300  0.54459100  0.01469600  1
  C  C51  1  0.60189300  0.42357400  0.02894200  1
  C  C52  1  0.56581900  0.41034400  0.10966500  1
  C  C53  1  0.41858900  0.51621800  0.82303600  1
  C  C54  1  0.36893500  0.63889600  0.83795100  1
  C  C55  1  0.33326300  0.65268200  0.91887400  1
  C  C56  1  0.34757700  0.54459100  0.98530400  1
  C  C57  1  0.39810800  0.42357400  0.97105800  1
  C  C58  1  0.43418100  0.41034400  0.89033500  1
  N  N1  1  0.99911400  0.85365200  0.95592000  1
  N  N2  1  0.00088600  0.12582300  0.04408100  1
  N  N3  1  0.00088600  0.85365200  0.04408000  1
  N  N4  1  0.99911400  0.12582300  0.95591900  1
  N  N5  1  0.81470100  0.48979400  0.51125100  1
  N  N6  1  0.18529900  0.48979400  0.48874900  1
  O  O1  1  0.07034800  0.65897400  0.58524200  1
  O  O2  1  0.92962900  0.32041200  0.41477700  1
  O  O3  1  0.92965300  0.65897400  0.41475800  1
  O  O4  1  0.07037100  0.32041200  0.58522300  1
  O  O5  1  0.93907300  0.65308400  0.59977200  1
  O  O6  1  0.06094500  0.32630900  0.40024100  1
  O  O7  1  0.06092700  0.65308400  0.40022800  1
  O  O8  1  0.93905500  0.32630900  0.59975900  1
