# generated using pymatgen
data_CuH19C25N2O5
_symmetry_space_group_name_H-M   'P 1'
_cell_length_a   15.09003900
_cell_length_b   13.67509500
_cell_length_c   14.97096500
_cell_angle_alpha   90.00000000
_cell_angle_beta   90.00588700
_cell_angle_gamma   90.00000000
_symmetry_Int_Tables_number   1
_chemical_formula_structural   CuH19C25N2O5
_chemical_formula_sum   'Cu2 H38 C50 N4 O10'
_cell_volume   3089.37414056
_cell_formula_units_Z   2
loop_
 _symmetry_equiv_pos_site_id
 _symmetry_equiv_pos_as_xyz
  1  'x, y, z'
loop_
 _atom_site_type_symbol
 _atom_site_label
 _atom_site_symmetry_multiplicity
 _atom_site_fract_x
 _atom_site_fract_y
 _atom_site_fract_z
 _atom_site_occupancy
  Cu  Cu1  1  0.50009000  0.59661800  0.49941800  1
  Cu  Cu2  1  0.50056800  0.40102800  0.49993000  1
  H  H1  1  0.62426300  0.49551900  0.76953900  1
  H  H2  1  0.37584500  0.49842900  0.23016300  1
  H  H3  1  0.27287100  0.50218600  0.93850400  1
  H  H4  1  0.72722800  0.49930100  0.06115000  1
  H  H5  1  0.28688100  0.50073700  0.09867500  1
  H  H6  1  0.71314000  0.49660900  0.90097200  1
  H  H7  1  0.05982400  0.64660900  0.45150500  1
  H  H8  1  0.93435300  0.34450700  0.47172600  1
  H  H9  1  0.94111600  0.64914500  0.54038600  1
  H  H10  1  0.06598200  0.34623700  0.53452100  1
  H  H11  1  0.21969600  0.64757000  0.44620000  1
  H  H12  1  0.77654900  0.34507400  0.48675800  1
  H  H13  1  0.78126000  0.65066100  0.54631600  1
  H  H14  1  0.22378500  0.34582400  0.52022400  1
  H  H15  1  0.55572400  0.06845600  0.63212800  1
  H  H16  1  0.37947600  0.92983700  0.42407600  1
  H  H17  1  0.44264100  0.06778900  0.36968900  1
  H  H18  1  0.61802500  0.92924100  0.57915100  1
  H  H19  1  0.55850800  0.24534000  0.62770900  1
  H  H20  1  0.38376300  0.75311300  0.42141600  1
  H  H21  1  0.44028500  0.24459800  0.37314600  1
  H  H22  1  0.61352500  0.75236900  0.58071400  1
  H  H23  1  0.30215500  0.35591800  0.78435400  1
  H  H24  1  0.31199000  0.41149700  0.67474600  1
  H  H25  1  0.15788300  0.43775000  0.80724100  1
  H  H26  1  0.15689100  0.36734000  0.70614000  1
  H  H27  1  0.16789700  0.60170900  0.80293900  1
  H  H28  1  0.17548700  0.66499400  0.69807800  1
  H  H29  1  0.32107200  0.65923300  0.77635100  1
  H  H30  1  0.32256500  0.59591600  0.66973000  1
  H  H31  1  0.69345300  0.35296400  0.21960400  1
  H  H32  1  0.68497400  0.41247900  0.32761100  1
  H  H33  1  0.84024500  0.42896700  0.19534400  1
  H  H34  1  0.83867700  0.36141100  0.29808600  1
  H  H35  1  0.83560300  0.59299100  0.19561900  1
  H  H36  1  0.82916000  0.65966300  0.29877900  1
  H  H37  1  0.68407000  0.65700800  0.21931200  1
  H  H38  1  0.67983100  0.59721400  0.32747200  1
  C  C1  1  0.33058000  0.49782600  0.48483100  1
  C  C2  1  0.67007500  0.49934200  0.51489700  1
  C  C3  1  0.51703800  0.49912600  0.32877100  1
  C  C4  1  0.48340300  0.49880000  0.67071800  1
  C  C5  1  0.56499500  0.49692400  0.81006200  1
  C  C6  1  0.43511900  0.49880700  0.18961500  1
  C  C7  1  0.48349400  0.49883100  0.76868100  1
  C  C8  1  0.51671000  0.49952600  0.23088300  1
  C  C9  1  0.40687400  0.50140300  0.82088500  1
  C  C10  1  0.59332100  0.50116800  0.17872400  1
  C  C11  1  0.41409500  0.50023600  0.91347800  1
  C  C12  1  0.58601300  0.49972900  0.08616600  1
  C  C13  1  0.49643000  0.49884100  0.95373600  1
  C  C14  1  0.50363700  0.49916500  0.04592900  1
  C  C15  1  0.57162200  0.49768100  0.90179200  1
  C  C16  1  0.42844000  0.49943200  0.09788800  1
  C  C17  1  0.33876900  0.50119400  0.96658200  1
  C  C18  1  0.66132100  0.49906000  0.03306500  1
  C  C19  1  0.34618600  0.50030900  0.05817800  1
  C  C20  1  0.65386700  0.49748600  0.94149000  1
  C  C21  1  0.09460500  0.58026000  0.46875500  1
  C  C22  1  0.90304700  0.41195000  0.49172300  1
  C  C23  1  0.90625900  0.58199900  0.52629600  1
  C  C24  1  0.09747400  0.41237100  0.51135400  1
  C  C25  1  0.18601700  0.58069600  0.46424500  1
  C  C26  1  0.81209400  0.41225800  0.49950000  1
  C  C27  1  0.81486000  0.58286600  0.53112200  1
  C  C28  1  0.18842700  0.41216100  0.50401200  1
  C  C29  1  0.23345800  0.49677900  0.48262100  1
  C  C30  1  0.76722800  0.49813300  0.51694700  1
  C  C31  1  0.04919900  0.49660300  0.49451100  1
  C  C32  1  0.95150200  0.49695500  0.50438100  1
  C  C33  1  0.53180300  0.10498000  0.57293000  1
  C  C34  1  0.43349900  0.89298300  0.45734400  1
  C  C35  1  0.46690600  0.10464400  0.42862400  1
  C  C36  1  0.56417300  0.89270500  0.54539400  1
  C  C37  1  0.53218700  0.20580500  0.57118500  1
  C  C38  1  0.43500100  0.79217300  0.45696000  1
  C  C39  1  0.46688100  0.20546000  0.42978700  1
  C  C40  1  0.56263000  0.79188500  0.54513600  1
  C  C41  1  0.49938300  0.05280600  0.50085100  1
  C  C42  1  0.49907800  0.94484400  0.50112900  1
  C  C43  1  0.28540200  0.42068500  0.74311100  1
  C  C44  1  0.18571200  0.43276400  0.73883300  1
  C  C45  1  0.19590700  0.59809700  0.73452600  1
  C  C46  1  0.29611300  0.59512600  0.73860900  1
  C  C47  1  0.71202300  0.41840600  0.25912300  1
  C  C48  1  0.81198200  0.42689300  0.26368700  1
  C  C49  1  0.80692800  0.59250800  0.26381600  1
  C  C50  1  0.70671000  0.59318100  0.25888200  1
  N  N1  1  0.50105100  0.25469200  0.49967100  1
  N  N2  1  0.49977500  0.74295000  0.49965700  1
  N  N3  1  0.32099000  0.50691500  0.78353900  1
  N  N4  1  0.67932400  0.50455000  0.21610700  1
  O  O1  1  0.37208700  0.58206600  0.48524200  1
  O  O2  1  0.62844300  0.41544400  0.51447300  1
  O  O3  1  0.62876300  0.58334600  0.50798100  1
  O  O4  1  0.37201200  0.41406900  0.49137500  1
  O  O5  1  0.51450300  0.58317800  0.37058000  1
  O  O6  1  0.48581300  0.41459100  0.62890500  1
  O  O7  1  0.49190300  0.58265500  0.62925200  1
  O  O8  1  0.50902300  0.41517900  0.37024300  1
  O  O9  1  0.16349000  0.51603100  0.68882200  1
  O  O10  1  0.83641700  0.51069700  0.31183000  1
