# generated using pymatgen
data_ZnH21C23NO4
_symmetry_space_group_name_H-M   'P 1'
_cell_length_a   14.22099400
_cell_length_b   8.54481600
_cell_length_c   19.33731400
_cell_angle_alpha   90.00000000
_cell_angle_beta   91.00908700
_cell_angle_gamma   90.00000000
_symmetry_Int_Tables_number   1
_chemical_formula_structural   ZnH21C23NO4
_chemical_formula_sum   'Zn2 H42 C46 N2 O8'
_cell_volume   2349.42431932
_cell_formula_units_Z   2
loop_
 _symmetry_equiv_pos_site_id
 _symmetry_equiv_pos_as_xyz
  1  'x, y, z'
loop_
 _atom_site_type_symbol
 _atom_site_label
 _atom_site_symmetry_multiplicity
 _atom_site_fract_x
 _atom_site_fract_y
 _atom_site_fract_z
 _atom_site_occupancy
  Zn  Zn1  1  0.89595300  0.50209400  0.50815400  1
  Zn  Zn2  1  0.10404700  0.50209400  0.49184700  1
  H  H1  1  0.04614900  0.00202200  0.54703000  1
  H  H2  1  0.95385100  0.00202200  0.45297000  1
  H  H3  1  0.98995800  0.25250600  0.73028700  1
  H  H4  1  0.01004200  0.25250600  0.26971300  1
  H  H5  1  0.00456900  0.74985500  0.73178400  1
  H  H6  1  0.99543100  0.74985500  0.26821600  1
  H  H7  1  0.05944200  0.77448300  0.04633300  1
  H  H8  1  0.94055900  0.77448300  0.95366700  1
  H  H9  1  0.06574600  0.77602000  0.17149800  1
  H  H10  1  0.93425400  0.77602000  0.82850200  1
  H  H11  1  0.93811600  0.23125400  0.17022000  1
  H  H12  1  0.06188400  0.23125400  0.82978000  1
  H  H13  1  0.94281600  0.23339100  0.04546700  1
  H  H14  1  0.05718400  0.23339100  0.95453300  1
  H  H15  1  0.41150700  0.30861900  0.55975900  1
  H  H16  1  0.58849300  0.30861900  0.44024100  1
  H  H17  1  0.56831300  0.29790800  0.56293300  1
  H  H18  1  0.43168700  0.29790800  0.43706700  1
  H  H19  1  0.58937400  0.49170400  0.39494700  1
  H  H20  1  0.41062700  0.49170400  0.60505300  1
  H  H21  1  0.42809400  0.46784400  0.38344100  1
  H  H22  1  0.57190600  0.46784400  0.61655900  1
  H  H23  1  0.58496600  0.72641600  0.45539100  1
  H  H24  1  0.41503400  0.72641500  0.54461000  1
  H  H25  1  0.59734500  0.91066200  0.53695100  1
  H  H26  1  0.66887000  0.76024300  0.57219900  1
  H  H27  1  0.51091100  0.69188800  0.64277800  1
  H  H28  1  0.48406600  0.89180300  0.62009200  1
  H  H29  1  0.64115400  0.97272600  0.66753500  1
  H  H30  1  0.66198700  0.77278500  0.69491100  1
  H  H31  1  0.49878200  0.98373400  0.73951600  1
  H  H32  1  0.60146100  0.93148800  0.79091300  1
  H  H33  1  0.51745800  0.78230000  0.76563000  1
  H  H34  1  0.40265500  0.91066200  0.46304900  1
  H  H35  1  0.33113000  0.76024400  0.42780200  1
  H  H36  1  0.48908900  0.69188800  0.35722200  1
  H  H37  1  0.51593400  0.89180400  0.37990800  1
  H  H38  1  0.35884600  0.97272600  0.33246500  1
  H  H39  1  0.33801300  0.77278600  0.30509000  1
  H  H40  1  0.50121800  0.98373400  0.26048400  1
  H  H41  1  0.39853900  0.93148900  0.20908700  1
  H  H42  1  0.48254200  0.78230000  0.23437000  1
  C  C1  1  0.02064600  0.14126200  0.63552000  1
  C  C2  1  0.97935500  0.14126200  0.36448000  1
  C  C3  1  0.00323800  0.14183700  0.70542600  1
  C  C4  1  0.99676200  0.14183700  0.29457400  1
  C  C5  1  0.00251500  0.00207500  0.74225000  1
  C  C6  1  0.99748500  0.00207500  0.25775000  1
  C  C7  1  0.00776800  0.86161500  0.70610400  1
  C  C8  1  0.99223200  0.86161500  0.29389600  1
  C  C9  1  0.02142600  0.86274000  0.63567400  1
  C  C10  1  0.97857400  0.86274000  0.36432600  1
  C  C11  1  0.03384800  0.00203700  0.60182400  1
  C  C12  1  0.96615200  0.00203700  0.39817600  1
  C  C13  1  0.03328000  0.87511800  0.07386300  1
  C  C14  1  0.96672100  0.87511800  0.92613700  1
  C  C15  1  0.03587800  0.87610500  0.14523800  1
  C  C16  1  0.96412300  0.87610500  0.85476200  1
  C  C17  1  0.00232700  0.00391900  0.18148700  1
  C  C18  1  0.99767300  0.00391900  0.81851300  1
  C  C19  1  0.96886500  0.13206500  0.14457400  1
  C  C20  1  0.03113500  0.13206500  0.85542600  1
  C  C21  1  0.97012900  0.13311400  0.07333900  1
  C  C22  1  0.02987100  0.13311400  0.92666100  1
  C  C23  1  0.00087600  0.00385700  0.03777600  1
  C  C24  1  0.99912400  0.00385700  0.96222400  1
  C  C25  1  0.01486600  0.72059400  0.59400500  1
  C  C26  1  0.98513400  0.72059400  0.40599500  1
  C  C27  1  0.98541500  0.28332600  0.40617000  1
  C  C28  1  0.01458600  0.28332600  0.59383000  1
  C  C29  1  0.54625900  0.42212600  0.56618800  1
  C  C30  1  0.45374100  0.42212600  0.43381200  1
  C  C31  1  0.56008200  0.42949000  0.43999000  1
  C  C32  1  0.43991900  0.42949000  0.56001000  1
  C  C33  1  0.58897100  0.51154900  0.50686900  1
  C  C34  1  0.41102900  0.51154900  0.49313100  1
  C  C35  1  0.44597100  0.68133500  0.49682300  1
  C  C36  1  0.55402900  0.68133500  0.50317700  1
  C  C37  1  0.30824800  0.50594900  0.48756900  1
  C  C38  1  0.69175200  0.50594900  0.51243100  1
  C  C39  1  0.59506700  0.79149100  0.55958200  1
  C  C40  1  0.54128700  0.80467200  0.62691100  1
  C  C41  1  0.60721300  0.86228100  0.68397500  1
  C  C42  1  0.55247000  0.89182900  0.74923900  1
  C  C43  1  0.40493300  0.79149100  0.44041800  1
  C  C44  1  0.45871300  0.80467200  0.37308900  1
  C  C45  1  0.39278700  0.86228100  0.31602500  1
  C  C46  1  0.44753000  0.89182900  0.25076100  1
  N  N1  1  0.22692800  0.50257600  0.48491300  1
  N  N2  1  0.77307200  0.50257600  0.51508700  1
  O  O1  1  0.09102000  0.67133800  0.56360300  1
  O  O2  1  0.90898000  0.67133800  0.43639700  1
  O  O3  1  0.93060800  0.66558000  0.57935600  1
  O  O4  1  0.06939200  0.66558000  0.42064400  1
  O  O5  1  0.90902300  0.33260600  0.43647400  1
  O  O6  1  0.09097700  0.33260600  0.56352600  1
  O  O7  1  0.06951800  0.33878900  0.42058200  1
  O  O8  1  0.93048300  0.33878900  0.57941800  1
