# generated using pymatgen
data_ZnH23C22NO4
_symmetry_space_group_name_H-M   'P 1'
_cell_length_a   13.00155700
_cell_length_b   14.14987300
_cell_length_c   17.49237100
_cell_angle_alpha   89.71144400
_cell_angle_beta   90.25151000
_cell_angle_gamma   91.08956900
_symmetry_Int_Tables_number   1
_chemical_formula_structural   ZnH23C22NO4
_chemical_formula_sum   'Zn2 H46 C44 N2 O8'
_cell_volume   3217.42581062
_cell_formula_units_Z   2
loop_
 _symmetry_equiv_pos_site_id
 _symmetry_equiv_pos_as_xyz
  1  'x, y, z'
loop_
 _atom_site_type_symbol
 _atom_site_label
 _atom_site_symmetry_multiplicity
 _atom_site_fract_x
 _atom_site_fract_y
 _atom_site_fract_z
 _atom_site_occupancy
  Zn  Zn1  1  0.38347800  0.50613300  0.50474400  1
  Zn  Zn2  1  0.61653100  0.49288900  0.49623300  1
  H  H1  1  0.64583600  0.48414900  0.25169000  1
  H  H2  1  0.35420600  0.51422600  0.74945700  1
  H  H3  1  0.68180600  0.49370600  0.73861000  1
  H  H4  1  0.31836400  0.50596800  0.26228800  1
  H  H5  1  0.61415300  0.52800900  0.99845300  1
  H  H6  1  0.38609700  0.46944700  0.00264800  1
  H  H7  1  0.30971900  0.50168400  0.12369900  1
  H  H8  1  0.69051500  0.49703000  0.87721100  1
  H  H9  1  0.36306900  0.51972700  0.88636300  1
  H  H10  1  0.63707600  0.47770400  0.11481100  1
  H  H11  1  0.36172600  0.97690900  0.63560800  1
  H  H12  1  0.37301500  0.86492900  0.58827100  1
  H  H13  1  0.24991300  0.91723000  0.59618200  1
  H  H14  1  0.28586400  0.11473500  0.56415000  1
  H  H15  1  0.19219400  0.04001000  0.51981800  1
  H  H16  1  0.27512900  0.10963400  0.45982700  1
  H  H17  1  0.33376500  0.85052000  0.45536800  1
  H  H18  1  0.36174400  0.95054800  0.39298600  1
  H  H19  1  0.23510100  0.93129900  0.43172500  1
  H  H20  1  0.66738000  0.01695500  0.61666100  1
  H  H21  1  0.64549800  0.13081200  0.57387100  1
  H  H22  1  0.76861200  0.07846300  0.56539500  1
  H  H23  1  0.72562000  0.88252600  0.53393900  1
  H  H24  1  0.80724300  0.95927200  0.47994300  1
  H  H25  1  0.71101600  0.89174300  0.43000700  1
  H  H26  1  0.65369600  0.15092500  0.43858100  1
  H  H27  1  0.61005400  0.05379100  0.37849000  1
  H  H28  1  0.74425100  0.07099200  0.40083200  1
  H  H29  1  0.04160400  0.31191500  0.52528100  1
  H  H30  1  0.15325800  0.34411600  0.46846600  1
  H  H31  1  0.06682600  0.25376800  0.43617200  1
  H  H32  1  0.86895800  0.30437200  0.43609800  1
  H  H33  1  0.94053100  0.28620600  0.35077000  1
  H  H34  1  0.86438400  0.38893600  0.35658400  1
  H  H35  1  0.14276800  0.46385100  0.37349700  1
  H  H36  1  0.02086400  0.49922200  0.33411200  1
  H  H37  1  0.07316700  0.38562800  0.31177300  1
  H  H38  1  0.95730100  0.49211400  0.65411100  1
  H  H39  1  0.84610900  0.55671800  0.62174400  1
  H  H40  1  0.93213000  0.60859200  0.68960700  1
  H  H41  1  0.13035000  0.60360100  0.64793700  1
  H  H42  1  0.05939500  0.71015000  0.65214900  1
  H  H43  1  0.13613200  0.69056100  0.57006400  1
  H  H44  1  0.85779700  0.65885000  0.51413500  1
  H  H45  1  0.98018500  0.70279600  0.47940300  1
  H  H46  1  0.92829000  0.74494200  0.56804300  1
  C  C1  1  0.48380300  0.31513700  0.50285100  1
  C  C2  1  0.51618600  0.68388500  0.49815600  1
  C  C3  1  0.48870400  0.49798900  0.35099700  1
  C  C4  1  0.51132000  0.50106700  0.64998900  1
  C  C5  1  0.48289500  0.49628200  0.26723700  1
  C  C6  1  0.51718000  0.50256400  0.73376400  1
  C  C7  1  0.57141600  0.48894100  0.22438700  1
  C  C8  1  0.42867200  0.50943200  0.77669700  1
  C  C9  1  0.56631400  0.48650200  0.14566200  1
  C  C10  1  0.43384100  0.51139000  0.85543700  1
  C  C11  1  0.47221700  0.49212000  0.10852400  1
  C  C12  1  0.52798500  0.50583700  0.89251500  1
  C  C13  1  0.38388500  0.49815700  0.15163400  1
  C  C14  1  0.61630800  0.50042700  0.84932700  1
  C  C15  1  0.38894500  0.50068600  0.23033700  1
  C  C16  1  0.61119500  0.49837800  0.77061000  1
  C  C17  1  0.46140400  0.48866300  0.02458700  1
  C  C18  1  0.53884900  0.50886800  0.97647200  1
  C  C19  1  0.52484500  0.78511400  0.49802000  1
  C  C20  1  0.47510700  0.21390600  0.50379200  1
  C  C21  1  0.54243800  0.97207900  0.49956600  1
  C  C22  1  0.45763300  0.02690400  0.50551300  1
  C  C23  1  0.46814600  0.12870900  0.50449900  1
  C  C24  1  0.53177700  0.87030500  0.49852100  1
  C  C25  1  0.03178300  0.52917400  0.52034900  1
  C  C26  1  0.96821100  0.47091400  0.47916800  1
  C  C27  1  0.85812200  0.47853500  0.48571100  1
  C  C28  1  0.14186800  0.52080300  0.51464000  1
  C  C29  1  0.34790600  0.98732800  0.51257200  1
  C  C30  1  0.33289900  0.93299700  0.58745500  1
  C  C31  1  0.27188000  0.06843600  0.51398000  1
  C  C32  1  0.31846100  0.92595200  0.44407200  1
  C  C33  1  0.65226200  0.01169000  0.49357700  1
  C  C34  1  0.68473600  0.06292900  0.56664800  1
  C  C35  1  0.72734000  0.93081100  0.48372700  1
  C  C36  1  0.66524800  0.07597300  0.42378200  1
  C  C37  1  0.00599200  0.39517400  0.42467900  1
  C  C38  1  0.07114600  0.32236800  0.46640400  1
  C  C39  1  0.91380400  0.34120000  0.39061800  1
  C  C40  1  0.06461400  0.43894700  0.35740600  1
  C  C41  1  0.99397800  0.60531700  0.57444200  1
  C  C42  1  0.92809300  0.56278400  0.63845300  1
  C  C43  1  0.08612600  0.65449400  0.61291300  1
  C  C44  1  0.93618800  0.68200500  0.53119600  1
  N  N1  1  0.23038600  0.51498500  0.51066100  1
  N  N2  1  0.76961800  0.48400700  0.49026300  1
  O  O1  1  0.39916300  0.36394900  0.50546900  1
  O  O2  1  0.60085700  0.63508100  0.49552900  1
  O  O3  1  0.57603500  0.35396000  0.49916300  1
  O  O4  1  0.42395700  0.64506300  0.50185200  1
  O  O5  1  0.40291900  0.50342500  0.38991600  1
  O  O6  1  0.59711800  0.49561100  0.61106500  1
  O  O7  1  0.57958000  0.49337600  0.38360500  1
  O  O8  1  0.42040500  0.50564400  0.61738400  1
