# generated using pymatgen
data_ZnH13C20NO4
_symmetry_space_group_name_H-M   'P 1'
_cell_length_a   8.90612400
_cell_length_b   15.18244100
_cell_length_c   14.05310800
_cell_angle_alpha   90.00492600
_cell_angle_beta   97.66398000
_cell_angle_gamma   89.99786100
_symmetry_Int_Tables_number   1
_chemical_formula_structural   ZnH13C20NO4
_chemical_formula_sum   'Zn2 H26 C40 N2 O8'
_cell_volume   1883.24074120
_cell_formula_units_Z   2
loop_
 _symmetry_equiv_pos_site_id
 _symmetry_equiv_pos_as_xyz
  1  'x, y, z'
loop_
 _atom_site_type_symbol
 _atom_site_label
 _atom_site_symmetry_multiplicity
 _atom_site_fract_x
 _atom_site_fract_y
 _atom_site_fract_z
 _atom_site_occupancy
  Zn  Zn1  1  0.51715700  0.49013000  0.60923200  1
  Zn  Zn2  1  0.51303700  0.49536400  0.39195600  1
  H  H1  1  0.99324800  0.47279800  0.39225900  1
  H  H2  1  0.03661500  0.51814800  0.60671900  1
  H  H3  1  0.58972400  0.05694100  0.65118900  1
  H  H4  1  0.35143000  0.93157500  0.37776900  1
  H  H5  1  0.60987400  0.21395600  0.64511400  1
  H  H6  1  0.34756000  0.77196200  0.37957300  1
  H  H7  1  0.47177200  0.21041100  0.34252800  1
  H  H8  1  0.66459200  0.77012000  0.63466300  1
  H  H9  1  0.47420500  0.05102300  0.34503800  1
  H  H10  1  0.68552000  0.92868600  0.62784800  1
  H  H11  1  0.42854200  0.36497600  0.06365900  1
  H  H12  1  0.71434900  0.57288500  0.94709200  1
  H  H13  1  0.42432100  0.37244700  0.23542800  1
  H  H14  1  0.70762800  0.56670800  0.77326300  1
  H  H15  1  0.59891800  0.62799000  0.06992500  1
  H  H16  1  0.31528700  0.41457300  0.92155000  1
  H  H17  1  0.43628700  0.72977000  0.19018300  1
  H  H18  1  0.54124400  0.86714500  0.26382500  1
  H  H19  1  0.78540200  0.86554100  0.36895000  1
  H  H20  1  0.92867100  0.72721800  0.39536300  1
  H  H21  1  0.82816800  0.59139400  0.31622500  1
  H  H22  1  0.10944700  0.46859800  0.77354000  1
  H  H23  1  0.91101300  0.36927200  0.69675600  1
  H  H24  1  0.98103800  0.23018800  0.62452500  1
  H  H25  1  0.24952400  0.18783400  0.63556900  1
  H  H26  1  0.44539200  0.28617100  0.71779800  1
  C  C1  1  0.52713900  0.32055100  0.49470200  1
  C  C2  1  0.50481400  0.66464500  0.50661400  1
  C  C3  1  0.21900300  0.48766100  0.47544900  1
  C  C4  1  0.81104700  0.49862200  0.52551800  1
  C  C5  1  0.05298000  0.48655600  0.46297100  1
  C  C6  1  0.97680800  0.50184100  0.53705600  1
  C  C7  1  0.56728500  0.08856300  0.58204700  1
  C  C8  1  0.42474900  0.89763300  0.43325500  1
  C  C9  1  0.57333600  0.17907000  0.57936900  1
  C  C10  1  0.42027400  0.80684900  0.43482000  1
  C  C11  1  0.53429000  0.22396300  0.49433300  1
  C  C12  1  0.50480400  0.76080700  0.50764400  1
  C  C13  1  0.49971700  0.17676600  0.41034600  1
  C  C14  1  0.59538100  0.80585500  0.57845100  1
  C  C15  1  0.49831300  0.08574900  0.41233800  1
  C  C16  1  0.60568400  0.89639400  0.57463700  1
  C  C17  1  0.52858900  0.04062900  0.49865900  1
  C  C18  1  0.51991100  0.94348100  0.50209500  1
  C  C19  1  0.46438000  0.42508000  0.10106000  1
  C  C20  1  0.62467800  0.53657400  0.90493000  1
  C  C21  1  0.46412200  0.42876400  0.19910900  1
  C  C22  1  0.62248900  0.53181200  0.80646300  1
  C  C23  1  0.56390600  0.57123400  0.20332200  1
  C  C24  1  0.40742600  0.44225600  0.79352400  1
  C  C25  1  0.56221100  0.57008900  0.10504300  1
  C  C26  1  0.40524400  0.44742000  0.89106800  1
  C  C27  1  0.51421400  0.49629300  0.05284300  1
  C  C28  1  0.51504800  0.49370300  0.94828300  1
  C  C29  1  0.62067200  0.65064500  0.25437100  1
  C  C30  1  0.54296700  0.72881400  0.23696800  1
  C  C31  1  0.60189700  0.80591400  0.27822000  1
  C  C32  1  0.73898000  0.80506100  0.33678300  1
  C  C33  1  0.81884100  0.72743800  0.35204600  1
  C  C34  1  0.76066300  0.65056700  0.30974500  1
  C  C35  1  0.29097000  0.38794200  0.73930600  1
  C  C36  1  0.14035500  0.40841700  0.73989000  1
  C  C37  1  0.02902300  0.35248600  0.69738400  1
  C  C38  1  0.06820000  0.27438600  0.65719000  1
  C  C39  1  0.21857500  0.25103300  0.66258300  1
  C  C40  1  0.32918200  0.30714800  0.70542300  1
  N  N1  1  0.51455300  0.50078600  0.24965200  1
  N  N2  1  0.51572400  0.48448900  0.75157600  1
  O  O1  1  0.52715500  0.36026900  0.57763900  1
  O  O2  1  0.50357900  0.62531300  0.42333200  1
  O  O3  1  0.52006800  0.36324600  0.41293400  1
  O  O4  1  0.51148300  0.62226400  0.58863100  1
  O  O5  1  0.29177400  0.48744700  0.56307000  1
  O  O6  1  0.73823500  0.49831200  0.43815200  1
  O  O7  1  0.28725300  0.48922600  0.39813100  1
  O  O8  1  0.74298700  0.49633700  0.60299600  1
