# generated using pymatgen
data_CuH10C26N(O2F3)2
_symmetry_space_group_name_H-M   'P 1'
_cell_length_a   19.39340100
_cell_length_b   17.88743100
_cell_length_c   10.84551600
_cell_angle_alpha   90.00000000
_cell_angle_beta   90.01021600
_cell_angle_gamma   90.00000000
_symmetry_Int_Tables_number   1
_chemical_formula_structural   CuH10C26N(O2F3)2
_chemical_formula_sum   'Cu2 H20 C52 N2 O8 F12'
_cell_volume   3762.28907535
_cell_formula_units_Z   2
loop_
 _symmetry_equiv_pos_site_id
 _symmetry_equiv_pos_as_xyz
  1  'x, y, z'
loop_
 _atom_site_type_symbol
 _atom_site_label
 _atom_site_symmetry_multiplicity
 _atom_site_fract_x
 _atom_site_fract_y
 _atom_site_fract_z
 _atom_site_occupancy
  Cu  Cu1  1  0.49996600  0.57471700  0.50065200  1
  Cu  Cu2  1  0.49929600  0.42529000  0.50122800  1
  H  H1  1  0.27228700  0.43804800  0.11303000  1
  H  H2  1  0.72708700  0.56149500  0.88862900  1
  H  H3  1  0.27229400  0.43888400  0.88699300  1
  H  H4  1  0.72705700  0.56068500  0.11465000  1
  H  H5  1  0.62362700  0.53232800  0.22736700  1
  H  H6  1  0.37564400  0.46759700  0.77440800  1
  H  H7  1  0.62360900  0.53415400  0.77530000  1
  H  H8  1  0.37561500  0.46569500  0.22645100  1
  H  H9  1  0.93651900  0.43768100  0.33234700  1
  H  H10  1  0.06277700  0.56214100  0.66757800  1
  H  H11  1  0.06217100  0.43726700  0.33207500  1
  H  H12  1  0.93711000  0.56274100  0.66777000  1
  H  H13  1  0.42369500  0.69371200  0.36253400  1
  H  H14  1  0.57753500  0.30636400  0.63576700  1
  H  H15  1  0.57964900  0.69332700  0.63199900  1
  H  H16  1  0.42227800  0.30659100  0.36485600  1
  H  H17  1  0.39274400  0.93089600  0.52276800  1
  H  H18  1  0.61004000  0.06921800  0.47370600  1
  H  H19  1  0.61111600  0.93300800  0.47205200  1
  H  H20  1  0.39168900  0.06705400  0.52421800  1
  C  C1  1  0.36662900  0.50037000  0.50125900  1
  C  C2  1  0.63245200  0.49961100  0.50060600  1
  C  C3  1  0.49940100  0.49963900  0.26412400  1
  C  C4  1  0.49973700  0.50040800  0.73788200  1
  C  C5  1  0.62047000  0.53266000  0.12810300  1
  C  C6  1  0.37878400  0.46739600  0.87366800  1
  C  C7  1  0.62049700  0.53356200  0.87455700  1
  C  C8  1  0.37872800  0.46644900  0.12719900  1
  C  C9  1  0.68007900  0.54874000  0.06473900  1
  C  C10  1  0.31920900  0.45111000  0.93695700  1
  C  C11  1  0.68009400  0.54921600  0.93827300  1
  C  C12  1  0.31920100  0.45061300  0.06341700  1
  C  C13  1  0.55973400  0.51734800  0.93725000  1
  C  C14  1  0.43946600  0.48283200  0.06463800  1
  C  C15  1  0.55969200  0.51696800  0.06510200  1
  C  C16  1  0.43951000  0.48322900  0.93680000  1
  C  C17  1  0.49965200  0.50042100  0.87305400  1
  C  C18  1  0.49954400  0.49971800  0.12890700  1
  C  C19  1  0.74534000  0.43335300  0.48793000  1
  C  C20  1  0.25381300  0.56659800  0.51251200  1
  C  C21  1  0.25404500  0.43376500  0.48827700  1
  C  C22  1  0.74512100  0.56618000  0.51207600  1
  C  C23  1  0.81646500  0.43378400  0.48780200  1
  C  C24  1  0.18272200  0.56621500  0.51198200  1
  C  C25  1  0.18295400  0.43387700  0.48728600  1
  C  C26  1  0.81622400  0.56610900  0.51246600  1
  C  C27  1  0.85236300  0.50002900  0.50028200  1
  C  C28  1  0.14682800  0.49998200  0.49938700  1
  C  C29  1  0.70866400  0.49967800  0.50018700  1
  C  C30  1  0.29046400  0.50025900  0.50076000  1
  C  C31  1  0.96392300  0.46451800  0.40700300  1
  C  C32  1  0.03533100  0.53544100  0.59282500  1
  C  C33  1  0.03502900  0.46430400  0.40683200  1
  C  C34  1  0.96421900  0.53570400  0.59296800  1
  C  C35  1  0.07115000  0.49986500  0.49965700  1
  C  C36  1  0.92807900  0.50017000  0.50007700  1
  C  C37  1  0.45810800  0.72399800  0.42292000  1
  C  C38  1  0.54314500  0.27604100  0.57542100  1
  C  C39  1  0.54513900  0.72379100  0.57205300  1
  C  C40  1  0.45646600  0.27614500  0.42549500  1
  C  C41  1  0.45805100  0.80107400  0.42078600  1
  C  C42  1  0.54415400  0.19895900  0.57595600  1
  C  C43  1  0.54675600  0.80089800  0.57195300  1
  C  C44  1  0.45576100  0.19905800  0.42414800  1
  C  C45  1  0.50238800  0.84039400  0.49647300  1
  C  C46  1  0.50011100  0.15962900  0.49971800  1
  C  C47  1  0.44061600  0.96090300  0.51018300  1
  C  C48  1  0.56213900  0.03916900  0.48547800  1
  C  C49  1  0.56276200  0.96207000  0.48459800  1
  C  C50  1  0.43999200  0.03797800  0.51097200  1
  C  C51  1  0.50074000  0.07757800  0.49857400  1
  C  C52  1  0.50198200  0.92247100  0.49694300  1
  N  N1  1  0.49961900  0.68657300  0.50088700  1
  N  N2  1  0.49925700  0.31344700  0.50157200  1
  O  O1  1  0.39939900  0.56446100  0.50533600  1
  O  O2  1  0.59966000  0.43553600  0.49639000  1
  O  O3  1  0.59980100  0.56374300  0.50511100  1
  O  O4  1  0.39926200  0.43625400  0.49724800  1
  O  O5  1  0.49714600  0.56391500  0.32175300  1
  O  O6  1  0.50207400  0.43613100  0.68026300  1
  O  O7  1  0.49723100  0.56462100  0.68015600  1
  O  O8  1  0.50162600  0.43537900  0.32184300  1
  F  F1  1  0.71279200  0.36669200  0.47598600  1
  F  F2  1  0.28636200  0.63321500  0.52509100  1
  F  F3  1  0.28681100  0.36718500  0.47699400  1
  F  F4  1  0.71235800  0.63273200  0.52368500  1
  F  F5  1  0.85069500  0.36789000  0.47980000  1
  F  F6  1  0.14851700  0.63211700  0.52007500  1
  F  F7  1  0.14899100  0.36784000  0.47878700  1
  F  F8  1  0.85015500  0.63215400  0.52099000  1
  F  F9  1  0.41588000  0.83741400  0.34116100  1
  F  F10  1  0.58678200  0.16263900  0.65488200  1
  F  F11  1  0.59016000  0.83701900  0.64975400  1
  F  F12  1  0.41310600  0.16285500  0.34517300  1
