# generated using pymatgen
data_ZnH12C28N3O7
_symmetry_space_group_name_H-M   'P 1'
_cell_length_a   19.03518900
_cell_length_b   8.54188900
_cell_length_c   17.57720900
_cell_angle_alpha   90.00000000
_cell_angle_beta   101.94806600
_cell_angle_gamma   90.00000000
_symmetry_Int_Tables_number   1
_chemical_formula_structural   ZnH12C28N3O7
_chemical_formula_sum   'Zn2 H24 C56 N6 O14'
_cell_volume   2796.07563186
_cell_formula_units_Z   2
loop_
 _symmetry_equiv_pos_site_id
 _symmetry_equiv_pos_as_xyz
  1  'x, y, z'
loop_
 _atom_site_type_symbol
 _atom_site_label
 _atom_site_symmetry_multiplicity
 _atom_site_fract_x
 _atom_site_fract_y
 _atom_site_fract_z
 _atom_site_occupancy
  Zn  Zn1  1  0.49688500  0.50034400  0.91431400  1
  Zn  Zn2  1  0.50310200  0.50187000  0.08567200  1
  H  H1  1  0.97109800  0.24992600  0.15188300  1
  H  H2  1  0.02888200  0.75207000  0.84818200  1
  H  H3  1  0.09740200  0.24770000  0.14689900  1
  H  H4  1  0.90259200  0.75428900  0.85318600  1
  H  H5  1  0.26273500  0.75010800  0.99118900  1
  H  H6  1  0.73723600  0.25206000  0.00872300  1
  H  H7  1  0.73789400  0.75102600  0.00898700  1
  H  H8  1  0.26210200  0.25116900  0.99112200  1
  H  H9  1  0.44645700  0.00199500  0.95863000  1
  H  H10  1  0.55350300  0.00027100  0.04133400  1
  H  H11  1  0.31675700  0.47097600  0.64163500  1
  H  H12  1  0.68334000  0.47553000  0.35831700  1
  H  H13  1  0.32803600  0.52610900  0.26572100  1
  H  H14  1  0.67197300  0.52394600  0.73439200  1
  H  H15  1  0.32130000  0.52798200  0.39840000  1
  H  H16  1  0.67869700  0.52825700  0.60174400  1
  H  H17  1  0.31864000  0.46876400  0.50976100  1
  H  H18  1  0.68147000  0.47153100  0.49013600  1
  H  H19  1  0.60509500  0.51025700  0.83375100  1
  H  H20  1  0.39489800  0.51361800  0.16627900  1
  H  H21  1  0.27324400  0.60168800  0.80094000  1
  H  H22  1  0.31676100  0.68929400  0.73784800  1
  H  H23  1  0.72694500  0.60154400  0.19831800  1
  H  H24  1  0.68384100  0.69131600  0.26109700  1
  C  C1  1  0.84383700  0.91561800  0.95340400  1
  C  C2  1  0.15614900  0.08649900  0.04661200  1
  C  C3  1  0.13197000  0.91153700  0.94166500  1
  C  C4  1  0.86800600  0.09061600  0.05833100  1
  C  C5  1  0.94014800  0.09113000  0.05599300  1
  C  C6  1  0.05983100  0.91100600  0.94401700  1
  C  C7  1  0.08427200  0.08860800  0.05034500  1
  C  C8  1  0.91571300  0.91351600  0.94967700  1
  C  C9  1  0.96405100  0.00168900  0.00141500  1
  C  C10  1  0.03593400  0.00043100  0.99860600  1
  C  C11  1  0.98859000  0.17918800  0.10832500  1
  C  C12  1  0.01139000  0.82290000  0.89170800  1
  C  C13  1  0.06044600  0.17789800  0.10551900  1
  C  C14  1  0.93953900  0.82418400  0.89452200  1
  C  C15  1  0.28860600  0.86028800  0.98417800  1
  C  C16  1  0.71137600  0.14189600  0.01579200  1
  C  C17  1  0.71128800  0.86123000  0.01382000  1
  C  C18  1  0.28870500  0.14096300  0.98625400  1
  C  C19  1  0.35847400  0.86146400  0.97395500  1
  C  C20  1  0.64150800  0.14074200  0.02602000  1
  C  C21  1  0.64152500  0.86133600  0.02460900  1
  C  C22  1  0.35845500  0.14088400  0.97542500  1
  C  C23  1  0.39165800  0.00151900  0.96600400  1
  C  C24  1  0.60831900  0.00071000  0.03400200  1
  C  C25  1  0.25263400  0.00026900  0.98745600  1
  C  C26  1  0.74735200  0.00190500  0.01255700  1
  C  C27  1  0.40216000  0.71973400  0.98200500  1
  C  C28  1  0.59782500  0.28247200  0.01795800  1
  C  C29  1  0.59811100  0.71914500  0.01706300  1
  C  C30  1  0.40186100  0.28308800  0.98294600  1
  C  C31  1  0.43031300  0.49321900  0.75993600  1
  C  C32  1  0.56971600  0.49659900  0.24003900  1
  C  C33  1  0.55563400  0.50549300  0.79061900  1
  C  C34  1  0.44437900  0.50898000  0.20939700  1
  C  C35  1  0.49567700  0.49882000  0.65712200  1
  C  C36  1  0.50436500  0.50152300  0.34288200  1
  C  C37  1  0.43134200  0.49158900  0.68111900  1
  C  C38  1  0.56870400  0.49489100  0.31886000  1
  C  C39  1  0.36849200  0.48137400  0.62600800  1
  C  C40  1  0.63157700  0.48498400  0.37395200  1
  C  C41  1  0.55795000  0.50594800  0.71276700  1
  C  C42  1  0.44207900  0.50887000  0.28726000  1
  C  C43  1  0.43638700  0.50349400  0.44399600  1
  C  C44  1  0.56364900  0.50314700  0.55603000  1
  C  C45  1  0.56574200  0.49691600  0.47697800  1
  C  C46  1  0.43430500  0.49565800  0.52301900  1
  C  C47  1  0.50217700  0.50070300  0.42152800  1
  C  C48  1  0.49786600  0.49914300  0.57848000  1
  C  C49  1  0.37406000  0.51546700  0.38647400  1
  C  C50  1  0.62595900  0.51478600  0.61360100  1
  C  C51  1  0.37719200  0.51730700  0.30916300  1
  C  C52  1  0.62283200  0.51520300  0.69091200  1
  C  C53  1  0.36990100  0.48270600  0.54825900  1
  C  C54  1  0.63016900  0.48528300  0.45169700  1
  C  C55  1  0.36130100  0.48890600  0.78441300  1
  C  C56  1  0.63871500  0.49073000  0.21555500  1
  N  N1  1  0.82118900  0.00314200  0.00753500  1
  N  N2  1  0.17879300  0.99899800  0.99247000  1
  N  N3  1  0.49249400  0.49938800  0.81351700  1
  N  N4  1  0.50751200  0.50280300  0.18647300  1
  N  N5  1  0.32385800  0.63125900  0.79116700  1
  N  N6  1  0.67644000  0.63231400  0.20801600  1
  O  O1  1  0.79603400  0.83353200  0.90163600  1
  O  O2  1  0.20395800  0.16856100  0.09838600  1
  O  O3  1  0.15533900  0.82846100  0.88690500  1
  O  O4  1  0.84462300  0.17373300  0.11306500  1
  O  O5  1  0.42896200  0.67036700  0.05275300  1
  O  O6  1  0.57109200  0.33199300  0.94722800  1
  O  O7  1  0.57122800  0.66873900  0.94651700  1
  O  O8  1  0.42867400  0.33365300  0.05348100  1
  O  O9  1  0.42225500  0.66475500  0.92013300  1
  O  O10  1  0.57766000  0.33730900  0.07980400  1
  O  O11  1  0.57790200  0.66546500  0.07912900  1
  O  O12  1  0.42213400  0.33662400  0.92088800  1
  O  O13  1  0.33102400  0.36394500  0.78740400  1
  O  O14  1  0.66880800  0.36528900  0.21334500  1
