# generated using pymatgen
data_ZnH18C31(NO3)2
_symmetry_space_group_name_H-M   'P 1'
_cell_length_a   11.88640600
_cell_length_b   13.07745000
_cell_length_c   23.44404900
_cell_angle_alpha   90.00363200
_cell_angle_beta   85.84637100
_cell_angle_gamma   91.19220700
_symmetry_Int_Tables_number   1
_chemical_formula_structural   ZnH18C31(NO3)2
_chemical_formula_sum   'Zn2 H36 C62 N4 O12'
_cell_volume   3633.87145603
_cell_formula_units_Z   2
loop_
 _symmetry_equiv_pos_site_id
 _symmetry_equiv_pos_as_xyz
  1  'x, y, z'
loop_
 _atom_site_type_symbol
 _atom_site_label
 _atom_site_symmetry_multiplicity
 _atom_site_fract_x
 _atom_site_fract_y
 _atom_site_fract_z
 _atom_site_occupancy
  Zn  Zn1  1  0.37561200  0.50635800  0.50476700  1
  Zn  Zn2  1  0.63115800  0.49039400  0.49535900  1
  H  H1  1  0.57990500  0.74268200  0.94288900  1
  H  H2  1  0.41184400  0.25820600  0.05769700  1
  H  H3  1  0.32333300  0.48346600  0.79225300  1
  H  H4  1  0.32258000  0.49386900  0.22128500  1
  H  H5  1  0.32273800  0.48453400  0.68841000  1
  H  H6  1  0.32246800  0.49293100  0.32511600  1
  H  H7  1  0.68357400  0.51003000  0.67550200  1
  H  H8  1  0.68387100  0.50569900  0.31116500  1
  H  H9  1  0.68227400  0.50969200  0.77949200  1
  H  H10  1  0.68207800  0.50703600  0.20729600  1
  H  H11  1  0.65044700  0.16169600  0.49464000  1
  H  H12  1  0.35630000  0.83505500  0.50549400  1
  H  H13  1  0.29074500  0.18454900  0.50741400  1
  H  H14  1  0.71600500  0.81221300  0.49271500  1
  H  H15  1  0.73410500  0.99762700  0.49186600  1
  H  H16  1  0.27263700  0.99913300  0.50826700  1
  H  H17  1  0.18679000  0.40527400  0.44772900  1
  H  H18  1  0.81997300  0.59148600  0.55239200  1
  H  H19  1  0.20865100  0.63031000  0.57474600  1
  H  H20  1  0.79811200  0.36645100  0.42537500  1
  H  H21  1  0.00406600  0.35153700  0.41718200  1
  H  H22  1  0.00269800  0.64522800  0.58293700  1
  H  H23  1  0.40721000  0.79985000  0.08123300  1
  H  H24  1  0.44231600  0.97152100  0.11849800  1
  H  H25  1  0.56267100  0.11030800  0.13377800  1
  H  H26  1  0.67259300  0.12836000  0.07706800  1
  H  H27  1  0.70553800  0.07449800  0.14481100  1
  H  H28  1  0.78874600  0.95402500  0.05800500  1
  H  H29  1  0.75324000  0.78176600  0.02083000  1
  H  H30  1  0.23423900  0.28312700  0.93415300  1
  H  H31  1  0.16611200  0.11988500  0.89712700  1
  H  H32  1  0.19165700  0.94795700  0.87430700  1
  H  H33  1  0.27890900  0.88292400  0.92222900  1
  H  H34  1  0.33555400  0.91818500  0.85107900  1
  H  H35  1  0.47877900  0.98390700  0.92911100  1
  H  H36  1  0.54676700  0.14778900  0.96611300  1
  C  C1  1  0.52337100  0.69822800  0.49958300  1
  C  C2  1  0.48339100  0.29852600  0.50054600  1
  C  C3  1  0.50325100  0.49785400  0.61178100  1
  C  C4  1  0.50349400  0.49887700  0.38834000  1
  C  C5  1  0.46883600  0.41612100  0.11992400  1
  C  C6  1  0.53086400  0.58276200  0.88042500  1
  C  C7  1  0.53262800  0.58696700  0.11746700  1
  C  C8  1  0.47218000  0.41049500  0.88266200  1
  C  C9  1  0.52901600  0.58994900  0.05795000  1
  C  C10  1  0.46765400  0.40966700  0.94248600  1
  C  C11  1  0.49865200  0.50115000  0.02979100  1
  C  C12  1  0.49852300  0.49834800  0.97063000  1
  C  C13  1  0.46845700  0.41453000  0.06109800  1
  C  C14  1  0.52998300  0.58465700  0.93929700  1
  C  C15  1  0.55647000  0.67796100  0.02553900  1
  C  C16  1  0.43526600  0.32297100  0.97509500  1
  C  C17  1  0.55839200  0.67358300  0.96684300  1
  C  C18  1  0.43724800  0.32634200  0.03365500  1
  C  C19  1  0.40245800  0.48907000  0.76652100  1
  C  C20  1  0.40192300  0.49634500  0.24111300  1
  C  C21  1  0.40246300  0.49013500  0.70771800  1
  C  C22  1  0.40224200  0.49614800  0.29990200  1
  C  C23  1  0.50318200  0.49733400  0.67435600  1
  C  C24  1  0.50324100  0.49932300  0.32576700  1
  C  C25  1  0.60373100  0.50401300  0.70053800  1
  C  C26  1  0.60378600  0.50304100  0.29209500  1
  C  C27  1  0.60334300  0.50420000  0.75938800  1
  C  C28  1  0.60313400  0.50417800  0.23328200  1
  C  C29  1  0.50276800  0.49639600  0.79252600  1
  C  C30  1  0.50223300  0.50075100  0.20763700  1
  C  C31  1  0.47212600  0.18656000  0.50095900  1
  C  C32  1  0.53462600  0.81019600  0.49917200  1
  C  C33  1  0.65095300  0.96209600  0.49486600  1
  C  C34  1  0.35579100  0.03466200  0.50526700  1
  C  C35  1  0.64038800  0.85692700  0.49536000  1
  C  C36  1  0.36636000  0.13983100  0.50477100  1
  C  C37  1  0.43969900  0.86997900  0.50249700  1
  C  C38  1  0.56704700  0.12677500  0.49763800  1
  C  C39  1  0.45059800  0.97531600  0.50197600  1
  C  C40  1  0.55614500  0.02144000  0.49815900  1
  C  C41  1  0.96479000  0.40493900  0.44725500  1
  C  C42  1  0.04197500  0.59182500  0.55286400  1
  C  C43  1  0.84901800  0.41339700  0.45188400  1
  C  C44  1  0.15774700  0.58336400  0.54823600  1
  C  C45  1  0.86133700  0.53874300  0.52264300  1
  C  C46  1  0.14542700  0.45801800  0.47747800  1
  C  C47  1  0.97733000  0.53197000  0.51898400  1
  C  C48  1  0.02943400  0.46479400  0.48113600  1
  C  C49  1  0.57866700  0.77879200  0.05007600  1
  C  C50  1  0.49138300  0.83317600  0.07669800  1
  C  C51  1  0.51124900  0.93004000  0.09747900  1
  C  C52  1  0.61832500  0.97346700  0.09103400  1
  C  C53  1  0.64092400  0.07810500  0.11307600  1
  C  C54  1  0.70503500  0.91991600  0.06351300  1
  C  C55  1  0.68512200  0.82309200  0.04270600  1
  C  C56  1  0.39586100  0.22639700  0.95109300  1
  C  C57  1  0.28841000  0.21765200  0.93255600  1
  C  C58  1  0.25009800  0.12555300  0.91186500  1
  C  C59  1  0.31871000  0.04148900  0.91031300  1
  C  C60  1  0.27849800  0.94159400  0.88809300  1
  C  C61  1  0.42520700  0.04976600  0.92986000  1
  C  C62  1  0.46344500  0.14182900  0.95056800  1
  N  N1  1  0.50134200  0.50125700  0.14685600  1
  N  N2  1  0.50219100  0.49656400  0.85335700  1
  N  N3  1  0.20754400  0.51704200  0.51089800  1
  N  N4  1  0.79922300  0.47971500  0.48922500  1
  O  O1  1  0.42174500  0.65642200  0.50331700  1
  O  O2  1  0.58502200  0.34033000  0.49683700  1
  O  O3  1  0.61551200  0.64436300  0.49609300  1
  O  O4  1  0.39125200  0.35239100  0.50400800  1
  O  O5  1  0.40633300  0.50380100  0.58863200  1
  O  O6  1  0.60043100  0.49289200  0.41148500  1
  O  O7  1  0.60016200  0.49220300  0.58147800  1
  O  O8  1  0.40662600  0.50460200  0.41865700  1
  O  O9  1  0.43941400  0.33173100  0.15063200  1
  O  O10  1  0.55896600  0.66749100  0.84975800  1
  O  O11  1  0.56782600  0.66828400  0.14684000  1
  O  O12  1  0.45049700  0.32566600  0.85274700  1
