# generated using pymatgen
data_FeH6C21(O4F)2
_symmetry_space_group_name_H-M   'P 1'
_cell_length_a   15.42065300
_cell_length_b   11.62074000
_cell_length_c   16.09907900
_cell_angle_alpha   89.35808800
_cell_angle_beta   103.19577900
_cell_angle_gamma   98.85306600
_symmetry_Int_Tables_number   1
_chemical_formula_structural   FeH6C21(O4F)2
_chemical_formula_sum   'Fe2 H12 C42 O16 F4'
_cell_volume   2774.44871618
_cell_formula_units_Z   2
loop_
 _symmetry_equiv_pos_site_id
 _symmetry_equiv_pos_as_xyz
  1  'x, y, z'
loop_
 _atom_site_type_symbol
 _atom_site_label
 _atom_site_symmetry_multiplicity
 _atom_site_fract_x
 _atom_site_fract_y
 _atom_site_fract_z
 _atom_site_occupancy
  Fe  Fe1  1  0.49328200  0.98000000  0.81743100  1
  Fe  Fe2  1  0.50769100  0.01824300  0.18369900  1
  H  H1  1  0.95133600  0.07109900  0.17694400  1
  H  H2  1  0.82855500  0.98785400  0.91627800  1
  H  H3  1  0.04334800  0.09382200  0.07017700  1
  H  H4  1  0.95602800  0.91613600  0.92433500  1
  H  H5  1  0.05118400  0.95787300  0.81812600  1
  H  H6  1  0.49889000  0.22326600  0.41308300  1
  H  H7  1  0.46875600  0.19597100  0.52972700  1
  H  H8  1  0.52819800  0.80083100  0.47174000  1
  H  H9  1  0.49769700  0.77291300  0.58851300  1
  H  H10  1  0.48623000  0.45278800  0.20827300  1
  H  H11  1  0.49161100  0.64985200  0.22797600  1
  H  H12  1  0.50982100  0.34472200  0.77374300  1
  C  C1  1  0.80792700  0.03849400  0.14489700  1
  C  C2  1  0.89153500  0.04822100  0.12647500  1
  C  C3  1  0.89935400  0.02491500  0.04513900  1
  C  C4  1  0.82224500  0.99802800  0.98099600  1
  C  C5  1  0.73725800  0.99019200  0.99795500  1
  C  C6  1  0.73038700  0.00727600  0.08191200  1
  C  C7  1  0.99026700  0.03504800  0.02871300  1
  C  C8  1  0.00917100  0.97316700  0.96714000  1
  C  C9  1  0.11019700  0.97047400  0.87033600  1
  C  C10  1  0.19436100  0.97787200  0.85364300  1
  C  C11  1  0.27106500  0.99718000  0.91885600  1
  C  C12  1  0.26295000  0.00382000  0.00353900  1
  C  C13  1  0.17681300  0.99410100  0.01925800  1
  C  C14  1  0.10090000  0.98187700  0.95261600  1
  C  C15  1  0.48249600  0.14594700  0.69011700  1
  C  C16  1  0.35798300  0.01052500  0.89438300  1
  C  C17  1  0.65886100  0.97473900  0.92420600  1
  C  C18  1  0.50286100  0.76660600  0.75236900  1
  C  C19  1  0.49485700  0.23097200  0.24928100  1
  C  C20  1  0.34172000  0.01353600  0.07753800  1
  C  C21  1  0.64406900  0.99118100  0.10757000  1
  C  C22  1  0.51775100  0.85127100  0.31141800  1
  C  C23  1  0.49117100  0.32746000  0.30629300  1
  C  C24  1  0.48820600  0.43742200  0.27493000  1
  C  C25  1  0.49230800  0.53005400  0.32888400  1
  C  C26  1  0.49466500  0.63930600  0.29530600  1
  C  C27  1  0.50816200  0.73539000  0.34791600  1
  C  C28  1  0.49335900  0.31006000  0.39159600  1
  C  C29  1  0.49303400  0.40238500  0.44675700  1
  C  C30  1  0.49612400  0.51430200  0.41506700  1
  C  C31  1  0.50404800  0.61077600  0.46847200  1
  C  C32  1  0.48323600  0.27510900  0.56744500  1
  C  C33  1  0.49359300  0.38608900  0.53322800  1
  C  C34  1  0.50191000  0.48251500  0.58679800  1
  C  C35  1  0.49122100  0.26149100  0.65354900  1
  C  C36  1  0.50561500  0.35714000  0.70647500  1
  C  C37  1  0.51452500  0.72175800  0.43401400  1
  C  C38  1  0.50450100  0.59436800  0.55504600  1
  C  C39  1  0.50392400  0.68640600  0.61033900  1
  C  C40  1  0.50690000  0.46667600  0.67321200  1
  C  C41  1  0.51135300  0.55923600  0.72754000  1
  C  C42  1  0.50680600  0.66918400  0.69593700  1
  O  O1  1  0.52491600  0.13408700  0.76947800  1
  O  O2  1  0.41469300  0.10815900  0.91283200  1
  O  O3  1  0.42781000  0.05814400  0.64681800  1
  O  O4  1  0.37478200  0.93081500  0.84543200  1
  O  O5  1  0.57670100  0.97795800  0.93283900  1
  O  O6  1  0.67234800  0.96935000  0.84686300  1
  O  O7  1  0.50103700  0.87255500  0.72355000  1
  O  O8  1  0.49898200  0.74825300  0.83208500  1
  O  O9  1  0.49813900  0.12471100  0.27751100  1
  O  O10  1  0.49730700  0.25143400  0.16946200  1
  O  O11  1  0.42446200  0.01939600  0.06802700  1
  O  O12  1  0.32950900  0.01213600  0.15556200  1
  O  O13  1  0.57034600  0.93949500  0.35611500  1
  O  O14  1  0.62610600  0.07015800  0.15624600  1
  O  O15  1  0.47742200  0.86340300  0.23137900  1
  O  O16  1  0.58829300  0.89281000  0.08895100  1
  F  F1  1  0.80245400  0.05564200  0.22655700  1
  F  F2  1  0.51651100  0.53998900  0.81162100  1
  F  F3  1  0.20168900  0.97093100  0.77160900  1
  F  F4  1  0.16570900  0.98880700  0.10038100  1
