# generated using pymatgen
data_CuH24C25(NO)4
_symmetry_space_group_name_H-M   'P 1'
_cell_length_a   22.54377000
_cell_length_b   22.52004300
_cell_length_c   14.51071300
_cell_angle_alpha   90.00000000
_cell_angle_beta   90.01383500
_cell_angle_gamma   90.00000000
_symmetry_Int_Tables_number   1
_chemical_formula_structural   CuH24C25(NO)4
_chemical_formula_sum   'Cu4 H96 C100 N16 O16'
_cell_volume   7366.89534437
_cell_formula_units_Z   4
loop_
 _symmetry_equiv_pos_site_id
 _symmetry_equiv_pos_as_xyz
  1  'x, y, z'
loop_
 _atom_site_type_symbol
 _atom_site_label
 _atom_site_symmetry_multiplicity
 _atom_site_fract_x
 _atom_site_fract_y
 _atom_site_fract_z
 _atom_site_occupancy
  Cu  Cu1  1  0.49993200  0.00382200  0.59222100  1
  Cu  Cu2  1  0.50006800  0.00382200  0.40778000  1
  Cu  Cu3  1  0.99993200  0.50382200  0.59222100  1
  Cu  Cu4  1  0.00006800  0.50382200  0.40778000  1
  H  H1  1  0.22424100  0.17549200  0.39046600  1
  H  H2  1  0.77606200  0.83254300  0.60890800  1
  H  H3  1  0.77576000  0.17549200  0.60953400  1
  H  H4  1  0.22393700  0.83254400  0.39109400  1
  H  H5  1  0.72424100  0.67549200  0.39046600  1
  H  H6  1  0.27606300  0.33254300  0.60890700  1
  H  H7  1  0.27576000  0.67549200  0.60953400  1
  H  H8  1  0.72393800  0.33254400  0.39109400  1
  H  H9  1  0.65568500  0.71005000  0.54606800  1
  H  H10  1  0.34463200  0.29797800  0.45331400  1
  H  H11  1  0.34431500  0.71005000  0.45393200  1
  H  H12  1  0.65536800  0.29797800  0.54668700  1
  H  H13  1  0.15568500  0.21005000  0.54606800  1
  H  H14  1  0.84463200  0.79797800  0.45331500  1
  H  H15  1  0.84431500  0.21005000  0.45393200  1
  H  H16  1  0.15536800  0.79797800  0.54668700  1
  H  H17  1  0.44892700  0.09070600  0.05637000  1
  H  H18  1  0.55205300  0.91418000  0.94333100  1
  H  H19  1  0.55107600  0.09070400  0.94363000  1
  H  H20  1  0.44794500  0.91418100  0.05667000  1
  H  H21  1  0.94892700  0.59070600  0.05637000  1
  H  H22  1  0.05205300  0.41418000  0.94333100  1
  H  H23  1  0.05107600  0.59070400  0.94363000  1
  H  H24  1  0.94794400  0.41418100  0.05667000  1
  H  H25  1  0.35087800  0.05120300  0.04560200  1
  H  H26  1  0.34506400  0.97138500  0.05604000  1
  H  H27  1  0.29793000  0.01191500  0.97663800  1
  H  H28  1  0.36382300  0.96743200  0.80681600  1
  H  H29  1  0.33387500  0.92774000  0.90434000  1
  H  H30  1  0.41101800  0.92039700  0.87585300  1
  H  H31  1  0.64912300  0.05120000  0.95439900  1
  H  H32  1  0.65493500  0.97138200  0.94396100  1
  H  H33  1  0.70207000  0.01191000  0.02336300  1
  H  H34  1  0.63617700  0.96742900  0.19318500  1
  H  H35  1  0.66612400  0.92773600  0.09566100  1
  H  H36  1  0.58898000  0.92039500  0.12414800  1
  H  H37  1  0.85087800  0.55120400  0.04560200  1
  H  H38  1  0.84506400  0.47138600  0.05604000  1
  H  H39  1  0.79793000  0.51191600  0.97663800  1
  H  H40  1  0.86382200  0.46743200  0.80681600  1
  H  H41  1  0.83387400  0.42774100  0.90434000  1
  H  H42  1  0.91101800  0.42039700  0.87585300  1
  H  H43  1  0.14912300  0.55119900  0.95439900  1
  H  H44  1  0.15493500  0.47138100  0.94396100  1
  H  H45  1  0.20207000  0.51190900  0.02336300  1
  H  H46  1  0.13617600  0.46742800  0.19318500  1
  H  H47  1  0.16612300  0.42773500  0.09566100  1
  H  H48  1  0.08898000  0.42039400  0.12414800  1
  H  H49  1  0.82840800  0.79052100  0.29115500  1
  H  H50  1  0.77850500  0.80316300  0.19710800  1
  H  H51  1  0.77927300  0.73160500  0.25443900  1
  H  H52  1  0.65156900  0.76790400  0.33597500  1
  H  H53  1  0.68199500  0.77230200  0.22184900  1
  H  H54  1  0.65996000  0.83930500  0.28088600  1
  H  H55  1  0.17188900  0.21714200  0.70818100  1
  H  H56  1  0.22066700  0.27641600  0.74466800  1
  H  H57  1  0.22184100  0.20496700  0.80230400  1
  H  H58  1  0.34056100  0.16932200  0.71881900  1
  H  H59  1  0.31817300  0.23636000  0.77747700  1
  H  H60  1  0.34865800  0.24060700  0.66337400  1
  H  H61  1  0.17159200  0.79052000  0.70884600  1
  H  H62  1  0.22149600  0.80316200  0.80289300  1
  H  H63  1  0.22072800  0.73160400  0.74556200  1
  H  H64  1  0.34843200  0.76790300  0.66402500  1
  H  H65  1  0.31800500  0.77230100  0.77815100  1
  H  H66  1  0.34004000  0.83930400  0.71911400  1
  H  H67  1  0.82811100  0.21714200  0.29182000  1
  H  H68  1  0.77933300  0.27641600  0.25533300  1
  H  H69  1  0.77815900  0.20496700  0.19769700  1
  H  H70  1  0.65943900  0.16932300  0.28118100  1
  H  H71  1  0.68182700  0.23636100  0.22252400  1
  H  H72  1  0.65134200  0.24060700  0.33662700  1
  H  H73  1  0.32840800  0.29052000  0.29115500  1
  H  H74  1  0.27850500  0.30316300  0.19710800  1
  H  H75  1  0.27927300  0.23160500  0.25443900  1
  H  H76  1  0.15156800  0.26790400  0.33597500  1
  H  H77  1  0.18199500  0.27230100  0.22185000  1
  H  H78  1  0.15996000  0.33930400  0.28088600  1
  H  H79  1  0.67188800  0.71714200  0.70818000  1
  H  H80  1  0.72066700  0.77641600  0.74466800  1
  H  H81  1  0.72184000  0.70496600  0.80230400  1
  H  H82  1  0.84056000  0.66932200  0.71881900  1
  H  H83  1  0.81817300  0.73636000  0.77747700  1
  H  H84  1  0.84865700  0.74060700  0.66337400  1
  H  H85  1  0.67159200  0.29052000  0.70884600  1
  H  H86  1  0.72149600  0.30316200  0.80289300  1
  H  H87  1  0.72072800  0.23160400  0.74556200  1
  H  H88  1  0.84843200  0.26790300  0.66402500  1
  H  H89  1  0.81800500  0.27230100  0.77815100  1
  H  H90  1  0.84004000  0.33930400  0.71911400  1
  H  H91  1  0.32811100  0.71714200  0.29182000  1
  H  H92  1  0.27933200  0.77641700  0.25533300  1
  H  H93  1  0.27815900  0.70496700  0.19769700  1
  H  H94  1  0.15943900  0.66932300  0.28118200  1
  H  H95  1  0.18182600  0.73636100  0.22252400  1
  H  H96  1  0.15134200  0.74060700  0.33662700  1
  C  C1  1  0.41951300  0.92325200  0.50019300  1
  C  C2  1  0.58045400  0.08443500  0.49983000  1
  C  C3  1  0.58048700  0.92325200  0.49980700  1
  C  C4  1  0.41954600  0.08443500  0.50017100  1
  C  C5  1  0.91951300  0.42325200  0.50019300  1
  C  C6  1  0.08045400  0.58443500  0.49983000  1
  C  C7  1  0.08048700  0.42325200  0.49980700  1
  C  C8  1  0.91954600  0.58443500  0.50017100  1
  C  C9  1  0.52781000  0.05073800  0.96976300  1
  C  C10  1  0.47219200  0.95358700  0.03059600  1
  C  C11  1  0.47219100  0.05073800  0.03023800  1
  C  C12  1  0.52780600  0.95358700  0.96940500  1
  C  C13  1  0.02781000  0.55073700  0.96976300  1
  C  C14  1  0.97219200  0.45358700  0.03059600  1
  C  C15  1  0.97219100  0.55073800  0.03023800  1
  C  C16  1  0.02780600  0.45358600  0.96940500  1
  C  C17  1  0.69868400  0.72961300  0.52482300  1
  C  C18  1  0.30163800  0.27840700  0.47457200  1
  C  C19  1  0.30131500  0.72961300  0.47517800  1
  C  C20  1  0.69836200  0.27840700  0.52542900  1
  C  C21  1  0.19868500  0.22961300  0.52482300  1
  C  C22  1  0.80163800  0.77840700  0.47457200  1
  C  C23  1  0.80131600  0.22961300  0.47517800  1
  C  C24  1  0.19836200  0.77840700  0.52542900  1
  C  C25  1  0.23539900  0.21084100  0.44076800  1
  C  C26  1  0.76491600  0.79718800  0.55861100  1
  C  C27  1  0.76460200  0.21084100  0.55923300  1
  C  C28  1  0.23508400  0.79718800  0.44139100  1
  C  C29  1  0.73539800  0.71084100  0.44076700  1
  C  C30  1  0.26491600  0.29718800  0.55861100  1
  C  C31  1  0.26460200  0.71084100  0.55923300  1
  C  C32  1  0.73508400  0.29718800  0.44139000  1
  C  C33  1  0.37464100  0.12957800  0.49990500  1
  C  C34  1  0.62549600  0.87823200  0.49998200  1
  C  C35  1  0.62535900  0.12957800  0.50009600  1
  C  C36  1  0.37450400  0.87823200  0.50001900  1
  C  C37  1  0.87464100  0.62957800  0.49990500  1
  C  C38  1  0.12549600  0.37823200  0.49998200  1
  C  C39  1  0.12535900  0.62957800  0.50009600  1
  C  C40  1  0.87450400  0.37823200  0.50001900  1
  C  C41  1  0.25519900  0.23240200  0.58084400  1
  C  C42  1  0.74511300  0.77563800  0.41854200  1
  C  C43  1  0.74480100  0.23240200  0.41915600  1
  C  C44  1  0.25488700  0.77563800  0.58145900  1
  C  C45  1  0.75519900  0.73240200  0.58084400  1
  C  C46  1  0.24511300  0.27563800  0.41854200  1
  C  C47  1  0.24480000  0.73240200  0.41915600  1
  C  C48  1  0.75488700  0.27563800  0.58145900  1
  C  C49  1  0.29121800  0.21363200  0.49907600  1
  C  C50  1  0.70909800  0.79438600  0.50033100  1
  C  C51  1  0.70878200  0.21363200  0.50092500  1
  C  C52  1  0.29090200  0.79438600  0.49967000  1
  C  C53  1  0.79121800  0.71363200  0.49907600  1
  C  C54  1  0.20909900  0.29438600  0.50033100  1
  C  C55  1  0.20878200  0.71363200  0.50092500  1
  C  C56  1  0.79090200  0.29438600  0.49967000  1
  C  C57  1  0.55350200  0.00201900  0.02937000  1
  C  C58  1  0.44649800  0.00202000  0.97063100  1
  C  C59  1  0.05350200  0.50201900  0.02937000  1
  C  C60  1  0.94649800  0.50202100  0.97063100  1
  C  C61  1  0.49942100  0.00231700  0.08940800  1
  C  C62  1  0.50057900  0.00231700  0.91059300  1
  C  C63  1  0.99942100  0.50231700  0.08940800  1
  C  C64  1  0.00057900  0.50231700  0.91059300  1
  C  C65  1  0.33696400  0.16751800  0.49951600  1
  C  C66  1  0.66327300  0.84040300  0.50015200  1
  C  C67  1  0.66303600  0.16751800  0.50048400  1
  C  C68  1  0.33672700  0.84040300  0.49984900  1
  C  C69  1  0.83696400  0.66751800  0.49951600  1
  C  C70  1  0.16327300  0.34040300  0.50015200  1
  C  C71  1  0.16303600  0.66751800  0.50048400  1
  C  C72  1  0.83672700  0.34040300  0.49984900  1
  C  C73  1  0.49971100  0.00321900  0.19024400  1
  C  C74  1  0.50028900  0.00321900  0.80975700  1
  C  C75  1  0.99971100  0.50321900  0.19024400  1
  C  C76  1  0.00028900  0.50321900  0.80975700  1
  C  C77  1  0.34289400  0.00936100  0.00748400  1
  C  C78  1  0.37323200  0.95178700  0.87779100  1
  C  C79  1  0.65710600  0.00935800  0.99251700  1
  C  C80  1  0.62676600  0.95178400  0.12221000  1
  C  C81  1  0.84289400  0.50936200  0.00748400  1
  C  C82  1  0.87323200  0.45178800  0.87779100  1
  C  C83  1  0.15710600  0.50935700  0.99251700  1
  C  C84  1  0.12676600  0.45178400  0.12221000  1
  C  C85  1  0.78357700  0.78025200  0.26434100  1
  C  C86  1  0.68005200  0.79471900  0.28979900  1
  C  C87  1  0.21665200  0.22772700  0.73497100  1
  C  C88  1  0.32025900  0.21378400  0.70966400  1
  C  C89  1  0.21642300  0.78025100  0.73566100  1
  C  C90  1  0.31994800  0.79471800  0.71020100  1
  C  C91  1  0.78334800  0.22772700  0.26502900  1
  C  C92  1  0.67974100  0.21378500  0.29033700  1
  C  C93  1  0.28357700  0.28025200  0.26434000  1
  C  C94  1  0.18005200  0.29471900  0.28979900  1
  C  C95  1  0.71665200  0.72772700  0.73497100  1
  C  C96  1  0.82025900  0.71378400  0.70966400  1
  C  C97  1  0.71642300  0.28025100  0.73566100  1
  C  C98  1  0.81994800  0.29471800  0.71020100  1
  C  C99  1  0.28334700  0.72772800  0.26502900  1
  C  C100  1  0.17974000  0.71378500  0.29033700  1
  N  N1  1  0.49995700  0.00378500  0.26995600  1
  N  N2  1  0.50004300  0.00378500  0.73004500  1
  N  N3  1  0.99995700  0.50378500  0.26995600  1
  N  N4  1  0.00004300  0.50378500  0.73004500  1
  N  N5  1  0.38645800  0.00218900  0.93569100  1
  N  N6  1  0.61354200  0.00218600  0.06430900  1
  N  N7  1  0.88645800  0.50218900  0.93569100  1
  N  N8  1  0.11354200  0.50218500  0.06430900  1
  N  N9  1  0.73892200  0.80107700  0.32759800  1
  N  N10  1  0.26144400  0.20705200  0.67182500  1
  N  N11  1  0.26107900  0.80107600  0.67240300  1
  N  N12  1  0.73855600  0.20705200  0.32817500  1
  N  N13  1  0.23892200  0.30107700  0.32759800  1
  N  N14  1  0.76144300  0.70705200  0.67182500  1
  N  N15  1  0.76107900  0.30107600  0.67240300  1
  N  N16  1  0.23855600  0.70705200  0.32817500  1
  O  O1  1  0.43749100  0.94427400  0.57951700  1
  O  O2  1  0.56249600  0.06339200  0.42047400  1
  O  O3  1  0.56250900  0.94427400  0.42048300  1
  O  O4  1  0.43750400  0.06339200  0.57952600  1
  O  O5  1  0.93749100  0.44427400  0.57951700  1
  O  O6  1  0.06249600  0.56339200  0.42047400  1
  O  O7  1  0.06250900  0.44427400  0.42048300  1
  O  O8  1  0.93750400  0.56339200  0.57952600  1
  O  O9  1  0.44060400  0.94133900  0.42098400  1
  O  O10  1  0.55940000  0.06630300  0.57904600  1
  O  O11  1  0.55939600  0.94133900  0.57901700  1
  O  O12  1  0.44060000  0.06630300  0.42095500  1
  O  O13  1  0.94060400  0.44133800  0.42098400  1
  O  O14  1  0.05939900  0.56630300  0.57904600  1
  O  O15  1  0.05939600  0.44133900  0.57901700  1
  O  O16  1  0.94060000  0.56630300  0.42095500  1
