# generated using pymatgen
data_Cu3H26(C25O7)2
_symmetry_space_group_name_H-M   'P 1'
_cell_length_a   21.50518900
_cell_length_b   21.59392300
_cell_length_c   20.94849600
_cell_angle_alpha   121.01182500
_cell_angle_beta   120.87724400
_cell_angle_gamma   90.00188100
_symmetry_Int_Tables_number   1
_chemical_formula_structural   Cu3H26(C25O7)2
_chemical_formula_sum   'Cu6 H52 C100 O28'
_cell_volume   6677.47945413
_cell_formula_units_Z   2
loop_
 _symmetry_equiv_pos_site_id
 _symmetry_equiv_pos_as_xyz
  1  'x, y, z'
loop_
 _atom_site_type_symbol
 _atom_site_label
 _atom_site_symmetry_multiplicity
 _atom_site_fract_x
 _atom_site_fract_y
 _atom_site_fract_z
 _atom_site_occupancy
  Cu  Cu1  1  0.99584500  0.42730900  0.50058000  1
  Cu  Cu2  1  0.99446600  0.54379600  0.49181500  1
  Cu  Cu3  1  0.44611900  0.45077200  0.39832700  1
  Cu  Cu4  1  0.53835800  0.53954400  0.58037500  1
  Cu  Cu5  1  0.56809300  0.00191000  0.50232300  1
  Cu  Cu6  1  0.43901200  0.99588800  0.49157400  1
  H  H1  1  0.90887100  0.21045400  0.07528100  1
  H  H2  1  0.95760000  0.20975400  0.20972700  1
  H  H3  1  0.07728600  0.31240200  0.36210000  1
  H  H4  1  0.09892900  0.41841600  0.24643000  1
  H  H5  1  0.97961000  0.31510000  0.09406400  1
  H  H6  1  0.22968200  0.40357000  0.34490100  1
  H  H7  1  0.25018600  0.56550600  0.63114000  1
  H  H8  1  0.38316800  0.55463200  0.73261000  1
  H  H9  1  0.50192700  0.65975200  0.88459300  1
  H  H10  1  0.57041400  0.76448500  0.90152800  1
  H  H11  1  0.51904500  0.76463600  0.76623200  1
  H  H12  1  0.39978900  0.66034800  0.61442600  1
  H  H13  1  0.03344400  0.49763900  0.84549700  1
  H  H14  1  0.90371300  0.39664500  0.73284400  1
  H  H15  1  0.79994400  0.39563300  0.60450800  1
  H  H16  1  0.95553400  0.59686300  0.70050700  1
  H  H17  1  0.05850600  0.59815400  0.82985300  1
  H  H18  1  0.73576500  0.49506000  0.60817500  1
  H  H19  1  0.75705400  0.49925300  0.38812600  1
  H  H20  1  0.60837200  0.39794600  0.24473500  1
  H  H21  1  0.50471800  0.40672800  0.12537800  1
  H  H22  1  0.45981200  0.51618800  0.17055800  1
  H  H23  1  0.51975700  0.61779400  0.33577400  1
  H  H24  1  0.62393100  0.60984100  0.45548200  1
  H  H25  1  0.14974100  0.46739200  0.18438700  1
  H  H26  1  0.21827200  0.49577300  0.13263600  1
  H  H27  1  0.34785800  0.59725300  0.24777700  1
  H  H28  1  0.34096100  0.64111300  0.46660300  1
  H  H29  1  0.21088600  0.54112200  0.35159700  1
  H  H30  1  0.38211300  0.75522900  0.38783600  1
  H  H31  1  0.61500900  0.73912600  0.60435200  1
  H  H32  1  0.69711100  0.79461600  0.56853800  1
  H  H33  1  0.82710800  0.89500700  0.68380400  1
  H  H34  1  0.85021000  0.02553700  0.80719200  1
  H  H35  1  0.74340700  0.05520200  0.81577300  1
  H  H36  1  0.61284400  0.95522500  0.70019600  1
  H  H37  1  0.59980100  0.26476000  0.24547800  1
  H  H38  1  0.46738800  0.25069000  0.19726000  1
  H  H39  1  0.42815100  0.24130600  0.28385500  1
  H  H40  1  0.65682700  0.26429100  0.47317900  1
  H  H41  1  0.54232900  0.14907900  0.41325600  1
  H  H42  1  0.46047600  0.34836500  0.57379900  1
  H  H43  1  0.35093200  0.24708800  0.53224800  1
  H  H44  1  0.32538200  0.25415200  0.63596100  1
  H  H45  1  0.55151000  0.25286100  0.79738800  1
  H  H46  1  0.57636400  0.24589700  0.69320700  1
  H  H47  1  0.86505800  0.25014300  0.53082200  1
  H  H48  1  0.87065400  0.31518500  0.50273600  1
  H  H49  1  0.83027200  0.21115300  0.41384300  1
  H  H50  1  0.51687100  0.26815400  0.97627700  1
  H  H51  1  0.41443500  0.21456900  0.88268300  1
  H  H52  1  0.45228000  0.31950000  0.95266900  1
  C  C1  1  0.09089900  0.57851700  0.67173000  1
  C  C2  1  0.10688500  0.47637500  0.48467800  1
  C  C3  1  0.90015400  0.39265800  0.32068300  1
  C  C4  1  0.88274200  0.49398700  0.50654400  1
  C  C5  1  0.98842800  0.25599300  0.21807200  1
  C  C6  1  0.05526800  0.31430800  0.30399400  1
  C  C7  1  0.09502000  0.37344500  0.31498300  1
  C  C8  1  0.06790700  0.37304300  0.23899700  1
  C  C9  1  0.00082900  0.31493700  0.15322600  1
  C  C10  1  0.96120300  0.25627500  0.14267300  1
  C  C11  1  0.23473900  0.44061800  0.40815300  1
  C  C12  1  0.30674900  0.49253500  0.49169600  1
  C  C13  1  0.31238500  0.53794700  0.57295800  1
  C  C14  1  0.24661500  0.52879600  0.56884100  1
  C  C15  1  0.17521300  0.47694100  0.48550700  1
  C  C16  1  0.16906100  0.43235500  0.40445600  1
  C  C17  1  0.41287100  0.60056400  0.73956900  1
  C  C18  1  0.47967800  0.65953500  0.82500000  1
  C  C19  1  0.51807700  0.71824200  0.83451200  1
  C  C20  1  0.48936400  0.71825300  0.75867000  1
  C  C21  1  0.42256100  0.65934900  0.67323300  1
  C  C22  1  0.38470500  0.59959400  0.66302200  1
  C  C23  1  0.14544500  0.63113500  0.77123000  1
  C  C24  1  0.19054800  0.67485700  0.85488600  1
  C  C25  1  0.24222200  0.72548900  0.95305000  1
  C  C26  1  0.28524400  0.76827100  0.03687200  1
  C  C27  1  0.33429800  0.81799700  0.13514300  1
  C  C28  1  0.37483600  0.86013200  0.21896700  1
  C  C29  1  0.91527900  0.44012600  0.72509400  1
  C  C30  1  0.85703300  0.43953300  0.65272300  1
  C  C31  1  0.87159200  0.49409500  0.64134100  1
  C  C32  1  0.94419300  0.55153000  0.70573800  1
  C  C33  1  0.00208200  0.55274300  0.77897600  1
  C  C34  1  0.98792300  0.49664700  0.78815100  1
  C  C35  1  0.74050900  0.49528100  0.55936100  1
  C  C36  1  0.67882500  0.49642300  0.49099000  1
  C  C37  1  0.68440600  0.49754300  0.42863700  1
  C  C38  1  0.75206600  0.49776900  0.43614800  1
  C  C39  1  0.81389900  0.49661500  0.50464500  1
  C  C40  1  0.80791000  0.49469200  0.56650100  1
  C  C41  1  0.58904700  0.44632900  0.26502600  1
  C  C42  1  0.53071700  0.45112300  0.19790900  1
  C  C43  1  0.50552300  0.51246200  0.22322700  1
  C  C44  1  0.53902700  0.56932900  0.31578700  1
  C  C45  1  0.59721800  0.56449300  0.38294600  1
  C  C46  1  0.62169400  0.50239100  0.35765600  1
  C  C47  1  0.84856300  0.34153900  0.22105100  1
  C  C48  1  0.80602500  0.30097000  0.13732800  1
  C  C49  1  0.75745900  0.25533000  0.03933700  1
  C  C50  1  0.71697900  0.21723800  0.95578600  1
  C  C51  1  0.67052200  0.17287200  0.85797200  1
  C  C52  1  0.63154500  0.13443100  0.77446600  1
  C  C53  1  0.49106600  0.61405500  0.49227800  1
  C  C54  1  0.37512900  0.49458800  0.49157400  1
  C  C55  1  0.49453200  0.37585100  0.48546200  1
  C  C56  1  0.60948000  0.49725500  0.48802600  1
  C  C57  1  0.50448300  0.11907800  0.49932300  1
  C  C58  1  0.42132200  0.91001500  0.31870500  1
  C  C59  1  0.50461400  0.88097800  0.49894500  1
  C  C60  1  0.58559000  0.08740800  0.67501100  1
  C  C61  1  0.24544600  0.52742500  0.20605300  1
  C  C62  1  0.31814700  0.58432300  0.27067200  1
  C  C63  1  0.35322600  0.62426200  0.36441600  1
  C  C64  1  0.31460100  0.60848900  0.39333200  1
  C  C65  1  0.24144500  0.55244000  0.32870300  1
  C  C66  1  0.20705900  0.51148300  0.23506600  1
  C  C67  1  0.43371100  0.75216300  0.43573900  1
  C  C68  1  0.50362200  0.81285100  0.49839000  1
  C  C69  1  0.56976700  0.80758800  0.55850100  1
  C  C70  1  0.56387100  0.74309400  0.55700700  1
  C  C71  1  0.49372500  0.68300700  0.49490700  1
  C  C72  1  0.42865200  0.68685100  0.43239500  1
  C  C73  1  0.70685700  0.85202600  0.62233900  1
  C  C74  1  0.77989200  0.90834400  0.68700000  1
  C  C75  1  0.79283200  0.98147800  0.75609300  1
  C  C76  1  0.73275500  0.99818700  0.76060900  1
  C  C77  1  0.65945500  0.94210400  0.69544900  1
  C  C78  1  0.64617000  0.86897900  0.62554500  1
  C  C79  1  0.50936900  0.25443500  0.25839400  1
  C  C80  1  0.48764100  0.25017800  0.30787600  1
  C  C81  1  0.54133300  0.25631400  0.38696200  1
  C  C82  1  0.61560800  0.26158000  0.41262800  1
  C  C83  1  0.63722600  0.26441600  0.36205600  1
  C  C84  1  0.58416900  0.26236000  0.28584600  1
  C  C85  1  0.52445100  0.19284300  0.44900400  1
  C  C86  1  0.50387900  0.18675900  0.49873100  1
  C  C87  1  0.48037700  0.24304300  0.54377900  1
  C  C88  1  0.47641400  0.30313600  0.53659900  1
  C  C89  1  0.49461900  0.30780300  0.48471100  1
  C  C90  1  0.51876900  0.25218600  0.44029600  1
  C  C91  1  0.39492700  0.24794200  0.59023900  1
  C  C92  1  0.38058700  0.25184000  0.64900300  1
  C  C93  1  0.43643600  0.25326500  0.72363500  1
  C  C94  1  0.50668700  0.25085800  0.73886800  1
  C  C95  1  0.52070400  0.24645400  0.67966500  1
  C  C96  1  0.46455700  0.24416400  0.60453000  1
  C  C97  1  0.71549900  0.26792600  0.38785500  1
  C  C98  1  0.83561600  0.25873800  0.47594600  1
  C  C99  1  0.42163600  0.25812000  0.78685100  1
  C  C100  1  0.46430700  0.26601700  0.92067300  1
  O  O1  1  0.05127700  0.50776400  0.63378300  1
  O  O2  1  0.08260800  0.60363900  0.62316600  1
  O  O3  1  0.09399800  0.44342500  0.51725300  1
  O  O4  1  0.06511800  0.51459900  0.45871800  1
  O  O5  1  0.94028900  0.36496900  0.36601300  1
  O  O6  1  0.90662500  0.46594200  0.36184200  1
  O  O7  1  0.89748000  0.42928500  0.48257500  1
  O  O8  1  0.92382400  0.55473700  0.52596100  1
  O  O9  1  0.46851400  0.54741300  0.41432900  1
  O  O10  1  0.51436400  0.62214800  0.56895700  1
  O  O11  1  0.36490000  0.47274100  0.41414600  1
  O  O12  1  0.44310300  0.51473200  0.56692000  1
  O  O13  1  0.43799800  0.36775900  0.41029800  1
  O  O14  1  0.54840500  0.44332500  0.56375500  1
  O  O15  1  0.54165400  0.44266900  0.41067900  1
  O  O16  1  0.61939100  0.55070400  0.56578100  1
  O  O17  1  0.55699600  0.08916200  0.49683100  1
  O  O18  1  0.44712100  0.08561900  0.49094500  1
  O  O19  1  0.49720900  0.93564000  0.36655700  1
  O  O20  1  0.38539000  0.92751600  0.35729800  1
  O  O21  1  0.55859300  0.91054500  0.49977300  1
  O  O22  1  0.44551800  0.90369600  0.48706800  1
  O  O23  1  0.62142900  0.07232400  0.63649000  1
  O  O24  1  0.50996200  0.05986700  0.62717400  1
  O  O25  1  0.73668700  0.27752700  0.34860000  1
  O  O26  1  0.76325900  0.25828700  0.45305300  1
  O  O27  1  0.35945200  0.25986100  0.77301100  1
  O  O28  1  0.47686800  0.26095800  0.86052200  1
