# generated using pymatgen
data_CuH12C14NO4
_symmetry_space_group_name_H-M   'P 1'
_cell_length_a   15.70326100
_cell_length_b   15.61551400
_cell_length_c   9.51648300
_cell_angle_alpha   90.00000000
_cell_angle_beta   90.02929900
_cell_angle_gamma   90.00000000
_symmetry_Int_Tables_number   1
_chemical_formula_structural   CuH12C14NO4
_chemical_formula_sum   'Cu4 H48 C56 N4 O16'
_cell_volume   2333.57923928
_cell_formula_units_Z   4
loop_
 _symmetry_equiv_pos_site_id
 _symmetry_equiv_pos_as_xyz
  1  'x, y, z'
loop_
 _atom_site_type_symbol
 _atom_site_label
 _atom_site_symmetry_multiplicity
 _atom_site_fract_x
 _atom_site_fract_y
 _atom_site_fract_z
 _atom_site_occupancy
  Cu  Cu1  1  0.48809900  0.98796000  0.65273800  1
  Cu  Cu2  1  0.98585600  0.49527600  0.65220000  1
  Cu  Cu3  1  0.48257300  0.99417700  0.37238400  1
  Cu  Cu4  1  0.98394500  0.48975900  0.37157700  1
  H  H1  1  0.67940800  0.77857500  0.59725900  1
  H  H2  1  0.69852300  0.18420200  0.61538100  1
  H  H3  1  0.17656000  0.27876800  0.62324000  1
  H  H4  1  0.20190500  0.68150200  0.60256500  1
  H  H5  1  0.28268600  0.16991300  0.31976000  1
  H  H6  1  0.30028900  0.79572100  0.29809100  1
  H  H7  1  0.78260500  0.66887300  0.29380500  1
  H  H8  1  0.79305300  0.30180100  0.30979900  1
  H  H9  1  0.29448900  0.20614900  0.63536500  1
  H  H10  1  0.27122200  0.79896700  0.61608100  1
  H  H11  1  0.79929100  0.71432000  0.60561600  1
  H  H12  1  0.77101600  0.30139200  0.62929000  1
  H  H13  1  0.36250600  0.97032300  0.87510000  1
  H  H14  1  0.86004900  0.47081600  0.87776200  1
  H  H15  1  0.54810300  0.96980900  0.91495800  1
  H  H16  1  0.03635100  0.52934200  0.91488900  1
  H  H17  1  0.36673900  0.93206900  0.13405200  1
  H  H18  1  0.85559000  0.51015800  0.13770000  1
  H  H19  1  0.52584500  0.03114700  0.11191400  1
  H  H20  1  0.03450400  0.45878400  0.11112900  1
  H  H21  1  0.73747100  0.78211400  0.16368500  1
  H  H22  1  0.68666500  0.87458000  0.22967400  1
  H  H23  1  0.62302800  0.83605400  0.98146100  1
  H  H24  1  0.49153400  0.78289600  0.87286200  1
  H  H25  1  0.39795400  0.68495900  0.00344200  1
  H  H26  1  0.43680800  0.63975600  0.24237700  1
  H  H27  1  0.56578600  0.69052700  0.35158100  1
  H  H28  1  0.66986200  0.26997800  0.19849300  1
  H  H29  1  0.58679600  0.20521300  0.26056700  1
  H  H30  1  0.62822700  0.17358200  0.98977800  1
  H  H31  1  0.69329900  0.06208700  0.84350500  1
  H  H32  1  0.79863700  0.96356000  0.94473700  1
  H  H33  1  0.83945900  0.97710800  0.19290400  1
  H  H34  1  0.77711100  0.08613500  0.33968400  1
  H  H35  1  0.24516900  0.28515500  0.19444400  1
  H  H36  1  0.18931800  0.37504300  0.25623900  1
  H  H37  1  0.13820300  0.33292400  0.99903800  1
  H  H38  1  0.01383600  0.27481700  0.87581300  1
  H  H39  1  0.91701900  0.17559900  0.99703500  1
  H  H40  1  0.94535000  0.13428400  0.24175600  1
  H  H41  1  0.06733200  0.19000800  0.36570900  1
  H  H42  1  0.17774900  0.76252600  0.18268300  1
  H  H43  1  0.09287100  0.69999900  0.24457000  1
  H  H44  1  0.13992800  0.66666667  0.97463000  1
  H  H45  1  0.20575500  0.55307700  0.83371500  1
  H  H46  1  0.30601000  0.45228100  0.94290000  1
  H  H47  1  0.34057700  0.46544600  0.19367000  1
  H  H48  1  0.27707000  0.57636000  0.33534600  1
  C  C1  1  0.36793500  0.87651600  0.51210300  1
  C  C2  1  0.37105800  0.10859300  0.52722900  1
  C  C3  1  0.86554400  0.38010900  0.52010000  1
  C  C4  1  0.87273300  0.61222900  0.50699900  1
  C  C5  1  0.60179200  0.10736300  0.51285900  1
  C  C6  1  0.60002700  0.87339300  0.49766200  1
  C  C7  1  0.10352200  0.60641400  0.50331200  1
  C  C8  1  0.09803200  0.37290900  0.51636200  1
  C  C9  1  0.70400800  0.77282000  0.37991400  1
  C  C10  1  0.69476200  0.21992400  0.40153100  1
  C  C11  1  0.20414900  0.27226600  0.40661400  1
  C  C12  1  0.19967900  0.71513500  0.38795700  1
  C  C13  1  0.66494700  0.80489300  0.49513200  1
  C  C14  1  0.66850800  0.17423800  0.51456600  1
  C  C15  1  0.16320700  0.30446200  0.52015400  1
  C  C16  1  0.17188200  0.67137900  0.50187700  1
  C  C17  1  0.26670100  0.20168400  0.41730400  1
  C  C18  1  0.27094900  0.77705100  0.39638600  1
  C  C19  1  0.76784700  0.70306300  0.38977700  1
  C  C20  1  0.76574300  0.28210100  0.40910900  1
  C  C21  1  0.30643700  0.17647900  0.53463100  1
  C  C22  1  0.29920200  0.81302900  0.51498200  1
  C  C23  1  0.80942300  0.68131600  0.50726200  1
  C  C24  1  0.79659600  0.31680300  0.52693800  1
  C  C25  1  0.42254500  0.97200500  0.93109800  1
  C  C26  1  0.91842900  0.48664700  0.93245800  1
  C  C27  1  0.42098900  0.96302400  0.08567500  1
  C  C28  1  0.91575400  0.49609300  0.08702100  1
  C  C29  1  0.68541900  0.80374500  0.23385900  1
  C  C30  1  0.60369800  0.76947800  0.17468000  1
  C  C31  1  0.58176700  0.79362800  0.03986500  1
  C  C32  1  0.50806700  0.76359700  0.97850200  1
  C  C33  1  0.45570800  0.70868700  0.05150400  1
  C  C34  1  0.47745600  0.68347800  0.18548000  1
  C  C35  1  0.55117400  0.71328300  0.24732100  1
  C  C36  1  0.65710100  0.21010500  0.25743400  1
  C  C37  1  0.69649100  0.13835000  0.17521100  1
  C  C38  1  0.67424500  0.13023400  0.03541600  1
  C  C39  1  0.71079300  0.06770700  0.95289200  1
  C  C40  1  0.76994200  0.01257400  0.00948100  1
  C  C41  1  0.79274000  0.02021300  0.14860400  1
  C  C42  1  0.75649500  0.08271800  0.23171400  1
  C  C43  1  0.18983600  0.30421500  0.25962200  1
  C  C44  1  0.11193300  0.26737200  0.19119900  1
  C  C45  1  0.09576300  0.28957500  0.05324900  1
  C  C46  1  0.02593200  0.25692500  0.98371800  1
  C  C47  1  0.97173000  0.20135700  0.05153800  1
  C  C48  1  0.98761200  0.17830300  0.18874700  1
  C  C49  1  0.05740800  0.21077000  0.25884600  1
  C  C50  1  0.16325500  0.70371500  0.24337900  1
  C  C51  1  0.20231600  0.63021900  0.16496100  1
  C  C52  1  0.18343400  0.62215100  0.02382700  1
  C  C53  1  0.22054400  0.55851800  0.94426200  1
  C  C54  1  0.27682400  0.50212500  0.00528500  1
  C  C55  1  0.29613100  0.50957700  0.14586900  1
  C  C56  1  0.25926500  0.57316600  0.22602000  1
  N  N1  1  0.49237600  0.98267400  0.86261000  1
  N  N2  1  0.98720500  0.50016000  0.86226500  1
  N  N3  1  0.47732600  0.99986800  0.16256400  1
  N  N4  1  0.98304500  0.48527900  0.16151200  1
  O  O1  1  0.39689300  0.90385400  0.63294400  1
  O  O2  1  0.40358400  0.07963700  0.64486600  1
  O  O3  1  0.89752300  0.40761100  0.63904100  1
  O  O4  1  0.90313200  0.58754000  0.62873200  1
  O  O5  1  0.39635200  0.90470900  0.39094400  1
  O  O6  1  0.39459600  0.08047500  0.40335200  1
  O  O7  1  0.89172700  0.40725600  0.39676900  1
  O  O8  1  0.89703100  0.57876200  0.38691700  1
  O  O9  1  0.57410700  0.07769400  0.63355100  1
  O  O10  1  0.57608300  0.90163100  0.62118800  1
  O  O11  1  0.07769000  0.57812700  0.62564000  1
  O  O12  1  0.07284300  0.40629500  0.63580700  1
  O  O13  1  0.57356100  0.07834200  0.39308000  1
  O  O14  1  0.56706600  0.90257800  0.38093000  1
  O  O15  1  0.07208500  0.57749000  0.38568600  1
  O  O16  1  0.06642900  0.39750900  0.39622900  1
