# generated using pymatgen
data_ZnH4C15N(O2F3)2
_symmetry_space_group_name_H-M   'P 1'
_cell_length_a   11.79472100
_cell_length_b   11.90512400
_cell_length_c   13.09091500
_cell_angle_alpha   89.98829000
_cell_angle_beta   91.18179300
_cell_angle_gamma   85.89584300
_symmetry_Int_Tables_number   1
_chemical_formula_structural   ZnH4C15N(O2F3)2
_chemical_formula_sum   'Zn2 H8 C30 N2 O8 F12'
_cell_volume   1833.08858936
_cell_formula_units_Z   2
loop_
 _symmetry_equiv_pos_site_id
 _symmetry_equiv_pos_as_xyz
  1  'x, y, z'
loop_
 _atom_site_type_symbol
 _atom_site_label
 _atom_site_symmetry_multiplicity
 _atom_site_fract_x
 _atom_site_fract_y
 _atom_site_fract_z
 _atom_site_occupancy
  Zn  Zn1  1  0.62799200  0.48663600  0.48653600  1
  Zn  Zn2  1  0.37200800  0.51336400  0.51346400  1
  H  H1  1  0.36423800  0.49741800  0.83100200  1
  H  H2  1  0.63576200  0.50258200  0.16899800  1
  H  H3  1  0.27137000  0.49975900  0.98349500  1
  H  H4  1  0.72863000  0.50024100  0.01650500  1
  H  H5  1  0.80347300  0.61369700  0.55563300  1
  H  H6  1  0.19652700  0.38630300  0.44436700  1
  H  H7  1  0.97259800  0.69409400  0.60605300  1
  H  H8  1  0.02740200  0.30590600  0.39394700  1
  C  C1  1  0.46905400  0.50141500  0.30035600  1
  C  C2  1  0.53094600  0.49858500  0.69964400  1
  C  C3  1  0.48969400  0.28140900  0.50198100  1
  C  C4  1  0.51030600  0.71859100  0.49801900  1
  C  C5  1  0.48963600  0.16090300  0.50175700  1
  C  C6  1  0.51036400  0.83909700  0.49824300  1
  C  C7  1  0.49539900  0.05944800  0.50075700  1
  C  C8  1  0.50460100  0.94055200  0.49924300  1
  C  C9  1  0.54504400  0.49832700  0.81286000  1
  C  C10  1  0.45495600  0.50167300  0.18714000  1
  C  C11  1  0.34973100  0.50021900  0.02742000  1
  C  C12  1  0.65027000  0.49978100  0.97258000  1
  C  C13  1  0.35016900  0.50092800  0.13366100  1
  C  C14  1  0.64983100  0.49907200  0.86633900  1
  C  C15  1  0.55373700  0.50152200  0.13106000  1
  C  C16  1  0.44626300  0.49847700  0.86894000  1
  C  C17  1  0.55075600  0.50029900  0.02579700  1
  C  C18  1  0.44924400  0.49970100  0.97420300  1
  C  C19  1  0.02346200  0.62509100  0.57269300  1
  C  C20  1  0.97653800  0.37490900  0.42730700  1
  C  C21  1  0.14136000  0.62121400  0.57671600  1
  C  C22  1  0.85864100  0.37878500  0.42328400  1
  C  C23  1  0.14841800  0.45378500  0.48239600  1
  C  C24  1  0.85158200  0.54621500  0.51760400  1
  C  C25  1  0.03136800  0.45716900  0.47748000  1
  C  C26  1  0.96863300  0.54283100  0.52251900  1
  C  C27  1  0.76249500  0.50101800  0.81446700  1
  C  C28  1  0.23750500  0.49898200  0.18553300  1
  C  C29  1  0.80480500  0.28196300  0.37314200  1
  C  C30  1  0.19519500  0.71803700  0.62685800  1
  N  N1  1  0.79670000  0.46522900  0.46910300  1
  N  N2  1  0.20330000  0.53477100  0.53089700  1
  O  O1  1  0.57333100  0.49279400  0.33870900  1
  O  O2  1  0.42667000  0.50720600  0.66129100  1
  O  O3  1  0.37983900  0.50968000  0.35899000  1
  O  O4  1  0.62016100  0.49032000  0.64101000  1
  O  O5  1  0.58774100  0.32433900  0.49201200  1
  O  O6  1  0.41225900  0.67566100  0.50798800  1
  O  O7  1  0.39359700  0.34287700  0.51131200  1
  O  O8  1  0.60640400  0.65712300  0.48868800  1
  F  F1  1  0.85075900  0.50484800  0.88515300  1
  F  F2  1  0.76290900  0.59582800  0.75356000  1
  F  F3  1  0.78241200  0.40463200  0.75670900  1
  F  F4  1  0.14924200  0.49515200  0.11484700  1
  F  F5  1  0.21758800  0.59536800  0.24329100  1
  F  F6  1  0.23709100  0.40417200  0.24644000  1
  F  F7  1  0.87963800  0.22709400  0.30674800  1
  F  F8  1  0.70923000  0.31889900  0.31736000  1
  F  F9  1  0.77716400  0.20605200  0.44684800  1
  F  F10  1  0.12036300  0.77290500  0.69325200  1
  F  F11  1  0.22283600  0.79394800  0.55315200  1
  F  F12  1  0.29077000  0.68110100  0.68264000  1
