# generated using pymatgen
data_ZnH22C29NO4
_symmetry_space_group_name_H-M   'P 1'
_cell_length_a   11.23974600
_cell_length_b   15.24512400
_cell_length_c   14.03815300
_cell_angle_alpha   90.00494600
_cell_angle_beta   102.07148400
_cell_angle_gamma   89.99357000
_symmetry_Int_Tables_number   1
_chemical_formula_structural   ZnH22C29NO4
_chemical_formula_sum   'Zn2 H44 C58 N2 O8'
_cell_volume   2352.26526245
_cell_formula_units_Z   2
loop_
 _symmetry_equiv_pos_site_id
 _symmetry_equiv_pos_as_xyz
  1  'x, y, z'
loop_
 _atom_site_type_symbol
 _atom_site_label
 _atom_site_symmetry_multiplicity
 _atom_site_fract_x
 _atom_site_fract_y
 _atom_site_fract_z
 _atom_site_occupancy
  Zn  Zn1  1  0.50169800  0.50041900  0.60587500  1
  Zn  Zn2  1  0.49827300  0.50041000  0.38868600  1
  H  H1  1  0.88627800  0.50282600  0.40983400  1
  H  H2  1  0.11368900  0.50284500  0.58472600  1
  H  H3  1  0.92001100  0.50038300  0.63220000  1
  H  H4  1  0.07995900  0.50038300  0.36236000  1
  H  H5  1  0.40168500  0.05752000  0.61067700  1
  H  H6  1  0.38633900  0.94273700  0.35618500  1
  H  H7  1  0.59830000  0.05748100  0.38386400  1
  H  H8  1  0.61364000  0.94275000  0.63837300  1
  H  H9  1  0.31401000  0.54458600  0.03231500  1
  H  H10  1  0.68594800  0.54457500  0.96226000  1
  H  H11  1  0.31464100  0.54075300  0.20521600  1
  H  H12  1  0.68532400  0.54075400  0.78935800  1
  H  H13  1  0.68036600  0.46029800  0.26795800  1
  H  H14  1  0.31959700  0.46035300  0.72658800  1
  H  H15  1  0.68438600  0.45777300  0.09615400  1
  H  H16  1  0.31557000  0.45781900  0.89838800  1
  H  H17  1  0.58738100  0.17635500  0.72976100  1
  H  H18  1  0.50879400  0.12745000  0.81640100  1
  H  H19  1  0.56482100  0.23841700  0.83266200  1
  H  H20  1  0.34593600  0.24996100  0.85733100  1
  H  H21  1  0.14710300  0.30850200  0.77689200  1
  H  H22  1  0.09054100  0.31483500  0.59821500  1
  H  H23  1  0.23137500  0.26025600  0.50004400  1
  H  H24  1  0.55836800  0.82798900  0.28241600  1
  H  H25  1  0.46473800  0.87531400  0.17422800  1
  H  H26  1  0.52447300  0.76573800  0.17210300  1
  H  H27  1  0.30008100  0.74816100  0.09129000  1
  H  H28  1  0.11216300  0.68353100  0.12239900  1
  H  H29  1  0.07837800  0.67561200  0.28957400  1
  H  H30  1  0.23063800  0.73503900  0.42507900  1
  H  H31  1  0.41261400  0.17631700  0.26477100  1
  H  H32  1  0.49120800  0.12740100  0.17812700  1
  H  H33  1  0.43516600  0.23837200  0.16187800  1
  H  H34  1  0.65405700  0.24988500  0.13721000  1
  H  H35  1  0.85288000  0.30841700  0.21765400  1
  H  H36  1  0.90943500  0.31476900  0.39633200  1
  H  H37  1  0.76860400  0.26021400  0.49449800  1
  H  H38  1  0.44155800  0.82805600  0.71213300  1
  H  H39  1  0.53516700  0.87537500  0.82033500  1
  H  H40  1  0.47541600  0.76581200  0.82244500  1
  H  H41  1  0.69979900  0.74820400  0.90329700  1
  H  H42  1  0.88773000  0.68353300  0.87222200  1
  H  H43  1  0.92156300  0.67558000  0.70506100  1
  H  H44  1  0.76933300  0.73501100  0.56953500  1
  C  C1  1  0.49999400  0.32805800  0.49726800  1
  C  C2  1  0.49997900  0.67262500  0.49729300  1
  C  C3  1  0.26193100  0.50055400  0.45892800  1
  C  C4  1  0.73803900  0.50053600  0.53563200  1
  C  C5  1  0.12859200  0.50104500  0.43767000  1
  C  C6  1  0.87137800  0.50103100  0.55689000  1
  C  C7  1  0.06668600  0.50225800  0.50902700  1
  C  C8  1  0.93328300  0.50224800  0.48553200  1
  C  C9  1  0.44676900  0.09329500  0.56187700  1
  C  C10  1  0.43803600  0.90695700  0.41759500  1
  C  C11  1  0.44422200  0.18386400  0.56149200  1
  C  C12  1  0.43575000  0.81637400  0.41730600  1
  C  C13  1  0.49999300  0.23082100  0.49726800  1
  C  C14  1  0.49997800  0.76965600  0.49729100  1
  C  C15  1  0.55576300  0.18384300  0.43304400  1
  C  C16  1  0.56421200  0.81638200  0.57727000  1
  C  C17  1  0.55321700  0.09327300  0.43266300  1
  C  C18  1  0.56194100  0.90696400  0.57696600  1
  C  C19  1  0.49999400  0.04800600  0.49727100  1
  C  C20  1  0.49999400  0.95222400  0.49727600  1
  C  C21  1  0.39572700  0.52397400  0.08241200  1
  C  C22  1  0.60423400  0.52397700  0.91215500  1
  C  C23  1  0.39619200  0.52282700  0.18077200  1
  C  C24  1  0.60377200  0.52283600  0.81379500  1
  C  C25  1  0.59944500  0.47845200  0.21568000  1
  C  C26  1  0.40051800  0.47849200  0.77887100  1
  C  C27  1  0.60195400  0.47814600  0.11792400  1
  C  C28  1  0.39800400  0.47818000  0.87662600  1
  C  C29  1  0.49941000  0.50128200  0.04970800  1
  C  C30  1  0.50055000  0.50129100  0.94485100  1
  C  C31  1  0.37032100  0.22594700  0.62306800  1
  C  C32  1  0.40253400  0.22268700  0.72430400  1
  C  C33  1  0.52292500  0.18889900  0.77795800  1
  C  C34  1  0.32162200  0.25249900  0.77869100  1
  C  C35  1  0.20990900  0.28551300  0.73366000  1
  C  C36  1  0.17852700  0.28954600  0.63362000  1
  C  C37  1  0.25830400  0.25965400  0.57861600  1
  C  C38  1  0.35382000  0.77349500  0.33551800  1
  C  C39  1  0.37326100  0.77744800  0.24085600  1
  C  C40  1  0.48696300  0.81413300  0.21698900  1
  C  C41  1  0.28568300  0.74514900  0.16498900  1
  C  C42  1  0.18009600  0.70867300  0.18230300  1
  C  C43  1  0.16143700  0.70386600  0.27595300  1
  C  C44  1  0.24769500  0.73652500  0.35211100  1
  C  C45  1  0.62966600  0.22590400  0.37147000  1
  C  C46  1  0.59745600  0.22263400  0.27023400  1
  C  C47  1  0.47706900  0.18885300  0.21657600  1
  C  C48  1  0.67836800  0.25243100  0.21585000  1
  C  C49  1  0.79007600  0.28544000  0.26088400  1
  C  C50  1  0.82145400  0.28948200  0.36092500  1
  C  C51  1  0.74167800  0.25960500  0.41592500  1
  C  C52  1  0.64612400  0.77350500  0.65907000  1
  C  C53  1  0.62665700  0.77748000  0.75372400  1
  C  C54  1  0.51294700  0.81419300  0.77757000  1
  C  C55  1  0.71421700  0.74517600  0.82960400  1
  C  C56  1  0.81981100  0.70867800  0.81230800  1
  C  C57  1  0.83849700  0.70385200  0.71866700  1
  C  C58  1  0.75225700  0.73651300  0.64249700  1
  N  N1  1  0.49736800  0.50039000  0.24596400  1
  N  N2  1  0.50260400  0.50040200  0.74859700  1
  O  O1  1  0.50171300  0.36969600  0.57956700  1
  O  O2  1  0.49855000  0.63113200  0.41496700  1
  O  O3  1  0.49827700  0.36968700  0.41497100  1
  O  O4  1  0.50141500  0.63114200  0.57961800  1
  O  O5  1  0.32027900  0.50045300  0.55009900  1
  O  O6  1  0.67969100  0.50040700  0.44446100  1
  O  O7  1  0.31716800  0.50050000  0.38537000  1
  O  O8  1  0.68280300  0.50051700  0.60919000  1
