# generated using pymatgen
data_Zn3H12(C13O6)2
_symmetry_space_group_name_H-M   'P 1'
_cell_length_a   33.42816000
_cell_length_b   29.06329400
_cell_length_c   21.23293000
_cell_angle_alpha   90.00000000
_cell_angle_beta   119.97749100
_cell_angle_gamma   90.00000000
_symmetry_Int_Tables_number   1
_chemical_formula_structural   Zn3H12(C13O6)2
_chemical_formula_sum   'Zn12 H48 C104 O48'
_cell_volume   17868.83864382
_cell_formula_units_Z   4
loop_
 _symmetry_equiv_pos_site_id
 _symmetry_equiv_pos_as_xyz
  1  'x, y, z'
loop_
 _atom_site_type_symbol
 _atom_site_label
 _atom_site_symmetry_multiplicity
 _atom_site_fract_x
 _atom_site_fract_y
 _atom_site_fract_z
 _atom_site_occupancy
  Zn  Zn1  1  0.00122500  0.94791200  0.00143100  1
  Zn  Zn2  1  0.99877500  0.05208800  0.99856900  1
  Zn  Zn3  1  0.49886800  0.44790800  0.99864300  1
  Zn  Zn4  1  0.50113200  0.55209200  0.00135700  1
  Zn  Zn5  1  0.94770500  0.00153900  0.46218900  1
  Zn  Zn6  1  0.05229500  0.99846100  0.53781100  1
  Zn  Zn7  1  0.44770500  0.49844600  0.46210000  1
  Zn  Zn8  1  0.55229500  0.50155400  0.53790100  1
  Zn  Zn9  1  0.50902300  0.00057100  0.43688900  1
  Zn  Zn10  1  0.49097700  0.99942900  0.56311200  1
  Zn  Zn11  1  0.00906000  0.49953900  0.43692600  1
  Zn  Zn12  1  0.99094000  0.50046100  0.56307400  1
  H  H1  1  0.97887200  0.92941500  0.78902200  1
  H  H2  1  0.02112800  0.07058500  0.21097800  1
  H  H3  1  0.97471000  0.92955600  0.18290900  1
  H  H4  1  0.02529000  0.07044400  0.81709100  1
  H  H5  1  0.52581700  0.42973400  0.81741000  1
  H  H6  1  0.47418300  0.57026600  0.18259000  1
  H  H7  1  0.52202500  0.42972500  0.21154200  1
  H  H8  1  0.47797500  0.57027500  0.78845800  1
  H  H9  1  0.93772200  0.97609300  0.75197500  1
  H  H10  1  0.06227800  0.02390700  0.24802500  1
  H  H11  1  0.03595000  0.94173700  0.22278500  1
  H  H12  1  0.96405000  0.05826300  0.77721600  1
  H  H13  1  0.46445300  0.44130300  0.77739800  1
  H  H14  1  0.53554700  0.55869700  0.22260200  1
  H  H15  1  0.56268200  0.47681800  0.24834600  1
  H  H16  1  0.43731800  0.52318200  0.75165400  1
  H  H17  1  0.93919300  0.96632800  0.64896900  1
  H  H18  1  0.06080700  0.03367200  0.35103200  1
  H  H19  1  0.04471800  0.94945400  0.33317000  1
  H  H20  1  0.95528200  0.05054600  0.66683000  1
  H  H21  1  0.45565300  0.44902900  0.66698300  1
  H  H22  1  0.54434700  0.55097100  0.33301700  1
  H  H23  1  0.56128400  0.46690000  0.35135900  1
  H  H24  1  0.43871600  0.53310000  0.64864100  1
  H  H25  1  0.98725600  0.92675900  0.69141400  1
  H  H26  1  0.01274400  0.07324100  0.30858600  1
  H  H27  1  0.98639800  0.92818800  0.29635500  1
  H  H28  1  0.01360200  0.07181200  0.70364600  1
  H  H29  1  0.51418600  0.42835100  0.70398200  1
  H  H30  1  0.48581400  0.57164900  0.29601900  1
  H  H31  1  0.51361300  0.42687000  0.30913600  1
  H  H32  1  0.48638700  0.57313000  0.69086400  1
  H  H33  1  0.06275900  0.94769900  0.84791900  1
  H  H34  1  0.93724100  0.05230100  0.15208100  1
  H  H35  1  0.91732400  0.99349900  0.12978000  1
  H  H36  1  0.08267600  0.00650100  0.87022000  1
  H  H37  1  0.58257100  0.49426300  0.87014900  1
  H  H38  1  0.41742900  0.50573700  0.12985200  1
  H  H39  1  0.43794700  0.44713700  0.15257200  1
  H  H40  1  0.56205300  0.55286300  0.84742800  1
  H  H41  1  0.06872100  0.95510800  0.74787300  1
  H  H42  1  0.93127900  0.04489200  0.25212700  1
  H  H43  1  0.92054100  0.98355700  0.23711200  1
  H  H44  1  0.07945900  0.01644300  0.76288900  1
  H  H45  1  0.57948200  0.48434000  0.76292900  1
  H  H46  1  0.42051900  0.51566000  0.23707100  1
  H  H47  1  0.43187200  0.45443000  0.25253600  1
  H  H48  1  0.56812900  0.54557000  0.74746400  1
  C  C1  1  0.90975200  0.99901400  0.91619600  1
  C  C2  1  0.09024800  0.00098600  0.08380500  1
  C  C3  1  0.40973400  0.50082500  0.91638400  1
  C  C4  1  0.59026600  0.49917500  0.08361600  1
  C  C5  1  0.00859200  0.99844300  0.88474600  1
  C  C6  1  0.99140800  0.00155700  0.11525400  1
  C  C7  1  0.50843000  0.50154700  0.88460300  1
  C  C8  1  0.49157000  0.49845300  0.11539700  1
  C  C9  1  0.97247700  0.96423300  0.76455400  1
  C  C10  1  0.02752300  0.03576700  0.23544600  1
  C  C11  1  0.00287100  0.95387000  0.21725200  1
  C  C12  1  0.99712900  0.04613000  0.78274800  1
  C  C13  1  0.49742200  0.45378000  0.78289700  1
  C  C14  1  0.50257800  0.54622000  0.21710300  1
  C  C15  1  0.52804700  0.46457900  0.23581300  1
  C  C16  1  0.47195300  0.53542100  0.76418800  1
  C  C17  1  0.97453100  0.96122700  0.69556700  1
  C  C18  1  0.02546900  0.03877300  0.30443300  1
  C  C19  1  0.00803700  0.95540300  0.29172100  1
  C  C20  1  0.99196300  0.04459700  0.70827900  1
  C  C21  1  0.49226600  0.45532500  0.70843100  1
  C  C22  1  0.50773400  0.54467500  0.29156900  1
  C  C23  1  0.52599800  0.46147700  0.30479500  1
  C  C24  1  0.47400200  0.53852300  0.69520600  1
  C  C25  1  0.05568800  0.98384700  0.82871300  1
  C  C26  1  0.94431200  0.01615300  0.17128700  1
  C  C27  1  0.55535800  0.51665300  0.82847700  1
  C  C28  1  0.44464200  0.48334700  0.17152300  1
  C  C29  1  0.00864900  0.99819300  0.81554100  1
  C  C30  1  0.99135100  0.00180700  0.18446000  1
  C  C31  1  0.50846500  0.50181200  0.81538700  1
  C  C32  1  0.49153500  0.49818800  0.18461300  1
  C  C33  1  0.00724000  0.99786500  0.69714200  1
  C  C34  1  0.99276000  0.00213500  0.30285800  1
  C  C35  1  0.50707800  0.50222500  0.69701600  1
  C  C36  1  0.49292200  0.49777500  0.30298400  1
  C  C37  1  0.05602900  0.98794300  0.75814900  1
  C  C38  1  0.94397100  0.01205700  0.24185100  1
  C  C39  1  0.55576200  0.51260200  0.75796700  1
  C  C40  1  0.44423800  0.48739800  0.24203300  1
  C  C41  1  0.86010900  0.99780700  0.86764900  1
  C  C42  1  0.13989100  0.00219300  0.13235200  1
  C  C43  1  0.36008200  0.50193900  0.86788600  1
  C  C44  1  0.63991800  0.49806100  0.13211400  1
  C  C45  1  0.81863500  0.99726300  0.82629600  1
  C  C46  1  0.18136500  0.00273700  0.17370400  1
  C  C47  1  0.31860600  0.50243200  0.82654800  1
  C  C48  1  0.68139400  0.49756800  0.17345300  1
  C  C49  1  0.76994900  0.99703400  0.77714900  1
  C  C50  1  0.23005100  0.00296600  0.22285100  1
  C  C51  1  0.26992000  0.50265100  0.77738800  1
  C  C52  1  0.73008000  0.49734900  0.22261200  1
  C  C53  1  0.72856400  0.99709000  0.73507800  1
  C  C54  1  0.27143700  0.00291000  0.26492200  1
  C  C55  1  0.22853700  0.50262700  0.73529200  1
  C  C56  1  0.77146300  0.49737300  0.26470800  1
  C  C57  1  0.67994100  0.99739500  0.68545800  1
  C  C58  1  0.32005900  0.00260500  0.31454300  1
  C  C59  1  0.17991900  0.50240800  0.68563300  1
  C  C60  1  0.82008100  0.49759200  0.31436700  1
  C  C61  1  0.63858400  0.99780500  0.64320100  1
  C  C62  1  0.36141600  0.00219500  0.35679900  1
  C  C63  1  0.13856600  0.50208800  0.64333700  1
  C  C64  1  0.86143400  0.49791200  0.35666300  1
  C  C65  1  0.99832800  0.91011100  0.49637900  1
  C  C66  1  0.00167200  0.08988900  0.50362100  1
  C  C67  1  0.50169600  0.41011200  0.50378200  1
  C  C68  1  0.49830400  0.58988800  0.49621900  1
  C  C69  1  0.00568200  0.99814900  0.62675800  1
  C  C70  1  0.99431800  0.00185100  0.37324200  1
  C  C71  1  0.50555900  0.50196400  0.62666600  1
  C  C72  1  0.49444100  0.49803600  0.37333400  1
  C  C73  1  0.50164600  0.08994300  0.50185400  1
  C  C74  1  0.49835400  0.91005700  0.49814600  1
  C  C75  1  0.99832200  0.58994300  0.49838900  1
  C  C76  1  0.00167800  0.41005700  0.50161100  1
  C  C77  1  0.58916400  0.99843500  0.59274400  1
  C  C78  1  0.41083600  0.00156500  0.40725700  1
  C  C79  1  0.08915200  0.50154900  0.59282900  1
  C  C80  1  0.91084800  0.49845100  0.40717100  1
  C  C81  1  0.99682100  0.86078200  0.49455400  1
  C  C82  1  0.00317900  0.13921800  0.50544600  1
  C  C83  1  0.50319000  0.36078300  0.50569900  1
  C  C84  1  0.49681000  0.63921700  0.49430100  1
  C  C85  1  0.99616400  0.81933200  0.49381400  1
  C  C86  1  0.00383600  0.18066800  0.50618600  1
  C  C87  1  0.50381300  0.31933400  0.50649900  1
  C  C88  1  0.49618700  0.68066600  0.49350100  1
  C  C89  1  0.99597500  0.77075800  0.49374400  1
  C  C90  1  0.00402500  0.22924200  0.50625600  1
  C  C91  1  0.50397900  0.27075900  0.50663100  1
  C  C92  1  0.49602100  0.72924100  0.49336900  1
  C  C93  1  0.50375000  0.22930300  0.50615500  1
  C  C94  1  0.49625000  0.77069700  0.49384500  1
  C  C95  1  0.99619100  0.72930300  0.49424500  1
  C  C96  1  0.00380900  0.27069700  0.50575500  1
  C  C97  1  0.50316000  0.18073300  0.50502300  1
  C  C98  1  0.49684000  0.81926700  0.49497700  1
  C  C99  1  0.99677400  0.68073300  0.49536400  1
  C  C100  1  0.00322600  0.31926700  0.50463600  1
  C  C101  1  0.50250200  0.13928600  0.50370600  1
  C  C102  1  0.49749800  0.86071400  0.49629400  1
  C  C103  1  0.99744000  0.63928700  0.49663600  1
  C  C104  1  0.00256000  0.36071300  0.50336400  1
  O  O1  1  0.93265900  0.95992400  0.93628900  1
  O  O2  1  0.06734100  0.04007600  0.06371200  1
  O  O3  1  0.06985100  0.96071600  0.06323800  1
  O  O4  1  0.93014900  0.03928400  0.93676200  1
  O  O5  1  0.43021000  0.46059200  0.93695600  1
  O  O6  1  0.56979000  0.53940800  0.06304400  1
  O  O7  1  0.56742600  0.46004300  0.06361100  1
  O  O8  1  0.43257400  0.53995700  0.93638900  1
  O  O9  1  0.00917200  0.95876400  0.91421200  1
  O  O10  1  0.99082900  0.04123600  0.08578900  1
  O  O11  1  0.99540300  0.96186600  0.08986000  1
  O  O12  1  0.00459700  0.03813400  0.91014100  1
  O  O13  1  0.50455600  0.46184600  0.91008900  1
  O  O14  1  0.49544400  0.53815400  0.08991100  1
  O  O15  1  0.49102400  0.45877500  0.08595600  1
  O  O16  1  0.50897600  0.54122500  0.91404500  1
  O  O17  1  0.95912500  0.93281400  0.46686100  1
  O  O18  1  0.04087500  0.06718600  0.53313900  1
  O  O19  1  0.03896000  0.93005700  0.52816100  1
  O  O20  1  0.96104000  0.06994300  0.47183900  1
  O  O21  1  0.46106400  0.43004600  0.47190700  1
  O  O22  1  0.53893600  0.56995400  0.52809400  1
  O  O23  1  0.54089500  0.43282800  0.53332500  1
  O  O24  1  0.45910500  0.56717200  0.46667500  1
  O  O25  1  0.96504700  0.00110700  0.56812200  1
  O  O26  1  0.03495300  0.99889300  0.43187800  1
  O  O27  1  0.46495100  0.49895000  0.56798900  1
  O  O28  1  0.53504900  0.50105000  0.43201100  1
  O  O29  1  0.04469000  0.99621400  0.62653000  1
  O  O30  1  0.95531000  0.00378600  0.37347000  1
  O  O31  1  0.54459300  0.50389200  0.62652500  1
  O  O32  1  0.45540700  0.49610800  0.37347500  1
  O  O33  1  0.50691700  0.06919500  0.45165200  1
  O  O34  1  0.49308300  0.93080500  0.54834800  1
  O  O35  1  0.49559300  0.06796200  0.55040900  1
  O  O36  1  0.50440700  0.93203800  0.44959100  1
  O  O37  1  0.00441300  0.56804300  0.44981200  1
  O  O38  1  0.99558700  0.43195700  0.55018800  1
  O  O39  1  0.99303300  0.56911400  0.54851600  1
  O  O40  1  0.00696700  0.43088600  0.45148400  1
  O  O41  1  0.57441600  0.00029500  0.52259500  1
  O  O42  1  0.42558400  0.99970500  0.47740500  1
  O  O43  1  0.07443400  0.49977400  0.52268500  1
  O  O44  1  0.92556600  0.50022600  0.47731500  1
  O  O45  1  0.56093900  0.99725300  0.61901100  1
  O  O46  1  0.43906200  0.00274700  0.38098900  1
  O  O47  1  0.06090100  0.50266000  0.61905100  1
  O  O48  1  0.93909900  0.49734000  0.38094900  1
