# generated using pymatgen
data_Zn2H17C31N3O8
_symmetry_space_group_name_H-M   'P 1'
_cell_length_a   12.37693100
_cell_length_b   13.35806200
_cell_length_c   6.71100400
_cell_angle_alpha   90.00000000
_cell_angle_beta   80.34797500
_cell_angle_gamma   90.00000000
_symmetry_Int_Tables_number   1
_chemical_formula_structural   Zn2H17C31N3O8
_chemical_formula_sum   'Zn2 H17 C31 N3 O8'
_cell_volume   1093.83599214
_cell_formula_units_Z   1
loop_
 _symmetry_equiv_pos_site_id
 _symmetry_equiv_pos_as_xyz
  1  'x, y, z'
loop_
 _atom_site_type_symbol
 _atom_site_label
 _atom_site_symmetry_multiplicity
 _atom_site_fract_x
 _atom_site_fract_y
 _atom_site_fract_z
 _atom_site_occupancy
  Zn  Zn1  1  0.99862100  0.11142800  0.98839100  1
  Zn  Zn2  1  0.00218800  0.89060500  0.01524300  1
  H  H1  1  0.15397300  0.74757600  0.11957700  1
  H  H2  1  0.15773600  0.24839600  0.05511700  1
  H  H3  1  0.14037000  0.53286700  0.31697600  1
  H  H4  1  0.24472500  0.40027300  0.13200900  1
  H  H5  1  0.84665800  0.25450600  0.88259400  1
  H  H6  1  0.84266500  0.75354300  0.94799100  1
  H  H7  1  0.75329400  0.41056400  0.86189200  1
  H  H8  1  0.76050700  0.54046500  0.10889800  1
  H  H9  1  0.75582000  0.60170700  0.87065800  1
  H  H10  1  0.86057600  0.46943200  0.68508900  1
  H  H11  1  0.24755200  0.59146500  0.13954800  1
  H  H12  1  0.24018100  0.46126400  0.89347200  1
  H  H13  1  0.34667300  0.05201100  0.03707100  1
  H  H14  1  0.64523200  0.95890500  0.96504700  1
  H  H15  1  0.52080600  0.04736600  0.15418900  1
  H  H16  1  0.65448600  0.02483900  0.24420400  1
  H  H17  1  0.45187300  0.94346700  0.01463500  1
  C  C1  1  0.15301500  0.00987200  0.23419800  1
  C  C2  1  0.15590100  0.99523800  0.67763000  1
  C  C3  1  0.84510900  0.99282900  0.77317100  1
  C  C4  1  0.84750200  0.00658200  0.32809400  1
  C  C5  1  0.91271300  0.71114100  0.97735100  1
  C  C6  1  0.91430400  0.29417000  0.92939800  1
  C  C7  1  0.08631700  0.70788700  0.07286900  1
  C  C8  1  0.08777500  0.29083200  0.02545800  1
  C  C9  1  0.08619600  0.60457000  0.06900400  1
  C  C10  1  0.09045500  0.39395200  0.03001100  1
  C  C11  1  0.99995200  0.55508100  0.00826800  1
  C  C12  1  0.00073000  0.44693700  0.99395100  1
  C  C13  1  0.91013800  0.60803200  0.97251000  1
  C  C14  1  0.91452300  0.39747900  0.93304200  1
  C  C15  1  0.17089600  0.54707500  0.15448300  1
  C  C16  1  0.19411700  0.44742000  0.04749300  1
  C  C17  1  0.82989500  0.45500800  0.84745200  1
  C  C18  1  0.80651800  0.55451500  0.95491600  1
  C  C19  1  0.25282200  0.01506200  0.32280000  1
  C  C20  1  0.34905500  0.03452300  0.19361700  1
  C  C21  1  0.44798600  0.03062300  0.26069300  1
  C  C22  1  0.25527200  0.99508100  0.52473100  1
  C  C23  1  0.35498700  0.98900500  0.59111500  1
  C  C24  1  0.45184400  0.00569200  0.45932400  1
  C  C25  1  0.55063400  0.99968300  0.53027000  1
  C  C26  1  0.64983300  0.01305200  0.40395500  1
  C  C27  1  0.74713900  0.00686600  0.47728000  1
  C  C28  1  0.45202400  0.96188600  0.85775000  1
  C  C29  1  0.55001600  0.97797000  0.73088200  1
  C  C30  1  0.64699800  0.97313900  0.80598000  1
  C  C31  1  0.74602800  0.98858800  0.68094300  1
  N  N1  1  0.00138100  0.75932200  0.02169200  1
  N  N2  1  0.99909700  0.24269700  0.98102700  1
  N  N3  1  0.35681200  0.96801000  0.78678800  1
  O  O1  1  0.11708500  0.92209400  0.18623600  1
  O  O2  1  0.11657500  0.09136700  0.15884900  1
  O  O3  1  0.11542100  0.08154100  0.74804300  1
  O  O4  1  0.12157000  0.91211900  0.77214700  1
  O  O5  1  0.88252400  0.08029200  0.81918300  1
  O  O6  1  0.88254000  0.91094100  0.84584200  1
  O  O7  1  0.88674700  0.92023400  0.25607600  1
  O  O8  1  0.88072100  0.08958900  0.23204800  1
