# generated using pymatgen
data_Zn2H21C40N3O10
_symmetry_space_group_name_H-M   'P 1'
_cell_length_a   13.40790300
_cell_length_b   8.54474900
_cell_length_c   19.35833000
_cell_angle_alpha   90.00000000
_cell_angle_beta   91.03866700
_cell_angle_gamma   90.00000000
_symmetry_Int_Tables_number   1
_chemical_formula_structural   Zn2H21C40N3O10
_chemical_formula_sum   'Zn2 H21 C40 N3 O10'
_cell_volume   2217.46458902
_cell_formula_units_Z   1
loop_
 _symmetry_equiv_pos_site_id
 _symmetry_equiv_pos_as_xyz
  1  'x, y, z'
loop_
 _atom_site_type_symbol
 _atom_site_label
 _atom_site_symmetry_multiplicity
 _atom_site_fract_x
 _atom_site_fract_y
 _atom_site_fract_z
 _atom_site_occupancy
  Zn  Zn1  1  0.88824300  0.50511300  0.39457200  1
  Zn  Zn2  1  0.10996500  0.50579100  0.38377900  1
  H  H1  1  0.04399700  0.00538500  0.43725900  1
  H  H2  1  0.98161800  0.25632400  0.61963400  1
  H  H3  1  0.99560400  0.75342400  0.62112300  1
  H  H4  1  0.06187700  0.77691600  0.93462500  1
  H  H5  1  0.93947200  0.23661300  0.93542800  1
  H  H6  1  0.07237500  0.77859500  0.05963000  1
  H  H7  1  0.93865800  0.23495800  0.06008100  1
  H  H8  1  0.01715700  0.25579100  0.15865500  1
  H  H9  1  0.00015200  0.75307800  0.15724200  1
  H  H10  1  0.95529800  0.00578800  0.34137700  1
  H  H11  1  0.05794300  0.23590600  0.84308800  1
  H  H12  1  0.93277800  0.77799200  0.84345000  1
  H  H13  1  0.05934200  0.23438400  0.71846400  1
  H  H14  1  0.92272600  0.78014800  0.71843000  1
  H  H15  1  0.24129500  0.53703200  0.48721600  1
  H  H16  1  0.74730800  0.47758600  0.29141700  1
  H  H17  1  0.59649700  0.45223900  0.22808100  1
  H  H18  1  0.41681600  0.53983900  0.50114200  1
  H  H19  1  0.57112900  0.52988100  0.50840800  1
  H  H20  1  0.75014300  0.52943700  0.50699400  1
  H  H21  1  0.26070600  0.32314900  0.16756300  1
  C  C1  1  0.01443900  0.14484000  0.52507900  1
  C  C2  1  0.01421200  0.86626900  0.52516100  1
  C  C3  1  0.99529600  0.14552600  0.59480400  1
  C  C4  1  0.99918700  0.86514700  0.59546000  1
  C  C5  1  0.99414500  0.00570600  0.63158100  1
  C  C6  1  0.02878600  0.00550400  0.49163100  1
  C  C7  1  0.03531300  0.87779800  0.96250000  1
  C  C8  1  0.96913300  0.13625900  0.96287000  1
  C  C9  1  0.04035400  0.87894900  0.03379200  1
  C  C10  1  0.97018400  0.13548100  0.03405700  1
  C  C11  1  0.00639200  0.00715900  0.07049200  1
  C  C12  1  0.00012000  0.00666900  0.92689000  1
  C  C13  1  0.00322900  0.14516000  0.18356100  1
  C  C14  1  0.99742800  0.86485600  0.18291500  1
  C  C15  1  0.98494600  0.14468700  0.25340800  1
  C  C16  1  0.98304300  0.86620400  0.25328800  1
  C  C17  1  0.96998000  0.00563900  0.28692600  1
  C  C18  1  0.00309700  0.00532100  0.14676300  1
  C  C19  1  0.02775400  0.13605600  0.81555200  1
  C  C20  1  0.96001500  0.87858000  0.81567900  1
  C  C21  1  0.02703400  0.13538400  0.74437200  1
  C  C22  1  0.95526000  0.87995300  0.74438200  1
  C  C23  1  0.99025000  0.00764300  0.70781600  1
  C  C24  1  0.99588700  0.00683900  0.85141200  1
  C  C25  1  0.00903500  0.72403800  0.48339900  1
  C  C26  1  0.00982500  0.28701100  0.48333500  1
  C  C27  1  0.98820000  0.72402600  0.29505400  1
  C  C28  1  0.98958200  0.28693900  0.29506100  1
  C  C29  1  0.29762600  0.48078600  0.32298400  1
  C  C30  1  0.28549200  0.52484000  0.44152200  1
  C  C31  1  0.38764900  0.52357100  0.44958000  1
  C  C32  1  0.44743900  0.50281800  0.39293800  1
  C  C33  1  0.40069700  0.48130700  0.32935400  1
  C  C34  1  0.60567600  0.51820100  0.45900900  1
  C  C35  1  0.55165800  0.50245200  0.39735600  1
  C  C36  1  0.60439800  0.48548100  0.33737100  1
  C  C37  1  0.55501100  0.46614100  0.27505700  1
  C  C38  1  0.70876200  0.51779700  0.45881900  1
  C  C39  1  0.70706100  0.48798900  0.33904500  1
  C  C40  1  0.25398800  0.44474900  0.25451200  1
  N  N1  1  0.24069900  0.50648800  0.37909200  1
  N  N2  1  0.45502600  0.46368100  0.27218100  1
  N  N3  1  0.75776100  0.50415200  0.39915000  1
  O  O1  1  0.09137300  0.67479700  0.45502600  1
  O  O2  1  0.09232000  0.33644600  0.45500600  1
  O  O3  1  0.92031300  0.66899500  0.46658800  1
  O  O4  1  0.92120500  0.34209600  0.46672600  1
  O  O5  1  0.90598300  0.67407400  0.32322800  1
  O  O6  1  0.90718400  0.33592000  0.32346500  1
  O  O7  1  0.07685900  0.66969600  0.31214800  1
  O  O8  1  0.07797100  0.34265000  0.31161900  1
  O  O9  1  0.18346800  0.51885400  0.23143700  1
  O  O10  1  0.29795600  0.33142600  0.21335500  1
