# generated using pymatgen
data_ZnH16C21(NO3)2
_symmetry_space_group_name_H-M   'P 1'
_cell_length_a   10.00524000
_cell_length_b   11.24835800
_cell_length_c   23.43424700
_cell_angle_alpha   90.00017500
_cell_angle_beta   80.74784700
_cell_angle_gamma   92.44654300
_symmetry_Int_Tables_number   1
_chemical_formula_structural   ZnH16C21(NO3)2
_chemical_formula_sum   'Zn2 H32 C42 N4 O12'
_cell_volume   2600.60254189
_cell_formula_units_Z   2
loop_
 _symmetry_equiv_pos_site_id
 _symmetry_equiv_pos_as_xyz
  1  'x, y, z'
loop_
 _atom_site_type_symbol
 _atom_site_label
 _atom_site_symmetry_multiplicity
 _atom_site_fract_x
 _atom_site_fract_y
 _atom_site_fract_z
 _atom_site_occupancy
  Zn  Zn1  1  0.32581000  0.53359900  0.51237800  1
  Zn  Zn2  1  0.62829600  0.49222500  0.49063900  1
  H  H1  1  0.70405800  0.73341500  0.93094600  1
  H  H2  1  0.30191800  0.25307100  0.06886400  1
  H  H3  1  0.69358300  0.46757300  0.77083300  1
  H  H4  1  0.69381200  0.49873200  0.20229800  1
  H  H5  1  0.69193200  0.47275400  0.66734700  1
  H  H6  1  0.69158400  0.50145200  0.30591600  1
  H  H7  1  0.27017000  0.54726800  0.69918600  1
  H  H8  1  0.25992600  0.52631300  0.33321800  1
  H  H9  1  0.27425800  0.54341300  0.80282000  1
  H  H10  1  0.26413200  0.52386100  0.22888500  1
  H  H11  1  0.59920400  0.10797500  0.49299400  1
  H  H12  1  0.35490200  0.91785000  0.50998500  1
  H  H13  1  0.28993700  0.12149600  0.51420900  1
  H  H14  1  0.66417000  0.90432800  0.48884100  1
  H  H15  1  0.09390900  0.44106200  0.46484600  1
  H  H16  1  0.86018600  0.58472900  0.53818700  1
  H  H17  1  0.07977000  0.61972300  0.55671100  1
  H  H18  1  0.87434500  0.40613700  0.44629200  1
  H  H19  1  0.79391800  0.71638500  0.07758800  1
  H  H20  1  0.90390700  0.79359400  0.95561700  1
  H  H21  1  0.91791600  0.64326600  0.98203800  1
  H  H22  1  0.98550900  0.76942100  0.01705500  1
  H  H23  1  0.71176700  0.90761800  0.99732500  1
  H  H24  1  0.80727400  0.92978000  0.05596900  1
  H  H25  1  0.63085200  0.88037800  0.07088400  1
  H  H26  1  0.35957100  0.17845800  0.91358300  1
  H  H27  1  0.29972500  0.06875300  0.03234600  1
  H  H28  1  0.47132900  0.10411800  0.99565100  1
  H  H29  1  0.35834500  0.00685700  0.96285000  1
  H  H30  1  0.11676800  0.18956000  0.01233400  1
  H  H31  1  0.12812600  0.10056300  0.94765300  1
  H  H32  1  0.12655700  0.26080100  0.94277700  1
  C  C1  1  0.52944200  0.74289000  0.49819200  1
  C  C2  1  0.42466500  0.28293400  0.50482600  1
  C  C3  1  0.47949800  0.51181500  0.61308500  1
  C  C4  1  0.47480800  0.51393400  0.38991800  1
  C  C5  1  0.41906700  0.41768600  0.12394300  1
  C  C6  1  0.56406900  0.58309500  0.87729700  1
  C  C7  1  0.55418200  0.59396600  0.11441200  1
  C  C8  1  0.41516100  0.41522200  0.88737800  1
  C  C9  1  0.57206500  0.58674400  0.05400700  1
  C  C10  1  0.42576400  0.40455800  0.94611700  1
  C  C11  1  0.49864200  0.49786100  0.02964900  1
  C  C12  1  0.49793900  0.49419400  0.97061200  1
  C  C13  1  0.42339200  0.41312000  0.06480100  1
  C  C14  1  0.56820500  0.58214500  0.93584400  1
  C  C15  1  0.65727900  0.66642500  0.01712400  1
  C  C16  1  0.36487200  0.30987000  0.98161000  1
  C  C17  1  0.64687700  0.66701600  0.95902400  1
  C  C18  1  0.35760900  0.32030200  0.04082500  1
  C  C19  1  0.60065000  0.48581400  0.75510800  1
  C  C20  1  0.59841800  0.50561500  0.23098600  1
  C  C21  1  0.59921700  0.48853100  0.69643500  1
  C  C22  1  0.59663000  0.50655400  0.28985200  1
  C  C23  1  0.48076400  0.51020100  0.67561100  1
  C  C24  1  0.47542700  0.51394700  0.32725800  1
  C  C25  1  0.36397700  0.52966100  0.71426700  1
  C  C26  1  0.35599000  0.52049300  0.30494200  1
  C  C27  1  0.36581200  0.52713000  0.77302300  1
  C  C28  1  0.35798600  0.51858600  0.24587900  1
  C  C29  1  0.48409400  0.50472600  0.79365600  1
  C  C30  1  0.47933600  0.51111600  0.20870600  1
  C  C31  1  0.55928000  0.87167900  0.49609800  1
  C  C32  1  0.39482700  0.15414400  0.50692200  1
  C  C33  1  0.46035400  0.94874000  0.50275100  1
  C  C34  1  0.49375200  0.07708300  0.50024400  1
  C  C35  1  0.90385100  0.52212500  0.50603900  1
  C  C36  1  0.05025100  0.50368700  0.49698500  1
  C  C37  1  0.76830700  0.74551400  0.03591100  1
  C  C38  1  0.90152700  0.73726100  0.99460000  1
  C  C39  1  0.72685400  0.87400300  0.04020700  1
  C  C40  1  0.31570900  0.19235400  0.95918200  1
  C  C41  1  0.36424100  0.08713400  0.98996100  1
  C  C42  1  0.16196700  0.18542300  0.96600500  1
  N  N1  1  0.48287300  0.50794100  0.14760100  1
  N  N2  1  0.48701700  0.50134200  0.85433300  1
  N  N3  1  0.82696400  0.46431700  0.47600500  1
  N  N4  1  0.12714300  0.56151200  0.52701100  1
  O  O1  1  0.40244100  0.70358700  0.50714000  1
  O  O2  1  0.55166900  0.32223500  0.49579000  1
  O  O3  1  0.63195100  0.67246900  0.49082900  1
  O  O4  1  0.32215200  0.35335400  0.51227600  1
  O  O5  1  0.36439800  0.52771500  0.59459000  1
  O  O6  1  0.58971600  0.49827900  0.40848400  1
  O  O7  1  0.59374400  0.49645500  0.57817600  1
  O  O8  1  0.36027700  0.52911700  0.42479000  1
  O  O9  1  0.35230000  0.33134800  0.15821600  1
  O  O10  1  0.63332300  0.66831100  0.84307500  1
  O  O11  1  0.59756100  0.69048800  0.14099400  1
  O  O12  1  0.32952000  0.34414900  0.86294100  1
