# generated using pymatgen
data_Zn2H18C33(NO5)2
_symmetry_space_group_name_H-M   'P 1'
_cell_length_a   8.55404500
_cell_length_b   11.13160800
_cell_length_c   13.40916000
_cell_angle_alpha   90.54877800
_cell_angle_beta   92.61666800
_cell_angle_gamma   80.65324000
_symmetry_Int_Tables_number   1
_chemical_formula_structural   Zn2H18C33(NO5)2
_chemical_formula_sum   'Zn2 H18 C33 N2 O10'
_cell_volume   1258.55549982
_cell_formula_units_Z   1
loop_
 _symmetry_equiv_pos_site_id
 _symmetry_equiv_pos_as_xyz
  1  'x, y, z'
loop_
 _atom_site_type_symbol
 _atom_site_label
 _atom_site_symmetry_multiplicity
 _atom_site_fract_x
 _atom_site_fract_y
 _atom_site_fract_z
 _atom_site_occupancy
  Zn  Zn1  1  0.46470800  0.49891900  0.88624300  1
  Zn  Zn2  1  0.47286900  0.51928700  0.10824200  1
  H  H1  1  0.97339000  0.59145400  0.96364800  1
  H  H2  1  0.62013400  0.90011200  0.00091200  1
  H  H3  1  0.96491200  0.42546500  0.03552300  1
  H  H4  1  0.31613800  0.11863200  0.98601100  1
  H  H5  1  0.25175000  0.92191400  0.98629400  1
  H  H6  1  0.68515600  0.09642800  0.00325200  1
  H  H7  1  0.47635400  0.33853600  0.23557900  1
  H  H8  1  0.44814500  0.68028900  0.75149300  1
  H  H9  1  0.44715100  0.79506700  0.60610600  1
  H  H10  1  0.45507500  0.81110900  0.42877800  1
  H  H11  1  0.47279200  0.31528500  0.41025900  1
  H  H12  1  0.48138500  0.30114800  0.56312600  1
  H  H13  1  0.47504500  0.30094100  0.74166700  1
  H  H14  1  0.54260600  0.97502300  0.27470300  1
  H  H15  1  0.67805200  0.90420600  0.18338000  1
  H  H16  1  0.76360700  0.95372200  0.40316100  1
  H  H17  1  0.80611900  0.04025000  0.29684800  1
  H  H18  1  0.89892000  0.88286700  0.31172400  1
  C  C1  1  0.06098300  0.75677800  0.98227100  1
  C  C2  1  0.94228700  0.68761700  0.97489500  1
  C  C3  1  0.78690100  0.73859300  0.98653900  1
  C  C4  1  0.74370400  0.86149200  0.99474900  1
  C  C5  1  0.85752400  0.93456600  0.99364100  1
  C  C6  1  0.01690700  0.88303300  0.98973800  1
  C  C7  1  0.80942900  0.05908200  0.99883400  1
  C  C8  1  0.92014200  0.13521900  0.00104100  1
  C  C9  1  0.07935500  0.08378600  0.99590900  1
  C  C10  1  0.12745300  0.95927500  0.99054000  1
  C  C11  1  0.87641700  0.26113800  0.01160000  1
  C  C12  1  0.99555600  0.32982800  0.02138600  1
  C  C13  1  0.15058000  0.27939100  0.00727700  1
  C  C14  1  0.19302000  0.15697500  0.99456200  1
  C  C15  1  0.26956700  0.35678400  0.00260500  1
  C  C16  1  0.22510200  0.68745200  0.98691200  1
  C  C17  1  0.66793300  0.66137400  0.99166400  1
  C  C18  1  0.71223700  0.33058800  0.00732500  1
  C  C19  1  0.48480500  0.62633500  0.29788400  1
  C  C20  1  0.47504200  0.41874500  0.28159000  1
  C  C21  1  0.47507700  0.40548900  0.38337700  1
  C  C22  1  0.47342200  0.50556200  0.44538400  1
  C  C23  1  0.47619600  0.61743300  0.40111200  1
  C  C24  1  0.47259800  0.38785900  0.60006800  1
  C  C25  1  0.46862600  0.49720700  0.54950800  1
  C  C26  1  0.46023300  0.60203900  0.60607600  1
  C  C27  1  0.45666500  0.71305900  0.56144000  1
  C  C28  1  0.46482400  0.72115800  0.45994400  1
  C  C29  1  0.46908900  0.38650100  0.70308900  1
  C  C30  1  0.45486800  0.59726700  0.70836400  1
  C  C31  1  0.51444800  0.74106600  0.25497100  1
  C  C32  1  0.65204900  0.90869900  0.26353600  1
  C  C33  1  0.78935700  0.94908600  0.32277900  1
  N  N1  1  0.47736100  0.52759800  0.23919000  1
  N  N2  1  0.46022400  0.49067200  0.75552500  1
  O  O1  1  0.31746200  0.40289100  0.08616800  1
  O  O2  1  0.31752500  0.38072600  0.91467600  1
  O  O3  1  0.27896200  0.63312600  0.90467800  1
  O  O4  1  0.28970200  0.65383800  0.07560400  1
  O  O5  1  0.62018700  0.61518200  0.90820900  1
  O  O6  1  0.62002300  0.63747800  0.07963500  1
  O  O7  1  0.65846700  0.38491800  0.08972900  1
  O  O8  1  0.64715800  0.36371500  0.91859000  1
  O  O9  1  0.43048200  0.78956800  0.18615600  1
  O  O10  1  0.63144500  0.79608200  0.29565400  1
