# generated using pymatgen
data_ZnH7C16NO4F3
_symmetry_space_group_name_H-M   'P 1'
_cell_length_a   9.29063300
_cell_length_b   8.48002200
_cell_length_c   15.04438000
_cell_angle_alpha   90.00000000
_cell_angle_beta   98.92502400
_cell_angle_gamma   90.00000000
_symmetry_Int_Tables_number   1
_chemical_formula_structural   ZnH7C16NO4F3
_chemical_formula_sum   'Zn2 H14 C32 N2 O8 F6'
_cell_volume   1170.91706508
_cell_formula_units_Z   2
loop_
 _symmetry_equiv_pos_site_id
 _symmetry_equiv_pos_as_xyz
  1  'x, y, z'
loop_
 _atom_site_type_symbol
 _atom_site_label
 _atom_site_symmetry_multiplicity
 _atom_site_fract_x
 _atom_site_fract_y
 _atom_site_fract_z
 _atom_site_occupancy
  Zn  Zn1  1  0.15931500  0.50050500  0.49536700  1
  Zn  Zn2  1  0.83844000  0.50113800  0.50091100  1
  H  H1  1  0.92140300  0.00572000  0.43136300  1
  H  H2  1  0.07313900  0.99337400  0.56443100  1
  H  H3  1  0.98137000  0.25432000  0.19502700  1
  H  H4  1  0.02079600  0.25259200  0.79895800  1
  H  H5  1  0.97814700  0.75106500  0.19606300  1
  H  H6  1  0.02225800  0.74928400  0.80388100  1
  H  H7  1  0.84801900  0.16883100  0.88840200  1
  H  H8  1  0.15441900  0.83659400  0.10859700  1
  H  H9  1  0.36143600  0.26198900  0.46999300  1
  H  H10  1  0.62662200  0.26250700  0.47538900  1
  H  H11  1  0.24216600  0.80686000  0.49830700  1
  H  H12  1  0.75762400  0.80763700  0.51078300  1
  H  H13  1  0.37548000  0.03058100  0.54464600  1
  H  H14  1  0.64016600  0.03107100  0.55062500  1
  C  C1  1  0.94854500  0.14503100  0.31775800  1
  C  C2  1  0.04744900  0.13818900  0.67616500  1
  C  C3  1  0.96625600  0.14451400  0.22864900  1
  C  C4  1  0.03147800  0.14103800  0.76586100  1
  C  C5  1  0.96763700  0.00292700  0.18323600  1
  C  C6  1  0.03352400  0.00103500  0.81356900  1
  C  C7  1  0.96730800  0.86199500  0.22977500  1
  C  C8  1  0.03525500  0.85848000  0.76913700  1
  C  C9  1  0.94879700  0.86314900  0.31903500  1
  C  C10  1  0.05082900  0.85614200  0.67969800  1
  C  C11  1  0.93297400  0.00467200  0.36115900  1
  C  C12  1  0.06332800  0.99581700  0.63487700  1
  C  C13  1  0.89400800  0.09708200  0.02589500  1
  C  C14  1  0.10879600  0.90882500  0.97121200  1
  C  C15  1  0.91674600  0.09783100  0.93738300  1
  C  C16  1  0.08588100  0.90788400  0.05966800  1
  C  C17  1  0.02169400  0.00323700  0.90931300  1
  C  C18  1  0.98085400  0.00234100  0.08771000  1
  C  C19  1  0.96462300  0.28881400  0.37150900  1
  C  C20  1  0.03187600  0.28051600  0.62039900  1
  C  C21  1  0.96325200  0.71999900  0.37393800  1
  C  C22  1  0.03579400  0.71085800  0.62716400  1
  C  C23  1  0.35587200  0.78729000  0.51267900  1
  C  C24  1  0.64837100  0.78767300  0.51960100  1
  C  C25  1  0.43250800  0.92275200  0.53489900  1
  C  C26  1  0.57917500  0.92300800  0.53823600  1
  C  C27  1  0.57614800  0.64253300  0.51006900  1
  C  C28  1  0.42530100  0.64240000  0.50620100  1
  C  C29  1  0.42121300  0.37068300  0.48287100  1
  C  C30  1  0.57143700  0.37086900  0.48654200  1
  C  C31  1  0.76832000  0.18969600  0.04993600  1
  C  C32  1  0.23482500  0.81648100  0.94746600  1
  N  N1  1  0.34864300  0.50495200  0.49388100  1
  N  N2  1  0.64903100  0.50501300  0.50209300  1
  O  O1  1  0.84927500  0.33937600  0.40435600  1
  O  O2  1  0.14794100  0.33178500  0.58813800  1
  O  O3  1  0.09856300  0.33995800  0.39838000  1
  O  O4  1  0.89843400  0.33469200  0.59466400  1
  O  O5  1  0.09401000  0.66550300  0.40086700  1
  O  O6  1  0.90445800  0.65875300  0.59946600  1
  O  O7  1  0.85027100  0.66982100  0.40741900  1
  O  O8  1  0.14838400  0.66064900  0.59352400  1
  F  F1  1  0.65533400  0.18678400  0.97838200  1
  F  F2  1  0.81003300  0.34443400  0.06748600  1
  F  F3  1  0.71838600  0.12542400  0.12383900  1
  F  F4  1  0.34843900  0.82257100  0.01856500  1
  F  F5  1  0.28329700  0.87876100  0.87258600  1
  F  F6  1  0.19436500  0.66089800  0.93181100  1
