# generated using pymatgen
data_CuH7C19I4N3O4
_symmetry_space_group_name_H-M   'P 1'
_cell_length_a   15.65898400
_cell_length_b   15.89569100
_cell_length_c   17.04182800
_cell_angle_alpha   89.99862100
_cell_angle_beta   96.38938700
_cell_angle_gamma   92.78247800
_symmetry_Int_Tables_number   1
_chemical_formula_structural   CuH7C19I4N3O4
_chemical_formula_sum   'Cu2 H14 C38 I8 N6 O8'
_cell_volume   4210.50765539
_cell_formula_units_Z   2
loop_
 _symmetry_equiv_pos_site_id
 _symmetry_equiv_pos_as_xyz
  1  'x, y, z'
loop_
 _atom_site_type_symbol
 _atom_site_label
 _atom_site_symmetry_multiplicity
 _atom_site_fract_x
 _atom_site_fract_y
 _atom_site_fract_z
 _atom_site_occupancy
  Cu  Cu1  1  0.58599700  0.50342400  0.50416000  1
  Cu  Cu2  1  0.41394800  0.49651300  0.49576300  1
  H  H1  1  0.42972700  0.94446300  0.61051300  1
  H  H2  1  0.57025300  0.05509400  0.38930900  1
  H  H3  1  0.57542400  0.05795700  0.62185400  1
  H  H4  1  0.42483500  0.94127600  0.37844100  1
  H  H5  1  0.35255200  0.04364100  0.48689000  1
  H  H6  1  0.64720500  0.95584400  0.51290700  1
  H  H7  1  0.61809900  0.48359400  0.26096500  1
  H  H8  1  0.38205300  0.51662700  0.73910500  1
  H  H9  1  0.64160800  0.43714800  0.90280600  1
  H  H10  1  0.35894900  0.56309000  0.09658000  1
  H  H11  1  0.87342500  0.41883300  0.42921800  1
  H  H12  1  0.12693600  0.58296400  0.56868000  1
  H  H13  1  0.11011100  0.38801800  0.39585700  1
  H  H14  1  0.88956700  0.61294800  0.60253300  1
  C  C1  1  0.50952300  0.49480200  0.65188300  1
  C  C2  1  0.49046400  0.50521100  0.34817500  1
  C  C3  1  0.50181100  0.66154000  0.50169300  1
  C  C4  1  0.49817900  0.33848100  0.49800900  1
  C  C5  1  0.54107800  0.03064400  0.56657900  1
  C  C6  1  0.45893000  0.96933200  0.43349400  1
  C  C7  1  0.46162800  0.97102400  0.56048500  1
  C  C8  1  0.53834500  0.02900000  0.43956400  1
  C  C9  1  0.50242400  0.75185600  0.50207900  1
  C  C10  1  0.49751200  0.24824000  0.49791600  1
  C  C11  1  0.58057900  0.97751700  0.50708600  1
  C  C12  1  0.41939000  0.02248400  0.49294500  1
  C  C13  1  0.50115600  0.91958200  0.50102600  1
  C  C14  1  0.49882800  0.08054100  0.49907500  1
  C  C15  1  0.50229900  0.82765700  0.50192200  1
  C  C16  1  0.49765500  0.17247300  0.49826900  1
  C  C17  1  0.51409700  0.48755200  0.73866000  1
  C  C18  1  0.48581600  0.51238400  0.26138100  1
  C  C19  1  0.44075700  0.50186800  0.77415700  1
  C  C20  1  0.55919200  0.49801700  0.22591500  1
  C  C21  1  0.43927100  0.49624900  0.85467100  1
  C  C22  1  0.56076000  0.50358600  0.14543500  1
  C  C23  1  0.51333300  0.47611400  0.90198700  1
  C  C24  1  0.48682400  0.52397700  0.09810000  1
  C  C25  1  0.58503400  0.45700400  0.86664200  1
  C  C26  1  0.41508400  0.54314300  0.13324100  1
  C  C27  1  0.58665200  0.46217800  0.78601800  1
  C  C28  1  0.41337800  0.53789100  0.21385100  1
  C  C29  1  0.24306800  0.54349200  0.53452100  1
  C  C30  1  0.75687000  0.45693400  0.46493800  1
  C  C31  1  0.15485800  0.53968000  0.53107300  1
  C  C32  1  0.84531400  0.46095200  0.46786200  1
  C  C33  1  0.10590500  0.48308700  0.48172400  1
  C  C34  1  0.89412800  0.51710100  0.51752600  1
  C  C35  1  0.14749100  0.43225800  0.43568000  1
  C  C36  1  0.85236200  0.56799100  0.56356500  1
  C  C37  1  0.23614600  0.43639800  0.43926800  1
  C  C38  1  0.76394500  0.56382300  0.56037700  1
  I  I1  1  0.28205600  0.34893100  0.36184100  1
  I  I2  1  0.71823900  0.65094100  0.63827800  1
  I  I3  1  0.68249600  0.49188200  0.10457400  1
  I  I4  1  0.31740500  0.50825500  0.89552400  1
  I  I5  1  0.69972500  0.42005500  0.74424700  1
  I  I6  1  0.30018300  0.58000100  0.25570500  1
  I  I7  1  0.70011800  0.36467300  0.38295700  1
  I  I8  1  0.29972000  0.63521000  0.61710000  1
  N  N1  1  0.51705100  0.47027900  0.98511000  1
  N  N2  1  0.48330900  0.52998000  0.01498000  1
  N  N3  1  0.28507900  0.49121100  0.48969100  1
  N  N4  1  0.71494200  0.50835400  0.51084900  1
  N  N5  1  0.01510800  0.47556200  0.47704900  1
  N  N6  1  0.98492900  0.52467000  0.52237500  1
  O  O1  1  0.58054500  0.50370000  0.61806600  1
  O  O2  1  0.41936500  0.49622700  0.38190600  1
  O  O3  1  0.43342900  0.49212100  0.61096800  1
  O  O4  1  0.56665800  0.50789100  0.38898000  1
  O  O5  1  0.57503000  0.62530400  0.50243000  1
  O  O6  1  0.42502400  0.37466100  0.49758000  1
  O  O7  1  0.42796500  0.61918800  0.50061000  1
  O  O8  1  0.57197100  0.38077400  0.49931100  1
