# generated using pymatgen
data_Zn2H15C28N7O18
_symmetry_space_group_name_H-M   'P 1'
_cell_length_a   11.56377700
_cell_length_b   14.31070500
_cell_length_c   8.51402600
_cell_angle_alpha   90.00000000
_cell_angle_beta   107.88156700
_cell_angle_gamma   90.00000000
_symmetry_Int_Tables_number   1
_chemical_formula_structural   Zn2H15C28N7O18
_chemical_formula_sum   'Zn2 H15 C28 N7 O18'
_cell_volume   1340.88858046
_cell_formula_units_Z   1
loop_
 _symmetry_equiv_pos_site_id
 _symmetry_equiv_pos_as_xyz
  1  'x, y, z'
loop_
 _atom_site_type_symbol
 _atom_site_label
 _atom_site_symmetry_multiplicity
 _atom_site_fract_x
 _atom_site_fract_y
 _atom_site_fract_z
 _atom_site_occupancy
  Zn  Zn1  1  0.49991000  0.10185700  0.99364500  1
  Zn  Zn2  1  0.48410200  0.88976300  0.99548700  1
  H  H1  1  0.00989100  0.04159000  0.71002100  1
  H  H2  1  0.09498000  0.95197200  0.93074400  1
  H  H3  1  0.98417500  0.92789800  0.28167900  1
  H  H4  1  0.57940600  0.95550200  0.54438000  1
  H  H5  1  0.89256400  0.03901800  0.42027100  1
  H  H6  1  0.40259600  0.04408500  0.44529800  1
  H  H7  1  0.10176700  0.93740800  0.57365200  1
  H  H8  1  0.38938300  0.40242700  0.15781000  1
  H  H9  1  0.40874800  0.55695200  0.19576900  1
  H  H10  1  0.58510200  0.43372500  0.80822500  1
  H  H11  1  0.53853900  0.58614200  0.77638900  1
  H  H12  1  0.42609700  0.40957600  0.72814100  1
  H  H13  1  0.37999700  0.56543200  0.74222000  1
  H  H14  1  0.69448700  0.42043500  0.08761500  1
  H  H15  1  0.68053100  0.57354100  0.04803800  1
  C  C1  1  0.67532800  0.97114600  0.58087400  1
  C  C2  1  0.73765100  0.98188600  0.74571500  1
  C  C3  1  0.86183300  0.00168200  0.79619600  1
  C  C4  1  0.91615700  0.01952100  0.67537100  1
  C  C5  1  0.84905200  0.01844000  0.50992900  1
  C  C6  1  0.72853600  0.99137100  0.46184600  1
  C  C7  1  0.93731100  0.00708400  0.97206800  1
  C  C8  1  0.05363700  0.97890400  0.01970200  1
  C  C9  1  0.24700700  0.00959400  0.24439200  1
  C  C10  1  0.30825000  0.02351400  0.40895900  1
  C  C11  1  0.25635800  0.99925800  0.52814300  1
  C  C12  1  0.14052400  0.96270700  0.48133200  1
  C  C13  1  0.07394500  0.95814200  0.31603900  1
  C  C14  1  0.12600900  0.98306800  0.19568600  1
  C  C15  1  0.66148900  0.98588900  0.85309700  1
  C  C16  1  0.33296100  0.99837300  0.70028800  1
  C  C17  1  0.32081300  0.00578600  0.13370300  1
  C  C18  1  0.65053600  0.99314400  0.28952000  1
  C  C19  1  0.61450200  0.44613300  0.12068000  1
  C  C20  1  0.61237600  0.55216700  0.10856900  1
  C  C21  1  0.38785500  0.43649300  0.04060600  1
  C  C22  1  0.38839900  0.54184500  0.06269700  1
  C  C23  1  0.50054500  0.40709100  0.99617600  1
  C  C24  1  0.48733000  0.58413000  0.99990700  1
  C  C25  1  0.47209000  0.54993000  0.82539200  1
  C  C26  1  0.49600200  0.44563000  0.82847300  1
  C  C27  1  0.48182400  0.68641400  0.99935000  1
  C  C28  1  0.50693400  0.30502100  0.99371300  1
  N  N1  1  0.47891200  0.76723500  0.99861600  1
  N  N2  1  0.50964600  0.22421600  0.99220300  1
  N  N3  1  0.27743100  0.40561500  0.91596600  1
  N  N4  1  0.26879400  0.57994800  0.97770100  1
  N  N5  1  0.89367800  0.05456300  0.08982400  1
  N  N6  1  0.64604800  0.59394100  0.27232700  1
  N  N7  1  0.62667800  0.41468600  0.28769700  1
  O  O1  1  0.61423900  0.90734100  0.88611100  1
  O  O2  1  0.62766100  0.06956800  0.88669000  1
  O  O3  1  0.37806600  0.07740100  0.76980200  1
  O  O4  1  0.36418900  0.91746800  0.77175400  1
  O  O5  1  0.36894500  0.08419400  0.10217200  1
  O  O6  1  0.35517600  0.92217400  0.10098600  1
  O  O7  1  0.60521000  0.91431300  0.21941000  1
  O  O8  1  0.61928800  0.07405200  0.21746800  1
  O  O9  1  0.20931700  0.34327000  0.95524200  1
  O  O10  1  0.23939500  0.44600000  0.77248900  1
  O  O11  1  0.17491300  0.54922900  0.01551300  1
  O  O12  1  0.25561300  0.64888800  0.87423200  1
  O  O13  1  0.96488900  0.11436200  0.18839200  1
  O  O14  1  0.80474200  0.01873900  0.13227700  1
  O  O15  1  0.74965700  0.57202900  0.37896200  1
  O  O16  1  0.57918500  0.65822600  0.30906700  1
  O  O17  1  0.71507800  0.35840600  0.36074000  1
  O  O18  1  0.56078300  0.45056900  0.37172200  1
