# generated using pymatgen
data_ZnH7C11NO8
_symmetry_space_group_name_H-M   'P 1'
_cell_length_a   10.25131700
_cell_length_b   10.76985600
_cell_length_c   11.48343500
_cell_angle_alpha   90.01490100
_cell_angle_beta   92.45540600
_cell_angle_gamma   80.71654200
_symmetry_Int_Tables_number   1
_chemical_formula_structural   ZnH7C11NO8
_chemical_formula_sum   'Zn2 H14 C22 N2 O16'
_cell_volume   1250.04816821
_cell_formula_units_Z   2
loop_
 _symmetry_equiv_pos_site_id
 _symmetry_equiv_pos_as_xyz
  1  'x, y, z'
loop_
 _atom_site_type_symbol
 _atom_site_label
 _atom_site_symmetry_multiplicity
 _atom_site_fract_x
 _atom_site_fract_y
 _atom_site_fract_z
 _atom_site_occupancy
  Zn  Zn1  1  0.64531900  0.47821900  0.48094800  1
  Zn  Zn2  1  0.34742700  0.51866500  0.50718200  1
  H  H1  1  0.58834700  0.89943600  0.31966000  1
  H  H2  1  0.40529000  0.09704900  0.66952500  1
  H  H3  1  0.72583800  0.02978000  0.48485000  1
  H  H4  1  0.26776100  0.96680800  0.50422400  1
  H  H5  1  0.62175400  0.90050600  0.66413200  1
  H  H6  1  0.37290800  0.09470400  0.32416900  1
  H  H7  1  0.65715700  0.42882400  0.87363900  1
  H  H8  1  0.33004300  0.51616200  0.11253500  1
  H  H9  1  0.87211800  0.41980800  0.38462000  1
  H  H10  1  0.10894800  0.62260200  0.56494800  1
  H  H11  1  0.21070700  0.74538000  0.92665600  1
  H  H12  1  0.83559900  0.55746900  0.06405600  1
  H  H13  1  0.79493300  0.68235100  0.73446100  1
  H  H14  1  0.20018300  0.27039600  0.29121900  1
  C  C1  1  0.46004400  0.50645600  0.26652900  1
  C  C2  1  0.53266400  0.49011500  0.72149300  1
  C  C3  1  0.50382300  0.25461100  0.49139400  1
  C  C4  1  0.48922600  0.74217300  0.49728500  1
  C  C5  1  0.62176600  0.01441800  0.48936500  1
  C  C6  1  0.37184200  0.98215300  0.49974600  1
  C  C7  1  0.54712300  0.94589100  0.39930000  1
  C  C8  1  0.44653600  0.05061600  0.58988400  1
  C  C9  1  0.49073800  0.88007700  0.49664800  1
  C  C10  1  0.50278100  0.11652300  0.49243800  1
  C  C11  1  0.56547700  0.94628500  0.58678500  1
  C  C12  1  0.42822700  0.05013900  0.40232800  1
  C  C13  1  0.43347800  0.50994700  0.13909600  1
  C  C14  1  0.55909800  0.47705800  0.84849000  1
  C  C15  1  0.52306700  0.50906800  0.05637800  1
  C  C16  1  0.47648900  0.52293400  0.93205000  1
  C  C17  1  0.07252300  0.46303400  0.49789700  1
  C  C18  1  0.93289200  0.48854900  0.53186400  1
  C  C19  1  0.34295900  0.59253800  0.90423700  1
  C  C20  1  0.66616400  0.49573700  0.08485800  1
  C  C21  1  0.90261600  0.55000100  0.64425900  1
  C  C22  1  0.11732100  0.34831000  0.43167900  1
  N  N1  1  0.15132500  0.54218600  0.52396600  1
  N  N2  1  0.84124800  0.45536600  0.46364500  1
  O  O1  1  0.58162700  0.48891900  0.31120200  1
  O  O2  1  0.41084500  0.50921800  0.67703400  1
  O  O3  1  0.35637500  0.52073700  0.33131000  1
  O  O4  1  0.63650200  0.47473900  0.65679700  1
  O  O5  1  0.61625400  0.29642000  0.48057700  1
  O  O6  1  0.37663500  0.70042500  0.50697600  1
  O  O7  1  0.39062900  0.32851000  0.50308400  1
  O  O8  1  0.60240000  0.66826900  0.48656800  1
  O  O9  1  0.25942200  0.54040400  0.85461300  1
  O  O10  1  0.30689800  0.71296500  0.94833300  1
  O  O11  1  0.72381600  0.40226900  0.13609800  1
  O  O12  1  0.73849100  0.58282900  0.04125300  1
  O  O13  1  0.97788000  0.52252400  0.72875600  1
  O  O14  1  0.79739200  0.64806700  0.65238000  1
  O  O15  1  0.07944900  0.25034300  0.45651600  1
  O  O16  1  0.18805700  0.35448500  0.33190900  1
