# generated using pymatgen
data_ZnH16C17(NO2)2
_symmetry_space_group_name_H-M   'P 1'
_cell_length_a   9.79686700
_cell_length_b   10.93561900
_cell_length_c   17.07199800
_cell_angle_alpha   89.63036100
_cell_angle_beta   93.62528700
_cell_angle_gamma   90.00398000
_symmetry_Int_Tables_number   1
_chemical_formula_structural   ZnH16C17(NO2)2
_chemical_formula_sum   'Zn2 H32 C34 N4 O8'
_cell_volume   1825.30709690
_cell_formula_units_Z   2
loop_
 _symmetry_equiv_pos_site_id
 _symmetry_equiv_pos_as_xyz
  1  'x, y, z'
loop_
 _atom_site_type_symbol
 _atom_site_label
 _atom_site_symmetry_multiplicity
 _atom_site_fract_x
 _atom_site_fract_y
 _atom_site_fract_z
 _atom_site_occupancy
  Zn  Zn1  1  0.65528700  0.51036000  0.50611800  1
  Zn  Zn2  1  0.34465200  0.50720900  0.50933400  1
  H  H1  1  0.65521000  0.41643700  0.25912500  1
  H  H2  1  0.31661100  0.53092800  0.75544800  1
  H  H3  1  0.64892000  0.42308500  0.11857600  1
  H  H4  1  0.32358000  0.52583700  0.89528500  1
  H  H5  1  0.75831700  0.47529900  0.90378100  1
  H  H6  1  0.25462300  0.59378500  0.11355400  1
  H  H7  1  0.75043300  0.48103400  0.76056300  1
  H  H8  1  0.26539400  0.59040900  0.25701800  1
  H  H9  1  0.30038800  0.12318100  0.45470500  1
  H  H10  1  0.70691500  0.89340900  0.55112500  1
  H  H11  1  0.29018900  0.90174900  0.46042500  1
  H  H12  1  0.71295800  0.11537400  0.55064100  1
  H  H13  1  0.13599100  0.64387100  0.43083000  1
  H  H14  1  0.86454000  0.38807000  0.59368700  1
  H  H15  1  0.89595500  0.77471700  0.42442300  1
  H  H16  1  0.75836100  0.67309100  0.39850200  1
  H  H17  1  0.02138300  0.71578500  0.31673200  1
  H  H18  1  0.85047700  0.48355600  0.31980000  1
  H  H19  1  0.03260700  0.50180700  0.31345400  1
  H  H20  1  0.91912600  0.53330200  0.22918200  1
  H  H21  1  0.72081100  0.69216700  0.25759000  1
  H  H22  1  0.86312300  0.74378400  0.20335300  1
  H  H23  1  0.80675600  0.83420800  0.28311700  1
  H  H24  1  0.11424400  0.38029200  0.67908200  1
  H  H25  1  0.24073900  0.33858900  0.61353400  1
  H  H26  1  0.97149000  0.21321700  0.64296800  1
  H  H27  1  0.11691500  0.21996100  0.49120100  1
  H  H28  1  0.93794300  0.20245200  0.50709100  1
  H  H29  1  0.05199500  0.07561500  0.52478300  1
  H  H30  1  0.26230100  0.11886500  0.62585900  1
  H  H31  1  0.11762600  0.03539400  0.65973900  1
  H  H32  1  0.19105800  0.15935200  0.71737900  1
  C  C1  1  0.50615000  0.26947400  0.50672200  1
  C  C2  1  0.49429500  0.74800300  0.50790100  1
  C  C3  1  0.52472400  0.50745700  0.66135500  1
  C  C4  1  0.47462600  0.50903600  0.35419100  1
  C  C5  1  0.53297300  0.50640000  0.74749400  1
  C  C6  1  0.46378800  0.50723100  0.26816400  1
  C  C7  1  0.41480400  0.51886200  0.78700600  1
  C  C8  1  0.56890100  0.45927600  0.22783400  1
  C  C9  1  0.41942800  0.51646100  0.86781600  1
  C  C10  1  0.56380400  0.46229600  0.14700500  1
  C  C11  1  0.54344500  0.50054400  0.91042000  1
  C  C12  1  0.45112200  0.51247700  0.10536300  1
  C  C13  1  0.66132600  0.48800300  0.87092700  1
  C  C14  1  0.34346500  0.55572000  0.14569200  1
  C  C15  1  0.65666700  0.49150700  0.78995200  1
  C  C16  1  0.34943100  0.55327000  0.22668000  1
  C  C17  1  0.38821600  0.07370100  0.47888600  1
  C  C18  1  0.61619600  0.94319500  0.53057900  1
  C  C19  1  0.38299300  0.94781900  0.48124300  1
  C  C20  1  0.62009600  0.06931700  0.53003600  1
  C  C21  1  0.49693900  0.88189300  0.50739900  1
  C  C22  1  0.50528700  0.13533800  0.50509300  1
  C  C23  1  0.07595100  0.58335600  0.46507000  1
  C  C24  1  0.92433200  0.44160300  0.55510600  1
  C  C25  1  0.93474700  0.58935200  0.45735100  1
  C  C26  1  0.06527000  0.43123000  0.56008100  1
  C  C27  1  0.87007100  0.68215100  0.40185000  1
  C  C28  1  0.91976700  0.67183100  0.31910600  1
  C  C29  1  0.93075700  0.53921100  0.29408000  1
  C  C30  1  0.82099500  0.73958200  0.26211600  1
  C  C31  1  0.13016300  0.34460500  0.61967700  1
  C  C32  1  0.06931400  0.21598100  0.61375100  1
  C  C33  1  0.04293600  0.17640400  0.52887700  1
  C  C34  1  0.16657600  0.12663800  0.65675500  1
  N  N1  1  0.55263100  0.49523400  0.99345700  1
  N  N2  1  0.44239000  0.51928700  0.02239900  1
  N  N3  1  0.85922600  0.51611100  0.50220500  1
  N  N4  1  0.14074500  0.50209400  0.51369600  1
  O  O1  1  0.62401900  0.32715500  0.50762800  1
  O  O2  1  0.37639500  0.69043800  0.50806400  1
  O  O3  1  0.38794400  0.32611500  0.50701700  1
  O  O4  1  0.61178500  0.69128000  0.50749400  1
  O  O5  1  0.63782200  0.50751600  0.62382800  1
  O  O6  1  0.36160900  0.51057600  0.39166300  1
  O  O7  1  0.40268800  0.50767500  0.62529500  1
  O  O8  1  0.59746700  0.50837900  0.39000800  1
