# generated using pymatgen
data_FeH10C25NO13
_symmetry_space_group_name_H-M   'P 1'
_cell_length_a   9.44544100
_cell_length_b   19.94598400
_cell_length_c   15.30369000
_cell_angle_alpha   110.34049700
_cell_angle_beta   87.39924600
_cell_angle_gamma   85.03601000
_symmetry_Int_Tables_number   1
_chemical_formula_structural   FeH10C25NO13
_chemical_formula_sum   'Fe2 H20 C50 N2 O26'
_cell_volume   2684.46779718
_cell_formula_units_Z   2
loop_
 _symmetry_equiv_pos_site_id
 _symmetry_equiv_pos_as_xyz
  1  'x, y, z'
loop_
 _atom_site_type_symbol
 _atom_site_label
 _atom_site_symmetry_multiplicity
 _atom_site_fract_x
 _atom_site_fract_y
 _atom_site_fract_z
 _atom_site_occupancy
  Fe  Fe1  1  0.51112900  0.98549500  0.31913600  1
  Fe  Fe2  1  0.52233100  0.00308500  0.67253100  1
  H  H1  1  0.67219800  0.05057300  0.12329900  1
  H  H2  1  0.34135600  0.04696500  0.92888300  1
  H  H3  1  0.27488400  0.09203300  0.07793500  1
  H  H4  1  0.65491800  0.04681300  0.96406500  1
  H  H5  1  0.71853500  0.96090200  0.03635600  1
  H  H6  1  0.33837900  0.95284300  0.91560800  1
  H  H7  1  0.37489500  0.00773800  0.06595400  1
  H  H8  1  0.98663700  0.98381000  0.70198300  1
  H  H9  1  0.94323000  0.64451200  0.68682400  1
  H  H10  1  0.06374600  0.33274600  0.28028700  1
  H  H11  1  0.36232500  0.22717400  0.43376400  1
  H  H12  1  0.12718100  0.34187700  0.69782700  1
  H  H13  1  0.82570200  0.76992800  0.51994200  1
  H  H14  1  0.61282700  0.61606100  0.31362900  1
  H  H15  1  0.72793700  0.14816600  0.00103700  1
  H  H16  1  0.05381400  0.03196400  0.35651100  1
  H  H17  1  0.02377900  0.54634000  0.77109800  1
  H  H18  1  0.84680900  0.40659000  0.22168300  1
  H  H19  1  0.28106300  0.28409100  0.81310300  1
  H  H20  1  0.38440700  0.70720500  0.28791700  1
  C  C1  1  0.99694900  0.99460600  0.77546900  1
  C  C2  1  0.87403800  0.00526300  0.83285900  1
  C  C3  1  0.88312500  0.01999100  0.92757400  1
  C  C4  1  0.75753800  0.05142700  0.99641000  1
  C  C5  1  0.75279900  0.01541500  0.06796500  1
  C  C6  1  0.13029000  0.99712500  0.81025800  1
  C  C7  1  0.13855400  0.00751100  0.90546400  1
  C  C8  1  0.01400000  0.01662600  0.96255400  1
  C  C9  1  0.01784200  0.01593100  0.05810800  1
  C  C10  1  0.89393700  0.01051500  0.10763700  1
  C  C11  1  0.90271200  0.00061900  0.19376600  1
  C  C12  1  0.27993100  0.00755600  0.94542100  1
  C  C13  1  0.27445000  0.03275400  0.05061700  1
  C  C14  1  0.14731500  0.01472600  0.09569600  1
  C  C15  1  0.15560000  0.00376300  0.17995300  1
  C  C16  1  0.03547500  0.99494400  0.22694300  1
  C  C17  1  0.77606900  0.99850100  0.25341100  1
  C  C18  1  0.53127500  0.85418900  0.34325600  1
  C  C19  1  0.28908100  0.00599400  0.22481400  1
  C  C20  1  0.40044000  0.10400700  0.46447500  1
  C  C21  1  0.64912700  0.88070600  0.52910800  1
  C  C22  1  0.73722200  0.99708100  0.79059100  1
  C  C23  1  0.38315500  0.12725400  0.66323500  1
  C  C24  1  0.25573500  0.98987200  0.74339600  1
  C  C25  1  0.86984500  0.56560400  0.36380700  1
  C  C26  1  0.84226800  0.63336700  0.52399900  1
  C  C27  1  0.93227300  0.58209000  0.54171000  1
  C  C28  1  0.97632900  0.51791800  0.47141100  1
  C  C29  1  0.93980400  0.50798400  0.38205400  1
  C  C30  1  0.97519000  0.59411200  0.63041400  1
  C  C31  1  0.06421000  0.54274800  0.64814100  1
  C  C32  1  0.10193400  0.47607700  0.57836500  1
  C  C33  1  0.05406700  0.46368000  0.49111400  1
  C  C34  1  0.08257500  0.39639500  0.42396900  1
  C  C35  1  0.04208400  0.38503500  0.33474600  1
  C  C36  1  0.97582700  0.44085200  0.31267600  1
  C  C37  1  0.18445800  0.42117900  0.59465700  1
  C  C38  1  0.14403500  0.34005700  0.44766000  1
  C  C39  1  0.32948100  0.23341100  0.50488400  1
  C  C40  1  0.36359300  0.17626600  0.53476900  1
  C  C41  1  0.33170900  0.18398200  0.62758400  1
  C  C42  1  0.24932300  0.24541800  0.68584500  1
  C  C43  1  0.20096700  0.29788300  0.65220800  1
  C  C44  1  0.24543100  0.29485300  0.56332400  1
  C  C45  1  0.75131700  0.75569800  0.46667700  1
  C  C46  1  0.66527600  0.81060900  0.45423000  1
  C  C47  1  0.58302400  0.79649900  0.37825500  1
  C  C48  1  0.56712400  0.72529100  0.32753000  1
  C  C49  1  0.63625900  0.67035900  0.35024900  1
  C  C50  1  0.73603300  0.68439600  0.41627000  1
  N  N1  1  0.81691300  0.62672100  0.43501800  1
  N  N2  1  0.19494000  0.35277800  0.53277000  1
  O  O1  1  0.65550000  0.97987500  0.21835800  1
  O  O2  1  0.50937500  0.83705300  0.25445900  1
  O  O3  1  0.78280300  0.01561600  0.34388400  1
  O  O4  1  0.53281600  0.92259700  0.39436000  1
  O  O5  1  0.33181400  0.95599200  0.25820200  1
  O  O6  1  0.36170300  0.06154100  0.23885700  1
  O  O7  1  0.51569200  0.08702500  0.40658500  1
  O  O8  1  0.31497300  0.05459600  0.45985400  1
  O  O9  1  0.52085500  0.90763800  0.56963200  1
  O  O10  1  0.76152800  0.91132500  0.56382500  1
  O  O11  1  0.70365300  0.03040200  0.73270600  1
  O  O12  1  0.65484200  0.95133300  0.80415300  1
  O  O13  1  0.23380700  0.98661400  0.65800500  1
  O  O14  1  0.48634700  0.07770600  0.61596300  1
  O  O15  1  0.38697300  0.99345400  0.76908800  1
  O  O16  1  0.33124600  0.12752700  0.74424900  1
  O  O17  1  0.85885500  0.56147100  0.27488900  1
  O  O18  1  0.77664500  0.68873500  0.59670100  1
  O  O19  1  0.25495600  0.43590100  0.67240400  1
  O  O20  1  0.14601800  0.27248700  0.38689100  1
  O  O21  1  0.76936300  0.12428800  0.04238700  1
  O  O22  1  0.04913300  0.98351000  0.30938200  1
  O  O23  1  0.10483300  0.55730500  0.73687300  1
  O  O24  1  0.93892200  0.42704000  0.22325600  1
  O  O25  1  0.21025100  0.25448900  0.77664700  1
  O  O26  1  0.47803900  0.70832000  0.25692600  1
