# generated using pymatgen
data_FeH11C19N3O8
_symmetry_space_group_name_H-M   'P 1'
_cell_length_a   13.37247200
_cell_length_b   17.25918400
_cell_length_c   11.42389200
_cell_angle_alpha   108.49673300
_cell_angle_beta   85.89054400
_cell_angle_gamma   108.69256900
_symmetry_Int_Tables_number   1
_chemical_formula_structural   FeH11C19N3O8
_chemical_formula_sum   'Fe2 H22 C38 N6 O16'
_cell_volume   2367.19395002
_cell_formula_units_Z   2
loop_
 _symmetry_equiv_pos_site_id
 _symmetry_equiv_pos_as_xyz
  1  'x, y, z'
loop_
 _atom_site_type_symbol
 _atom_site_label
 _atom_site_symmetry_multiplicity
 _atom_site_fract_x
 _atom_site_fract_y
 _atom_site_fract_z
 _atom_site_occupancy
  Fe  Fe1  1  0.49076700  0.98273700  0.24488300  1
  Fe  Fe2  1  0.47494900  0.99121700  0.73360300  1
  H  H1  1  0.14384300  0.92890500  0.20126300  1
  H  H2  1  0.97505100  0.92459200  0.13356600  1
  H  H3  1  0.94849900  0.94630300  0.77057100  1
  H  H4  1  0.78256500  0.95752800  0.72153800  1
  H  H5  1  0.88465100  0.02073800  0.15377100  1
  H  H6  1  0.49188000  0.26207500  0.39141500  1
  H  H7  1  0.55855700  0.43606300  0.75868800  1
  H  H8  1  0.56603700  0.32160000  0.83175700  1
  H  H9  1  0.48199600  0.55365600  0.22326200  1
  H  H10  1  0.48122000  0.66697400  0.14545500  1
  H  H11  1  0.60112200  0.70053700  0.73746200  1
  H  H12  1  0.65860800  0.80419100  0.71660800  1
  H  H13  1  0.65741000  0.70998500  0.59177100  1
  H  H14  1  0.35414500  0.65746700  0.62358800  1
  H  H15  1  0.39026100  0.76004200  0.74204700  1
  H  H16  1  0.43221000  0.67496900  0.75810300  1
  H  H17  1  0.20117800  0.17717000  0.98269400  1
  H  H18  1  0.08962800  0.17693900  0.90307300  1
  H  H19  1  0.21184000  0.17991100  0.82505100  1
  H  H20  1  0.15094000  0.95461500  0.71516500  1
  H  H21  1  0.22362100  0.05789800  0.69593700  1
  H  H22  1  0.08525900  0.01298000  0.65954000  1
  C  C1  1  0.14069900  0.95371900  0.12630400  1
  C  C2  1  0.04495400  0.95323600  0.08943800  1
  C  C3  1  0.03823500  0.98900600  0.99885500  1
  C  C4  1  0.12964500  0.02131800  0.93900800  1
  C  C5  1  0.22651600  0.01794400  0.97318900  1
  C  C6  1  0.23172300  0.98756800  0.07089500  1
  C  C7  1  0.90116800  0.96891200  0.84550800  1
  C  C8  1  0.80508000  0.97250900  0.81712500  1
  C  C9  1  0.73347700  0.98718500  0.90729200  1
  C  C10  1  0.75974800  0.99970100  0.02934400  1
  C  C11  1  0.86165400  0.00581000  0.05850500  1
  C  C12  1  0.93330900  0.99017300  0.96696900  1
  C  C13  1  0.68205300  0.00346100  0.12794300  1
  C  C14  1  0.49270800  0.82948300  0.27032600  1
  C  C15  1  0.33378300  0.99640400  0.12240700  1
  C  C16  1  0.48507000  0.12308800  0.43963200  1
  C  C17  1  0.50867800  0.85990200  0.53932200  1
  C  C18  1  0.62902900  0.98016600  0.86575900  1
  C  C19  1  0.53021400  0.15571100  0.70609600  1
  C  C20  1  0.32019000  0.03405000  0.89765100  1
  C  C21  1  0.51043700  0.20897600  0.52975800  1
  C  C22  1  0.50969100  0.27573700  0.48805400  1
  C  C23  1  0.52446600  0.35729300  0.56958400  1
  C  C24  1  0.54534800  0.37263000  0.69290700  1
  C  C25  1  0.55017900  0.30717700  0.73445900  1
  C  C26  1  0.53081500  0.22430800  0.65455100  1
  C  C27  1  0.49827200  0.55599600  0.45537800  1
  C  C28  1  0.51448800  0.42668000  0.52772300  1
  C  C29  1  0.48678100  0.61551500  0.28941600  1
  C  C30  1  0.48627500  0.68062000  0.24429700  1
  C  C31  1  0.49184800  0.76132500  0.32324600  1
  C  C32  1  0.49700100  0.77525700  0.44964900  1
  C  C33  1  0.49835900  0.71057800  0.49612000  1
  C  C34  1  0.49344400  0.62869800  0.41517000  1
  C  C35  1  0.61171200  0.73657600  0.67028400  1
  C  C36  1  0.41771000  0.70472500  0.69086100  1
  C  C37  1  0.15895200  0.15350400  0.89187600  1
  C  C38  1  0.14785400  0.01969200  0.72406300  1
  N  N1  1  0.49630900  0.49551100  0.61026600  1
  N  N2  1  0.48775300  0.55867500  0.57422700  1
  N  N3  1  0.51457900  0.48604900  0.37221700  1
  N  N4  1  0.52217300  0.42208700  0.40771000  1
  N  N5  1  0.51187000  0.73436200  0.62601100  1
  N  N6  1  0.12291300  0.06066800  0.84916400  1
  O  O1  1  0.58176100  0.98510900  0.10088000  1
  O  O2  1  0.50403600  0.81643500  0.15126300  1
  O  O3  1  0.71126500  0.01709100  0.24189100  1
  O  O4  1  0.48123900  0.90285100  0.34007400  1
  O  O5  1  0.34102600  0.94439400  0.18161300  1
  O  O6  1  0.41686400  0.06216800  0.12097500  1
  O  O7  1  0.55479400  0.10247800  0.35929400  1
  O  O8  1  0.38964600  0.06841400  0.43341100  1
  O  O9  1  0.42973000  0.87327300  0.60916800  1
  O  O10  1  0.59959700  0.92138000  0.55376000  1
  O  O11  1  0.61810400  0.03703300  0.81798800  1
  O  O12  1  0.55105700  0.90847800  0.85333300  1
  O  O13  1  0.35315700  0.10370400  0.86423800  1
  O  O14  1  0.48713300  0.07421300  0.64286000  1
  O  O15  1  0.36907300  0.97566400  0.86152300  1
  O  O16  1  0.56418500  0.17659600  0.82033800  1
