# generated using pymatgen
data_CuH13C29N3O8
_symmetry_space_group_name_H-M   'P 1'
_cell_length_a   27.56027200
_cell_length_b   12.97774500
_cell_length_c   11.52690600
_cell_angle_alpha   99.71537200
_cell_angle_beta   94.23717600
_cell_angle_gamma   89.98649900
_symmetry_Int_Tables_number   1
_chemical_formula_structural   CuH13C29N3O8
_chemical_formula_sum   'Cu2 H26 C58 N6 O16'
_cell_volume   4052.28092234
_cell_formula_units_Z   2
loop_
 _symmetry_equiv_pos_site_id
 _symmetry_equiv_pos_as_xyz
  1  'x, y, z'
loop_
 _atom_site_type_symbol
 _atom_site_label
 _atom_site_symmetry_multiplicity
 _atom_site_fract_x
 _atom_site_fract_y
 _atom_site_fract_z
 _atom_site_occupancy
  Cu  Cu1  1  0.50338500  0.50830800  0.61752900  1
  Cu  Cu2  1  0.49627200  0.49158200  0.38256900  1
  H  H1  1  0.26019000  0.41926500  0.64343800  1
  H  H2  1  0.74001100  0.57260400  0.35142700  1
  H  H3  1  0.11172600  0.35152900  0.23326400  1
  H  H4  1  0.88751900  0.68069700  0.74503200  1
  H  H5  1  0.65560100  0.44055500  0.65813500  1
  H  H6  1  0.34424800  0.56556700  0.34632300  1
  H  H7  1  0.74405000  0.43516900  0.66040400  1
  H  H8  1  0.25643300  0.57296900  0.34505600  1
  H  H9  1  0.87173700  0.31639200  0.26360300  1
  H  H10  1  0.12978200  0.65338300  0.76169200  1
  H  H11  1  0.95634700  0.31500900  0.25845600  1
  H  H12  1  0.04518800  0.65371100  0.76766900  1
  H  H13  1  0.02717700  0.34821500  0.23251300  1
  H  H14  1  0.97235500  0.68564400  0.74490300  1
  H  H15  1  0.49331600  0.81594200  0.34612500  1
  H  H16  1  0.50712300  0.18643300  0.65316100  1
  H  H17  1  0.50543300  0.84400400  0.72335400  1
  H  H18  1  0.49549600  0.15898100  0.27773000  1
  H  H19  1  0.49223500  0.96851300  0.25881100  1
  H  H20  1  0.50771900  0.03207200  0.74147700  1
  H  H21  1  0.45864900  0.39621100  0.79152100  1
  H  H22  1  0.54061400  0.60370200  0.21055900  1
  H  H23  1  0.55728300  0.64685400  0.81676000  1
  H  H24  1  0.44030200  0.35505400  0.18098500  1
  H  H25  1  0.43444900  0.33939700  0.96527700  1
  H  H26  1  0.56399500  0.66531700  0.03250900  1
  C  C1  1  0.50199100  0.29969400  0.47921100  1
  C  C2  1  0.49786200  0.70047300  0.52076700  1
  C  C3  1  0.40646100  0.49162000  0.49787000  1
  C  C4  1  0.59316000  0.50747900  0.50204300  1
  C  C5  1  0.17360400  0.44905700  0.40375700  1
  C  C6  1  0.82636200  0.56138900  0.59082800  1
  C  C7  1  0.17984200  0.55641000  0.58893200  1
  C  C8  1  0.82073000  0.43535100  0.41954000  1
  C  C9  1  0.27649400  0.53775900  0.41178300  1
  C  C10  1  0.72354400  0.46707600  0.59181700  1
  C  C11  1  0.32648100  0.53278600  0.41228500  1
  C  C12  1  0.67358100  0.47082600  0.59048400  1
  C  C13  1  0.32918200  0.44668300  0.58052400  1
  C  C14  1  0.67085700  0.54966200  0.41671300  1
  C  C15  1  0.27923200  0.45403200  0.58081300  1
  C  C16  1  0.72085600  0.54169400  0.41656900  1
  C  C17  1  0.25274400  0.49938300  0.49710000  1
  C  C18  1  0.74734800  0.50111800  0.50404300  1
  C  C19  1  0.10111100  0.50243500  0.49801600  1
  C  C20  1  0.89929600  0.49914800  0.50352600  1
  C  C21  1  0.12342500  0.44831500  0.40374800  1
  C  C22  1  0.87660600  0.56250000  0.59082500  1
  C  C23  1  0.09554500  0.39353400  0.30973100  1
  C  C24  1  0.90420600  0.62819500  0.67673200  1
  C  C25  1  0.12972600  0.55726400  0.59079600  1
  C  C26  1  0.87088300  0.43494200  0.41768300  1
  C  C27  1  0.35326600  0.48885200  0.49733200  1
  C  C28  1  0.64657600  0.51070700  0.50266000  1
  C  C29  1  0.97190200  0.43716200  0.41161200  1
  C  C30  1  0.02872200  0.56001300  0.59343200  1
  C  C31  1  0.97786900  0.56295900  0.59204400  1
  C  C32  1  0.02243900  0.44270500  0.40671900  1
  C  C33  1  0.94989200  0.49954300  0.50259200  1
  C  C34  1  0.05060500  0.50184700  0.49930300  1
  C  C35  1  0.94249500  0.37048000  0.32774900  1
  C  C36  1  0.05859500  0.61279300  0.68770000  1
  C  C37  1  0.89281600  0.36965300  0.33085800  1
  C  C38  1  0.10828500  0.61158900  0.68605800  1
  C  C39  1  0.04586600  0.39083900  0.31092200  1
  C  C40  1  0.95398500  0.62897900  0.67713200  1
  C  C41  1  0.49844100  0.81530000  0.53294200  1
  C  C42  1  0.50149200  0.18559600  0.46700600  1
  C  C43  1  0.49556600  0.01641600  0.34544600  1
  C  C44  1  0.50438400  0.98490500  0.65449700  1
  C  C45  1  0.49737200  0.12368100  0.35637500  1
  C  C46  1  0.50287500  0.87768400  0.64362100  1
  C  C47  1  0.50402000  0.13895400  0.56634400  1
  C  C48  1  0.49625100  0.86248200  0.43358800  1
  C  C49  1  0.50213000  0.03137300  0.55531300  1
  C  C50  1  0.49801800  0.97005000  0.44474500  1
  C  C51  1  0.45857700  0.39704200  0.01850900  1
  C  C52  1  0.54080300  0.60482100  0.98061600  1
  C  C53  1  0.46163100  0.40642400  0.13992000  1
  C  C54  1  0.53725100  0.59439400  0.85942000  1
  C  C55  1  0.51714700  0.54566600  0.15596200  1
  C  C56  1  0.48192500  0.45550800  0.84485400  1
  C  C57  1  0.51438000  0.53839900  0.03486200  1
  C  C58  1  0.48505500  0.46318600  0.96608700  1
  N  N1  1  0.20099500  0.50249300  0.49604400  1
  N  N2  1  0.79921300  0.49832000  0.50554500  1
  N  N3  1  0.50854100  0.51971000  0.79331900  1
  N  N4  1  0.49091600  0.48016900  0.20683000  1
  N  N5  1  0.35424500  0.38871500  0.66055700  1
  N  N6  1  0.64593200  0.60451800  0.33365300  1
  O  O1  1  0.50632400  0.35543700  0.58524000  1
  O  O2  1  0.49334700  0.64433800  0.41482700  1
  O  O3  1  0.49663900  0.34159000  0.38356200  1
  O  O4  1  0.50305200  0.65820100  0.61649000  1
  O  O5  1  0.43244100  0.49836000  0.59866500  1
  O  O6  1  0.56732800  0.50124900  0.40114800  1
  O  O7  1  0.42620800  0.49182100  0.39772700  1
  O  O8  1  0.57348500  0.50782300  0.60231700  1
  O  O9  1  0.19532500  0.39364600  0.31318600  1
  O  O10  1  0.80436500  0.62576000  0.67432000  1
  O  O11  1  0.79320000  0.37239200  0.33556100  1
  O  O12  1  0.20773600  0.61077100  0.67934800  1
  O  O13  1  0.33745600  0.38692200  0.76266200  1
  O  O14  1  0.38554700  0.31868200  0.62170300  1
  O  O15  1  0.66231000  0.60066100  0.23027200  1
  O  O16  1  0.61557700  0.67738700  0.37010200  1
