# generated using pymatgen
data_ZnH11C17N2O5
_symmetry_space_group_name_H-M   'P 1'
_cell_length_a   15.12071500
_cell_length_b   8.54457500
_cell_length_c   11.30765400
_cell_angle_alpha   90.00000000
_cell_angle_beta   95.05532300
_cell_angle_gamma   90.00000000
_symmetry_Int_Tables_number   1
_chemical_formula_structural   ZnH11C17N2O5
_chemical_formula_sum   'Zn2 H22 C34 N4 O10'
_cell_volume   1455.26685989
_cell_formula_units_Z   2
loop_
 _symmetry_equiv_pos_site_id
 _symmetry_equiv_pos_as_xyz
  1  'x, y, z'
loop_
 _atom_site_type_symbol
 _atom_site_label
 _atom_site_symmetry_multiplicity
 _atom_site_fract_x
 _atom_site_fract_y
 _atom_site_fract_z
 _atom_site_occupancy
  Zn  Zn1  1  0.48676000  0.48305300  0.86855500  1
  Zn  Zn2  1  0.51351500  0.48301900  0.13293100  1
  H  H1  1  0.44057600  0.98375900  0.04816400  1
  H  H2  1  0.55871800  0.98263900  0.96167900  1
  H  H3  1  0.20012300  0.23423800  0.98640600  1
  H  H4  1  0.79979400  0.73153600  0.00551700  1
  H  H5  1  0.80000100  0.23411100  0.01112500  1
  H  H6  1  0.20065000  0.73190800  0.98067700  1
  H  H7  1  0.06988800  0.18752100  0.88264000  1
  H  H8  1  0.93015600  0.77790200  0.10801300  1
  H  H9  1  0.91048100  0.18888400  0.89165100  1
  H  H10  1  0.08907000  0.77571200  0.09803600  1
  H  H11  1  0.38952000  0.47848700  0.29574800  1
  H  H12  1  0.61085700  0.48080100  0.70585400  1
  H  H13  1  0.66659800  0.48910600  0.29943400  1
  H  H14  1  0.33368600  0.48498100  0.70197000  1
  H  H15  1  0.24701500  0.44930500  0.51360400  1
  H  H16  1  0.13978800  0.58241700  0.39761200  1
  H  H17  1  0.17928000  0.70598600  0.28390400  1
  H  H18  1  0.16768600  0.78480800  0.43009500  1
  H  H19  1  0.75374400  0.45699200  0.48725500  1
  H  H20  1  0.86018300  0.59429700  0.60015000  1
  H  H21  1  0.82047000  0.70993100  0.71820100  1
  H  H22  1  0.82912900  0.79663000  0.57380000  1
  C  C1  1  0.32597700  0.12276000  0.00995900  1
  C  C2  1  0.67399100  0.84339200  0.99123200  1
  C  C3  1  0.67380500  0.12240700  0.99100300  1
  C  C4  1  0.32631400  0.84371800  0.01016700  1
  C  C5  1  0.23455100  0.12345900  0.99180900  1
  C  C6  1  0.76551800  0.84246700  0.00304300  1
  C  C7  1  0.76532100  0.12360500  0.00280400  1
  C  C8  1  0.23500800  0.84247000  0.99192900  1
  C  C9  1  0.18841600  0.98263000  0.98951100  1
  C  C10  1  0.81164300  0.98320600  0.00326300  1
  C  C11  1  0.37005700  0.98340400  0.02735100  1
  C  C12  1  0.62959200  0.98280700  0.97785000  1
  C  C13  1  0.04007000  0.09804700  0.93358900  1
  C  C14  1  0.95978600  0.86691000  0.05641800  1
  C  C15  1  0.94931100  0.09917800  0.93923400  1
  C  C16  1  0.05041200  0.86548400  0.05041400  1
  C  C17  1  0.90858100  0.98392300  0.00099900  1
  C  C18  1  0.09127100  0.98107500  0.98920500  1
  C  C19  1  0.37981100  0.70170400  0.00659800  1
  C  C20  1  0.62052100  0.26452800  0.99484600  1
  C  C21  1  0.62086300  0.70099700  0.99474800  1
  C  C22  1  0.37942500  0.26495600  0.00670200  1
  C  C23  1  0.38361900  0.48971100  0.53100700  1
  C  C24  1  0.61675700  0.49287700  0.47046000  1
  C  C25  1  0.39217500  0.48480400  0.65346400  1
  C  C26  1  0.60814200  0.48726800  0.34799100  1
  C  C27  1  0.54713200  0.48563300  0.65484100  1
  C  C28  1  0.45322400  0.48436800  0.34672200  1
  C  C29  1  0.54138400  0.49057800  0.53205200  1
  C  C30  1  0.45901200  0.48945500  0.46949900  1
  C  C31  1  0.27931900  0.63497800  0.41746400  1
  C  C32  1  0.18560400  0.67940000  0.38020400  1
  C  C33  1  0.71987400  0.64069200  0.58445100  1
  C  C34  1  0.81327400  0.68792000  0.62118400  1
  N  N1  1  0.52718300  0.48328900  0.28844500  1
  N  N2  1  0.47312900  0.48308000  0.71304800  1
  N  N3  1  0.29805500  0.49602300  0.47050800  1
  N  N4  1  0.70235800  0.50171700  0.53072700  1
  O  O1  1  0.42115800  0.65237700  0.10642800  1
  O  O2  1  0.57905800  0.31361200  0.89501300  1
  O  O3  1  0.57936900  0.65200000  0.89493200  1
  O  O4  1  0.42097800  0.31388700  0.10660300  1
  O  O5  1  0.39623000  0.64676900  0.90224700  1
  O  O6  1  0.60405400  0.31928400  0.09927700  1
  O  O7  1  0.60426100  0.64627700  0.09908700  1
  O  O8  1  0.39599100  0.31980000  0.90233700  1
  O  O9  1  0.33906900  0.72627100  0.40144700  1
  O  O10  1  0.65929100  0.72963900  0.60171100  1
