# generated using pymatgen
data_CuH18C28N3O5
_symmetry_space_group_name_H-M   'P 1'
_cell_length_a   14.94255600
_cell_length_b   15.55048500
_cell_length_c   16.99388700
_cell_angle_alpha   96.36248700
_cell_angle_beta   90.00491400
_cell_angle_gamma   92.82251500
_symmetry_Int_Tables_number   1
_chemical_formula_structural   CuH18C28N3O5
_chemical_formula_sum   'Cu2 H36 C56 N6 O10'
_cell_volume   3919.62375454
_cell_formula_units_Z   2
loop_
 _symmetry_equiv_pos_site_id
 _symmetry_equiv_pos_as_xyz
  1  'x, y, z'
loop_
 _atom_site_type_symbol
 _atom_site_label
 _atom_site_symmetry_multiplicity
 _atom_site_fract_x
 _atom_site_fract_y
 _atom_site_fract_z
 _atom_site_occupancy
  Cu  Cu1  1  0.49476600  0.40959100  0.49700600  1
  Cu  Cu2  1  0.50476300  0.58250400  0.50392500  1
  H  H1  1  0.77611900  0.49020100  0.62118000  1
  H  H2  1  0.22373600  0.50275300  0.37992600  1
  H  H3  1  0.77907800  0.49841900  0.37280000  1
  H  H4  1  0.22037100  0.49273500  0.62800300  1
  H  H5  1  0.09012200  0.50207300  0.30895600  1
  H  H6  1  0.90995100  0.49100000  0.69232700  1
  H  H7  1  0.48571200  0.37478300  0.74371600  1
  H  H8  1  0.51137100  0.61692600  0.25784600  1
  H  H9  1  0.48464900  0.38304400  0.88385000  1
  H  H10  1  0.50849300  0.60900100  0.11594800  1
  H  H11  1  0.46436600  0.33296900  0.10109500  1
  H  H12  1  0.51995800  0.66005500  0.89961200  1
  H  H13  1  0.46799900  0.34206700  0.24528200  1
  H  H14  1  0.52139300  0.65163400  0.75649500  1
  H  H15  1  0.58742700  0.27961900  0.57851100  1
  H  H16  1  0.41229400  0.71472900  0.42229000  1
  H  H17  1  0.58514100  0.12426000  0.57282100  1
  H  H18  1  0.41705900  0.86956800  0.42575600  1
  H  H19  1  0.62068900  0.88365700  0.60558100  1
  H  H20  1  0.38027500  0.10720900  0.39365800  1
  H  H21  1  0.61108400  0.72491600  0.59803800  1
  H  H22  1  0.38661600  0.26586400  0.40411900  1
  H  H23  1  0.99860100  0.44124600  0.20597900  1
  H  H24  1  0.99147400  0.55845700  0.21530800  1
  H  H25  1  0.77203200  0.45087900  0.22054500  1
  H  H26  1  0.66872400  0.43264900  0.10957000  1
  H  H27  1  0.71995800  0.45692500  0.97600000  1
  H  H28  1  0.87839600  0.49822400  0.95396000  1
  H  H29  1  0.98454800  0.51569800  0.06517700  1
  H  H30  1  0.00581700  0.43509200  0.78619200  1
  H  H31  1  0.00478700  0.55239900  0.79572200  1
  H  H32  1  0.17796000  0.38563800  0.79765300  1
  H  H33  1  0.29346900  0.39288500  0.90148800  1
  H  H34  1  0.29792500  0.51176600  0.00981900  1
  H  H35  1  0.18718500  0.62388300  0.01405500  1
  H  H36  1  0.07177000  0.61736900  0.91084500  1
  C  C1  1  0.49441600  0.48588900  0.34851800  1
  C  C2  1  0.50437600  0.50623900  0.65234900  1
  C  C3  1  0.32800200  0.49752500  0.50476500  1
  C  C4  1  0.67125500  0.49454700  0.49651000  1
  C  C5  1  0.81363700  0.49183400  0.56700400  1
  C  C6  1  0.18587800  0.50086000  0.43402600  1
  C  C7  1  0.76880300  0.49393600  0.49668300  1
  C  C8  1  0.23060100  0.49828600  0.50438400  1
  C  C9  1  0.81598700  0.49647200  0.42719700  1
  C  C10  1  0.18340200  0.49509000  0.57370000  1
  C  C11  1  0.90867800  0.49590800  0.42795800  1
  C  C12  1  0.09058900  0.49581400  0.57282400  1
  C  C13  1  0.95345700  0.49523500  0.49918900  1
  C  C14  1  0.04580600  0.49700700  0.50158700  1
  C  C15  1  0.90582000  0.49288900  0.56836800  1
  C  C16  1  0.09355300  0.49968400  0.43249000  1
  C  C17  1  0.95660600  0.49678300  0.35814500  1
  C  C18  1  0.04263400  0.49491900  0.64255300  1
  C  C19  1  0.04952300  0.50006600  0.36132900  1
  C  C20  1  0.94981600  0.49258700  0.63960700  1
  C  C21  1  0.49059000  0.48005100  0.26173300  1
  C  C22  1  0.50395500  0.51238100  0.73893500  1
  C  C23  1  0.50090000  0.55417400  0.22398000  1
  C  C24  1  0.49333600  0.43821100  0.77670600  1
  C  C25  1  0.49927800  0.54914600  0.14241400  1
  C  C26  1  0.49263700  0.44339400  0.85805800  1
  C  C27  1  0.48608100  0.46933200  0.09754800  1
  C  C28  1  0.50149100  0.52350700  0.90292100  1
  C  C29  1  0.47453700  0.39551600  0.13547700  1
  C  C30  1  0.51252300  0.59738600  0.86514600  1
  C  C31  1  0.47680500  0.40071300  0.21701700  1
  C  C32  1  0.51314000  0.59221400  0.78372400  1
  C  C33  1  0.45790000  0.75187800  0.46319000  1
  C  C34  1  0.54103000  0.24129200  0.53791400  1
  C  C35  1  0.46105000  0.84085500  0.46550200  1
  C  C36  1  0.53973900  0.15202300  0.53416100  1
  C  C37  1  0.51978900  0.88965700  0.51757400  1
  C  C38  1  0.48080200  0.10230900  0.48250200  1
  C  C39  1  0.57406200  0.84749100  0.56481000  1
  C  C40  1  0.42638600  0.14404100  0.43492500  1
  C  C41  1  0.56888800  0.75834900  0.56075400  1
  C  C42  1  0.42954200  0.23327300  0.44055000  1
  C  C43  1  0.95321900  0.49563100  0.21637100  1
  C  C44  1  0.88605500  0.48604600  0.15069600  1
  C  C45  1  0.79694900  0.46269100  0.16288900  1
  C  C46  1  0.73780000  0.45207500  0.09998900  1
  C  C47  1  0.76669800  0.46524100  0.02508200  1
  C  C48  1  0.85533900  0.48835900  0.01275400  1
  C  C49  1  0.91489600  0.49829100  0.07537300  1
  C  C50  1  0.04738200  0.49597700  0.78446600  1
  C  C51  1  0.11764000  0.50106800  0.84726800  1
  C  C52  1  0.17996000  0.43823600  0.84500700  1
  C  C53  1  0.24481300  0.44221800  0.90324300  1
  C  C54  1  0.24740400  0.50888900  0.96395100  1
  C  C55  1  0.18523700  0.57170900  0.96635500  1
  C  C56  1  0.12036400  0.56789600  0.90816300  1
  N  N1  1  0.48540000  0.46124300  0.01375400  1
  N  N2  1  0.49932000  0.53180400  0.98665200  1
  N  N3  1  0.51212200  0.71183100  0.50955300  1
  N  N4  1  0.48621900  0.28036200  0.49156200  1
  N  N5  1  0.52795200  0.98097900  0.52219400  1
  N  N6  1  0.47473000  0.01068200  0.47712600  1
  O  O1  1  0.48794700  0.41425400  0.38265800  1
  O  O2  1  0.51082200  0.57784500  0.61814900  1
  O  O3  1  0.50404800  0.56275800  0.38841400  1
  O  O4  1  0.49569800  0.42934300  0.61235800  1
  O  O5  1  0.36519300  0.42322000  0.50324300  1
  O  O6  1  0.63420400  0.56918500  0.49799100  1
  O  O7  1  0.37430200  0.57099900  0.50334900  1
  O  O8  1  0.62507000  0.42066300  0.49699900  1
  O  O9  1  0.91196500  0.49377500  0.28852400  1
  O  O10  1  0.08756900  0.49646800  0.71179200  1
