# generated using pymatgen
data_ZnH13C25N3O4
_symmetry_space_group_name_H-M   'P 1'
_cell_length_a   17.45910100
_cell_length_b   8.55323700
_cell_length_c   14.91068300
_cell_angle_alpha   90.00000000
_cell_angle_beta   90.98979200
_cell_angle_gamma   90.00000000
_symmetry_Int_Tables_number   1
_chemical_formula_structural   ZnH13C25N3O4
_chemical_formula_sum   'Zn2 H26 C50 N6 O8'
_cell_volume   2226.30731910
_cell_formula_units_Z   2
loop_
 _symmetry_equiv_pos_site_id
 _symmetry_equiv_pos_as_xyz
  1  'x, y, z'
loop_
 _atom_site_type_symbol
 _atom_site_label
 _atom_site_symmetry_multiplicity
 _atom_site_fract_x
 _atom_site_fract_y
 _atom_site_fract_z
 _atom_site_occupancy
  Zn  Zn1  1  0.91559400  0.50214000  0.51515200  1
  Zn  Zn2  1  0.08440600  0.50214000  0.48484800  1
  H  H1  1  0.04135800  0.00227300  0.55922000  1
  H  H2  1  0.95864200  0.00227300  0.44078000  1
  H  H3  1  0.00475400  0.25269100  0.80017800  1
  H  H4  1  0.99523500  0.75163600  0.19988600  1
  H  H5  1  0.99524600  0.25269100  0.19982200  1
  H  H6  1  0.00476500  0.75163600  0.80011400  1
  H  H7  1  0.81280400  0.50653800  0.38916600  1
  H  H8  1  0.18719600  0.50653800  0.61083300  1
  H  H9  1  0.70201000  0.50813300  0.29838600  1
  H  H10  1  0.29798900  0.50813300  0.70161400  1
  H  H11  1  0.67153900  0.50516500  0.74320600  1
  H  H12  1  0.32846100  0.50516500  0.25679400  1
  H  H13  1  0.58864700  0.50868100  0.20565500  1
  H  H14  1  0.41135300  0.50868100  0.79434500  1
  H  H15  1  0.44901700  0.50725000  0.19078500  1
  H  H16  1  0.55098300  0.50725000  0.80921500  1
  H  H17  1  0.74117100  0.28441000  0.73708600  1
  H  H18  1  0.83147300  0.23279800  0.68985700  1
  H  H19  1  0.82835900  0.31100700  0.80217800  1
  H  H20  1  0.87380500  0.50519400  0.69445200  1
  H  H21  1  0.78998900  0.57049300  0.74418400  1
  H  H22  1  0.25882900  0.28441000  0.26291300  1
  H  H23  1  0.16852700  0.23279800  0.31014200  1
  H  H24  1  0.17164100  0.31100700  0.19782200  1
  H  H25  1  0.12619500  0.50519400  0.30554800  1
  H  H26  1  0.21001100  0.57049300  0.25581600  1
  C  C1  1  0.02353600  0.14166300  0.67483400  1
  C  C2  1  0.97646000  0.86276700  0.32521200  1
  C  C3  1  0.97646400  0.14166300  0.32516600  1
  C  C4  1  0.02354000  0.86276700  0.67478800  1
  C  C5  1  0.01170100  0.14231200  0.76601900  1
  C  C6  1  0.98829000  0.86204000  0.23402000  1
  C  C7  1  0.98829900  0.14231200  0.23398000  1
  C  C8  1  0.01170900  0.86204000  0.76597900  1
  C  C9  1  0.00926500  0.00215700  0.81259100  1
  C  C10  1  0.99073500  0.00215700  0.18740900  1
  C  C11  1  0.03318800  0.00223700  0.63071600  1
  C  C12  1  0.96681200  0.00223700  0.36928300  1
  C  C13  1  0.99684300  0.00213500  0.08953100  1
  C  C14  1  0.00315700  0.00213500  0.91046900  1
  C  C15  1  0.01632300  0.72100400  0.62087100  1
  C  C16  1  0.98365700  0.28347300  0.37903800  1
  C  C17  1  0.98367700  0.72100400  0.37912800  1
  C  C18  1  0.01634300  0.28347300  0.62096200  1
  C  C19  1  0.77997000  0.50549800  0.44974300  1
  C  C20  1  0.22003000  0.50549800  0.55025700  1
  C  C21  1  0.77388200  0.49669700  0.60671500  1
  C  C22  1  0.22611800  0.49669700  0.39328500  1
  C  C23  1  0.66726200  0.50717000  0.35768900  1
  C  C24  1  0.33273800  0.50717000  0.64231100  1
  C  C25  1  0.70158800  0.50546800  0.44174500  1
  C  C26  1  0.29841200  0.50546800  0.55825500  1
  C  C27  1  0.65792700  0.50428400  0.51714700  1
  C  C28  1  0.34207300  0.50428400  0.48285200  1
  C  C29  1  0.69359800  0.50122600  0.60055100  1
  C  C30  1  0.30640200  0.50122600  0.39944800  1
  C  C31  1  0.64788400  0.50375000  0.67610300  1
  C  C32  1  0.35211600  0.50375000  0.32389700  1
  C  C33  1  0.55417500  0.50782600  0.26518500  1
  C  C34  1  0.44582500  0.50782600  0.73481500  1
  C  C35  1  0.58859800  0.50702900  0.34912700  1
  C  C36  1  0.41140200  0.50702900  0.65087200  1
  C  C37  1  0.54434600  0.50612700  0.42467400  1
  C  C38  1  0.45565400  0.50612700  0.57532600  1
  C  C39  1  0.47546200  0.50707200  0.25687800  1
  C  C40  1  0.52453800  0.50707200  0.74312200  1
  C  C41  1  0.43098000  0.50560100  0.33252600  1
  C  C42  1  0.56902000  0.50560100  0.66747300  1
  C  C43  1  0.57897300  0.50541800  0.50860800  1
  C  C44  1  0.42102700  0.50541800  0.49139200  1
  C  C45  1  0.53451000  0.50557000  0.58378800  1
  C  C46  1  0.46549000  0.50557000  0.41621200  1
  C  C47  1  0.81230800  0.48199000  0.69716300  1
  C  C48  1  0.80231200  0.31753100  0.73391900  1
  C  C49  1  0.18769200  0.48199000  0.30283700  1
  C  C50  1  0.19768800  0.31753100  0.26608100  1
  N  N1  1  0.00168300  0.86615500  0.95574800  1
  N  N2  1  0.99831800  0.13811200  0.04425100  1
  N  N3  1  0.99831700  0.86615500  0.04425200  1
  N  N4  1  0.00168200  0.13811200  0.95574900  1
  N  N5  1  0.81597000  0.50203900  0.53055800  1
  N  N6  1  0.18403000  0.50203900  0.46944200  1
  O  O1  1  0.07685700  0.67128000  0.57843000  1
  O  O2  1  0.92315300  0.33306200  0.42155100  1
  O  O3  1  0.92314300  0.67128000  0.42157000  1
  O  O4  1  0.07684700  0.33306200  0.57844900  1
  O  O5  1  0.94711300  0.66607700  0.60570200  1
  O  O6  1  0.05283400  0.33856200  0.39413200  1
  O  O7  1  0.05288700  0.66607700  0.39429700  1
  O  O8  1  0.94716600  0.33856200  0.60586800  1
