# generated using pymatgen
data_ZnH14C16(N3O2)2
_symmetry_space_group_name_H-M   'P 1'
_cell_length_a   8.51907100
_cell_length_b   10.92226200
_cell_length_c   13.43939100
_cell_angle_alpha   90.00000000
_cell_angle_beta   93.66754300
_cell_angle_gamma   90.00000000
_symmetry_Int_Tables_number   1
_chemical_formula_structural   ZnH14C16(N3O2)2
_chemical_formula_sum   'Zn2 H28 C32 N12 O8'
_cell_volume   1247.94106612
_cell_formula_units_Z   2
loop_
 _symmetry_equiv_pos_site_id
 _symmetry_equiv_pos_as_xyz
  1  'x, y, z'
loop_
 _atom_site_type_symbol
 _atom_site_label
 _atom_site_symmetry_multiplicity
 _atom_site_fract_x
 _atom_site_fract_y
 _atom_site_fract_z
 _atom_site_occupancy
  Zn  Zn1  1  0.47890400  0.99260300  0.02257100  1
  Zn  Zn2  1  0.49810800  0.00805700  0.24482000  1
  H  H1  1  0.23848500  0.59241700  0.11597700  1
  H  H2  1  0.24358800  0.40950000  0.14730200  1
  H  H3  1  0.98359000  0.08794200  0.09789100  1
  H  H4  1  0.98855200  0.91341300  0.16753200  1
  H  H5  1  0.49691200  0.82237700  0.37640300  1
  H  H6  1  0.54591200  0.20205800  0.39050700  1
  H  H7  1  0.44564900  0.69309100  0.71225900  1
  H  H8  1  0.51124200  0.30071100  0.73472500  1
  H  H9  1  0.49041300  0.40065500  0.07506400  1
  H  H10  1  0.50893400  0.39110700  0.20283000  1
  H  H11  1  0.49380300  0.60625800  0.08039800  1
  H  H12  1  0.50531900  0.59621500  0.20797200  1
  H  H13  1  0.66961900  0.65700400  0.62654700  1
  H  H14  1  0.71095000  0.80673100  0.64795700  1
  H  H15  1  0.75927100  0.28738900  0.67436300  1
  H  H16  1  0.75413700  0.13322400  0.66070100  1
  H  H17  1  0.38230200  0.26000500  0.87596600  1
  H  H18  1  0.58299700  0.25405500  0.89163000  1
  H  H19  1  0.29696800  0.76683300  0.89512800  1
  H  H20  1  0.49076100  0.75067100  0.94073600  1
  H  H21  1  0.41882300  0.33180700  0.50564500  1
  H  H22  1  0.54393300  0.40865300  0.58656500  1
  H  H23  1  0.31817800  0.71541700  0.47813800  1
  H  H24  1  0.40356700  0.60523000  0.55143000  1
  H  H25  1  0.19202300  0.77482900  0.71608500  1
  H  H26  1  0.21668100  0.86512700  0.61653700  1
  H  H27  1  0.28337600  0.33659400  0.65904900  1
  H  H28  1  0.23909900  0.20271300  0.71263500  1
  C  C1  1  0.98990300  0.43595500  0.13367300  1
  C  C2  1  0.98964700  0.56466400  0.13652100  1
  C  C3  1  0.84773800  0.37227000  0.13292600  1
  C  C4  1  0.84765000  0.62735500  0.14180700  1
  C  C5  1  0.70778800  0.43621600  0.13745700  1
  C  C6  1  0.70779200  0.56246900  0.14187200  1
  C  C7  1  0.84849300  0.75490600  0.14804900  1
  C  C8  1  0.84807100  0.24481900  0.12524900  1
  C  C9  1  0.98857200  0.81636700  0.15580500  1
  C  C10  1  0.98575600  0.18474800  0.11093200  1
  C  C11  1  0.12688000  0.75812600  0.14162600  1
  C  C12  1  0.12686400  0.24382400  0.12083000  1
  C  C13  1  0.12781300  0.63283200  0.13011100  1
  C  C14  1  0.12986000  0.36873100  0.13476600  1
  C  C15  1  0.26867800  0.83362900  0.13768400  1
  C  C16  1  0.26968300  0.16865000  0.12524800  1
  C  C17  1  0.70903100  0.16652100  0.12993100  1
  C  C18  1  0.70792600  0.83245500  0.14276100  1
  C  C19  1  0.52590100  0.11727300  0.42907200  1
  C  C20  1  0.49781500  0.90447900  0.42110600  1
  C  C21  1  0.48962100  0.89714600  0.52320000  1
  C  C22  1  0.52118600  0.11341300  0.53210600  1
  C  C23  1  0.49506900  0.00317700  0.57858600  1
  C  C24  1  0.49819900  0.77549000  0.57401900  1
  C  C25  1  0.56421700  0.22259900  0.59473000  1
  C  C26  1  0.41458100  0.77825400  0.67079800  1
  C  C27  1  0.46955900  0.22327500  0.68721000  1
  C  C28  1  0.45956300  0.88795600  0.73269400  1
  C  C29  1  0.48540100  0.10358000  0.74158100  1
  C  C30  1  0.48438700  0.99776600  0.68649500  1
  C  C31  1  0.45068800  0.88335000  0.83527200  1
  C  C32  1  0.47852400  0.09665800  0.84455100  1
  N  N1  1  0.50797100  0.01360100  0.37548400  1
  N  N2  1  0.46847700  0.98678500  0.89135700  1
  N  N3  1  0.56193300  0.37234200  0.13667200  1
  N  N4  1  0.56198200  0.62549500  0.14566800  1
  N  N5  1  0.66292800  0.74458000  0.59544000  1
  N  N6  1  0.73128800  0.21637000  0.62434900  1
  N  N7  1  0.47852100  0.20681700  0.90134400  1
  N  N8  1  0.41496100  0.76845000  0.87878000  1
  N  N9  1  0.53361900  0.33434700  0.53777600  1
  N  N10  1  0.42575700  0.68230400  0.50863000  1
  N  N11  1  0.24555400  0.78030600  0.64850900  1
  N  N12  1  0.30436500  0.24243200  0.65795900  1
  O  O1  1  0.32552900  0.88324800  0.22115000  1
  O  O2  1  0.32649800  0.13175200  0.21329000  1
  O  O3  1  0.31666400  0.86476000  0.05017600  1
  O  O4  1  0.31721200  0.12388800  0.04159100  1
  O  O5  1  0.65160600  0.11777800  0.04630200  1
  O  O6  1  0.65091600  0.86869200  0.05441900  1
  O  O7  1  0.66053600  0.13657900  0.21784000  1
  O  O8  1  0.65936900  0.87600600  0.22632000  1
