# generated using pymatgen
data_ZnH17C37(NO3)2
_symmetry_space_group_name_H-M   'P 1'
_cell_length_a   17.46582800
_cell_length_b   8.55573800
_cell_length_c   23.21058600
_cell_angle_alpha   90.00000000
_cell_angle_beta   93.84982800
_cell_angle_gamma   90.00000000
_symmetry_Int_Tables_number   1
_chemical_formula_structural   ZnH17C37(NO3)2
_chemical_formula_sum   'Zn2 H34 C74 N4 O12'
_cell_volume   3460.60195417
_cell_formula_units_Z   2
loop_
 _symmetry_equiv_pos_site_id
 _symmetry_equiv_pos_as_xyz
  1  'x, y, z'
loop_
 _atom_site_type_symbol
 _atom_site_label
 _atom_site_symmetry_multiplicity
 _atom_site_fract_x
 _atom_site_fract_y
 _atom_site_fract_z
 _atom_site_occupancy
  Zn  Zn1  1  0.91610800  0.49652600  0.50915900  1
  Zn  Zn2  1  0.08389200  0.49652600  0.49084100  1
  H  H1  1  0.03156900  0.24855200  0.69292500  1
  H  H2  1  0.01062200  0.75211200  0.31261200  1
  H  H3  1  0.96843100  0.24855200  0.30707500  1
  H  H4  1  0.98937800  0.75211200  0.68738800  1
  H  H5  1  0.95359100  0.36894200  0.85562800  1
  H  H6  1  0.94647800  0.62052200  0.13772800  1
  H  H7  1  0.04640800  0.36894200  0.14437300  1
  H  H8  1  0.05352100  0.62052200  0.86227300  1
  H  H9  1  0.03429900  0.37729500  0.04039200  1
  H  H10  1  0.03602700  0.61219600  0.96418400  1
  H  H11  1  0.96570100  0.37729500  0.95960800  1
  H  H12  1  0.96397300  0.61219600  0.03581600  1
  H  H13  1  0.04607900  0.99596300  0.53850100  1
  H  H14  1  0.95392100  0.99596300  0.46149900  1
  H  H15  1  0.80767600  0.49490400  0.42758500  1
  H  H16  1  0.19232400  0.49490400  0.57241600  1
  H  H17  1  0.69245800  0.49516200  0.36941000  1
  H  H18  1  0.30754200  0.49516200  0.63059100  1
  H  H19  1  0.68280800  0.49686200  0.65596900  1
  H  H20  1  0.31719200  0.49686200  0.34403100  1
  H  H21  1  0.57477300  0.49589600  0.31013700  1
  H  H22  1  0.42522700  0.49589600  0.68986300  1
  H  H23  1  0.43455600  0.49696200  0.30110100  1
  H  H24  1  0.56544400  0.49696200  0.69889900  1
  H  H25  1  0.88230200  0.49307100  0.62476600  1
  H  H26  1  0.80121000  0.40906700  0.65341400  1
  H  H27  1  0.77040400  0.74675200  0.63049600  1
  H  H28  1  0.86998100  0.60328900  0.73024500  1
  H  H29  1  0.82418300  0.80179100  0.72679300  1
  H  H30  1  0.11769800  0.49307100  0.37523400  1
  H  H31  1  0.19879000  0.40906700  0.34658600  1
  H  H32  1  0.22959600  0.74675200  0.36950400  1
  H  H33  1  0.13001900  0.60329000  0.26975600  1
  H  H34  1  0.17581700  0.80179100  0.27320800  1
  C  C1  1  0.97981200  0.12066800  0.79065800  1
  C  C2  1  0.96731900  0.86958500  0.20560200  1
  C  C3  1  0.02018800  0.12066800  0.20934200  1
  C  C4  1  0.03268100  0.86958500  0.79439800  1
  C  C5  1  0.00861600  0.85996700  0.66910400  1
  C  C6  1  0.97464200  0.13712300  0.32843200  1
  C  C7  1  0.99138400  0.85996700  0.33089600  1
  C  C8  1  0.02535800  0.13712300  0.67156800  1
  C  C9  1  0.02748400  0.85797600  0.61231900  1
  C  C10  1  0.96905400  0.13568500  0.38738800  1
  C  C11  1  0.97251600  0.85797600  0.38768100  1
  C  C12  1  0.03094600  0.13568500  0.61261200  1
  C  C13  1  0.01417300  0.99785000  0.70105600  1
  C  C14  1  0.98582700  0.99785000  0.29894400  1
  C  C15  1  0.00288500  0.99475300  0.88152300  1
  C  C16  1  0.99711500  0.99475300  0.11847700  1
  C  C17  1  0.98463500  0.12692100  0.85035700  1
  C  C18  1  0.97706300  0.86263100  0.14705000  1
  C  C19  1  0.01536500  0.12692100  0.14964300  1
  C  C20  1  0.02293600  0.86263100  0.85295000  1
  C  C21  1  0.96916100  0.26334600  0.87913000  1
  C  C22  1  0.96346400  0.72605600  0.11641100  1
  C  C23  1  0.03083900  0.26334600  0.12087000  1
  C  C24  1  0.03653600  0.72605600  0.88358900  1
  C  C25  1  0.03889100  0.99636500  0.58431400  1
  C  C26  1  0.96110900  0.99636500  0.41568600  1
  C  C27  1  0.00502400  0.13394200  0.02996400  1
  C  C28  1  0.00633100  0.85559700  0.97077400  1
  C  C29  1  0.99497600  0.13394200  0.97003600  1
  C  C30  1  0.99366900  0.85559700  0.02922600  1
  C  C31  1  0.99868700  0.99475300  0.05916800  1
  C  C32  1  0.00131300  0.99475300  0.94083300  1
  C  C33  1  0.02205400  0.26872800  0.06136400  1
  C  C34  1  0.02472800  0.72071200  0.94170800  1
  C  C35  1  0.97794600  0.26872800  0.93863700  1
  C  C36  1  0.97527100  0.72071200  0.05829300  1
  C  C37  1  0.02004700  0.71571500  0.57771100  1
  C  C38  1  0.97889400  0.27788100  0.42199300  1
  C  C39  1  0.97995300  0.71571500  0.42228900  1
  C  C40  1  0.02110600  0.27788100  0.57800700  1
  C  C41  1  0.77751900  0.49541000  0.46663200  1
  C  C42  1  0.22248000  0.49541000  0.53336800  1
  C  C43  1  0.77845700  0.49931700  0.56771900  1
  C  C44  1  0.22154300  0.49931700  0.43228100  1
  C  C45  1  0.66050900  0.49587000  0.40771600  1
  C  C46  1  0.33949100  0.49587000  0.59228400  1
  C  C47  1  0.69876100  0.49621900  0.46170600  1
  C  C48  1  0.30123900  0.49621900  0.53829400  1
  C  C49  1  0.65857900  0.49723900  0.51039300  1
  C  C50  1  0.34142100  0.49723900  0.48960700  1
  C  C51  1  0.69805500  0.49841300  0.56395100  1
  C  C52  1  0.30194500  0.49841300  0.43605000  1
  C  C53  1  0.65604000  0.49811100  0.61283200  1
  C  C54  1  0.34396000  0.49811100  0.38716800  1
  C  C55  1  0.54312900  0.49640300  0.34859800  1
  C  C56  1  0.45687100  0.49640300  0.65140200  1
  C  C57  1  0.58147700  0.49652400  0.40250900  1
  C  C58  1  0.41852300  0.49652400  0.59749100  1
  C  C59  1  0.54077900  0.49712400  0.45131600  1
  C  C60  1  0.45922100  0.49712400  0.54868500  1
  C  C61  1  0.46408100  0.49698500  0.34355200  1
  C  C62  1  0.53591900  0.49698500  0.65644800  1
  C  C63  1  0.42317500  0.49758600  0.39242500  1
  C  C64  1  0.57682500  0.49758600  0.60757600  1
  C  C65  1  0.57930000  0.49732200  0.50521800  1
  C  C66  1  0.42070000  0.49732200  0.49478300  1
  C  C67  1  0.53841500  0.49750500  0.55381700  1
  C  C68  1  0.46158500  0.49750500  0.44618300  1
  C  C69  1  0.82025600  0.50627000  0.62622300  1
  C  C70  1  0.80547500  0.65983700  0.65374700  1
  C  C71  1  0.83506200  0.69014600  0.70683000  1
  C  C72  1  0.17974400  0.50627000  0.37377700  1
  C  C73  1  0.19452500  0.65983700  0.34625300  1
  C  C74  1  0.16493800  0.69014600  0.29317100  1
  N  N1  1  0.00803500  0.99577700  0.76281600  1
  N  N2  1  0.99196500  0.99577700  0.23718400  1
  N  N3  1  0.81712700  0.49648400  0.51860800  1
  N  N4  1  0.18287200  0.49648400  0.48139300  1
  O  O1  1  0.94459300  0.23795900  0.76099400  1
  O  O2  1  0.93028700  0.75185500  0.23003000  1
  O  O3  1  0.05540700  0.23795900  0.23900600  1
  O  O4  1  0.06971300  0.75185500  0.76997000  1
  O  O5  1  0.07957500  0.66603800  0.55095700  1
  O  O6  1  0.92007800  0.32810100  0.44876500  1
  O  O7  1  0.92042500  0.66603800  0.44904300  1
  O  O8  1  0.07992200  0.32810100  0.55123500  1
  O  O9  1  0.95079400  0.65936300  0.56787900  1
  O  O10  1  0.04891500  0.33235400  0.43250300  1
  O  O11  1  0.04920600  0.65936300  0.43212100  1
  O  O12  1  0.95108400  0.33235400  0.56749700  1
