# generated using pymatgen
data_ZnH14C26NO6
_symmetry_space_group_name_H-M   'P 1'
_cell_length_a   10.89776400
_cell_length_b   10.87921700
_cell_length_c   17.64935700
_cell_angle_alpha   90.00000000
_cell_angle_beta   90.00000000
_cell_angle_gamma   90.00000000
_symmetry_Int_Tables_number   1
_chemical_formula_structural   ZnH14C26NO6
_chemical_formula_sum   'Zn2 H28 C52 N2 O12'
_cell_volume   2092.49257637
_cell_formula_units_Z   2
loop_
 _symmetry_equiv_pos_site_id
 _symmetry_equiv_pos_as_xyz
  1  'x, y, z'
loop_
 _atom_site_type_symbol
 _atom_site_label
 _atom_site_symmetry_multiplicity
 _atom_site_fract_x
 _atom_site_fract_y
 _atom_site_fract_z
 _atom_site_occupancy
  Zn  Zn1  1  0.49099400  0.50178800  0.91459800  1
  Zn  Zn2  1  0.50900600  0.50178800  0.08540200  1
  H  H1  1  0.09340900  0.69372800  0.98526900  1
  H  H2  1  0.90637300  0.31045900  0.01241300  1
  H  H3  1  0.09362700  0.31045900  0.98758700  1
  H  H4  1  0.90659100  0.69372800  0.01473100  1
  H  H5  1  0.41234700  0.89463600  0.03509200  1
  H  H6  1  0.58747900  0.10872300  0.96507000  1
  H  H7  1  0.41252100  0.10872300  0.03493000  1
  H  H8  1  0.58765300  0.89463600  0.96490800  1
  H  H9  1  0.19281400  0.55549300  0.68069800  1
  H  H10  1  0.80718600  0.55549300  0.31930200  1
  H  H11  1  0.78909400  0.43068500  0.69079800  1
  H  H12  1  0.21090600  0.43068500  0.30920200  1
  H  H13  1  0.20092600  0.43985900  0.44297800  1
  H  H14  1  0.79907400  0.43985900  0.55702200  1
  H  H15  1  0.80520100  0.54081800  0.45308300  1
  H  H16  1  0.19479900  0.54081800  0.54691700  1
  H  H17  1  0.68498800  0.68037800  0.78990100  1
  H  H18  1  0.82406700  0.60911600  0.75457300  1
  H  H19  1  0.81007600  0.64107400  0.85284700  1
  H  H20  1  0.31501200  0.68037800  0.21009900  1
  H  H21  1  0.17593300  0.60911600  0.24542700  1
  H  H22  1  0.18992400  0.64107400  0.14715300  1
  H  H23  1  0.28984000  0.32609200  0.79471600  1
  H  H24  1  0.14954000  0.39346500  0.75851800  1
  H  H25  1  0.16840200  0.37385100  0.85812400  1
  H  H26  1  0.71016000  0.32609200  0.20528400  1
  H  H27  1  0.85046000  0.39346500  0.24148200  1
  H  H28  1  0.83159800  0.37385100  0.14187600  1
  C  C1  1  0.25826800  0.78471500  0.00862100  1
  C  C2  1  0.74172700  0.21889200  0.99070400  1
  C  C3  1  0.25827300  0.21889200  0.00929600  1
  C  C4  1  0.74173200  0.78471500  0.99137900  1
  C  C5  1  0.31495400  0.89365300  0.02456000  1
  C  C6  1  0.68492200  0.10980800  0.97537100  1
  C  C7  1  0.31507800  0.10980800  0.02462900  1
  C  C8  1  0.68504600  0.89365300  0.97544000  1
  C  C9  1  0.25093300  0.00176900  0.02003100  1
  C  C10  1  0.74906700  0.00176900  0.97996900  1
  C  C11  1  0.13302800  0.78193700  0.99807700  1
  C  C12  1  0.86700300  0.22186200  0.00061200  1
  C  C13  1  0.13299700  0.22186200  0.99938800  1
  C  C14  1  0.86697200  0.78193700  0.00192300  1
  C  C15  1  0.06395900  0.89023700  0.00254700  1
  C  C16  1  0.93606300  0.11347400  0.99713600  1
  C  C17  1  0.06393700  0.11347400  0.00286400  1
  C  C18  1  0.93604100  0.89023700  0.99745300  1
  C  C19  1  0.12560500  0.00183200  0.00833400  1
  C  C20  1  0.87439500  0.00183200  0.99166600  1
  C  C21  1  0.33442000  0.67438100  0.00388900  1
  C  C22  1  0.66572200  0.32925400  0.99576000  1
  C  C23  1  0.33427800  0.32925400  0.00424000  1
  C  C24  1  0.66558000  0.67438100  0.99611100  1
  C  C25  1  0.38116700  0.50728800  0.77440300  1
  C  C26  1  0.61883300  0.50728800  0.22559700  1
  C  C27  1  0.59621800  0.49375300  0.77667200  1
  C  C28  1  0.40378200  0.49375300  0.22332800  1
  C  C29  1  0.49269400  0.49505300  0.65723000  1
  C  C30  1  0.50730600  0.49505300  0.34277000  1
  C  C31  1  0.38390400  0.51160300  0.69533500  1
  C  C32  1  0.61609600  0.51160300  0.30466500  1
  C  C33  1  0.59840500  0.48107000  0.69833800  1
  C  C34  1  0.40159500  0.48107000  0.30166200  1
  C  C35  1  0.27851300  0.53210700  0.65365200  1
  C  C36  1  0.72148700  0.53210700  0.34634800  1
  C  C37  1  0.70637200  0.45473400  0.66057200  1
  C  C38  1  0.29362800  0.45473400  0.33942800  1
  C  C39  1  0.39251800  0.48540400  0.45896000  1
  C  C40  1  0.60748200  0.48540400  0.54104000  1
  C  C41  1  0.61140800  0.49944300  0.46251100  1
  C  C42  1  0.38859200  0.49944300  0.53748900  1
  C  C43  1  0.50378700  0.49320800  0.42146500  1
  C  C44  1  0.49621300  0.49320800  0.57853500  1
  C  C45  1  0.28802400  0.46061400  0.41701600  1
  C  C46  1  0.71197600  0.46061400  0.58298400  1
  C  C47  1  0.72002500  0.52287600  0.42407700  1
  C  C48  1  0.27997500  0.52287600  0.57592300  1
  C  C49  1  0.75784800  0.61195100  0.80210400  1
  C  C50  1  0.24215200  0.61195100  0.19789600  1
  C  C51  1  0.21770400  0.39606700  0.80502900  1
  C  C52  1  0.78229600  0.39606700  0.19497100  1
  N  N1  1  0.48751700  0.50174900  0.81472200  1
  N  N2  1  0.51248300  0.50174900  0.18527800  1
  O  O1  1  0.38391000  0.63446100  0.06696500  1
  O  O2  1  0.61806900  0.37077600  0.93262900  1
  O  O3  1  0.63416300  0.37044300  0.06311000  1
  O  O4  1  0.36389500  0.63142400  0.93664300  1
  O  O5  1  0.36583700  0.37044300  0.93689000  1
  O  O6  1  0.63610500  0.63142400  0.06335700  1
  O  O7  1  0.61609000  0.63446100  0.93303500  1
  O  O8  1  0.38193100  0.37077600  0.06737100  1
  O  O9  1  0.70578800  0.49561800  0.81517800  1
  O  O10  1  0.29421200  0.49561800  0.18482200  1
  O  O11  1  0.27035600  0.51333100  0.81121400  1
  O  O12  1  0.72964400  0.51333100  0.18878600  1
