# generated using pymatgen
data_ZnH12C26N2O9
_symmetry_space_group_name_H-M   'P 1'
_cell_length_a   16.60073200
_cell_length_b   17.04654000
_cell_length_c   17.75667100
_cell_angle_alpha   89.63622100
_cell_angle_beta   90.00050700
_cell_angle_gamma   93.56662900
_symmetry_Int_Tables_number   1
_chemical_formula_structural   ZnH12C26N2O9
_chemical_formula_sum   'Zn2 H24 C52 N4 O18'
_cell_volume   5015.03830875
_cell_formula_units_Z   2
loop_
 _symmetry_equiv_pos_site_id
 _symmetry_equiv_pos_as_xyz
  1  'x, y, z'
loop_
 _atom_site_type_symbol
 _atom_site_label
 _atom_site_symmetry_multiplicity
 _atom_site_fract_x
 _atom_site_fract_y
 _atom_site_fract_z
 _atom_site_occupancy
  Zn  Zn1  1  0.40808600  0.49547300  0.50088100  1
  Zn  Zn2  1  0.59170300  0.50433700  0.49929900  1
  H  H1  1  0.40780300  0.74940100  0.44231800  1
  H  H2  1  0.59256900  0.25030600  0.55760600  1
  H  H3  1  0.41712200  0.89028300  0.44067200  1
  H  H4  1  0.58372200  0.10942000  0.55854300  1
  H  H5  1  0.37343100  0.50471000  0.12042700  1
  H  H6  1  0.62635700  0.49521300  0.87974200  1
  H  H7  1  0.36856900  0.50962200  0.25761000  1
  H  H8  1  0.63121500  0.49022900  0.74256300  1
  H  H9  1  0.62629000  0.51818800  0.26389900  1
  H  H10  1  0.37349300  0.48157700  0.73627700  1
  H  H11  1  0.28860900  0.56798600  0.41444700  1
  H  H12  1  0.71117100  0.43183700  0.58576200  1
  H  H13  1  0.14212600  0.57512400  0.41188700  1
  H  H14  1  0.85764700  0.42465400  0.58830600  1
  H  H15  1  0.25677300  0.40122400  0.67255800  1
  H  H16  1  0.74303300  0.59850700  0.32758000  1
  H  H17  1  0.35794600  0.03648900  0.39400100  1
  H  H18  1  0.64574600  0.96314200  0.60094700  1
  H  H19  1  0.41031400  0.32106600  0.35734100  1
  H  H20  1  0.67370600  0.75464800  0.62632500  1
  H  H21  1  0.70711900  0.51625000  0.15596500  1
  H  H22  1  0.29266500  0.48353000  0.84421000  1
  H  H23  1  0.04916400  0.42136800  0.62725100  1
  H  H24  1  0.95061500  0.57825300  0.37284600  1
  C  C1  1  0.50377300  0.48704600  0.64705600  1
  C  C2  1  0.49601000  0.51272300  0.35312100  1
  C  C3  1  0.50005400  0.34712400  0.48623200  1
  C  C4  1  0.49972600  0.65266200  0.51395600  1
  C  C5  1  0.49757100  0.26140400  0.47801100  1
  C  C6  1  0.50223700  0.73834400  0.52251400  1
  C  C7  1  0.54913500  0.21964600  0.52120200  1
  C  C8  1  0.45121800  0.78011000  0.47870500  1
  C  C9  1  0.54285500  0.13880200  0.52209200  1
  C  C10  1  0.45786800  0.86094900  0.47728500  1
  C  C11  1  0.48584300  0.09847200  0.47737400  1
  C  C12  1  0.51544200  0.90134200  0.52132900  1
  C  C13  1  0.43681200  0.13974500  0.43045900  1
  C  C14  1  0.56440100  0.86017200  0.56838800  1
  C  C15  1  0.44137100  0.22171600  0.43153200  1
  C  C16  1  0.55829200  0.77825100  0.56913500  1
  C  C17  1  0.42910100  0.50844000  0.15213800  1
  C  C18  1  0.57068600  0.49144400  0.84803500  1
  C  C19  1  0.42648300  0.51128700  0.22966700  1
  C  C20  1  0.57330100  0.48854500  0.77050800  1
  C  C21  1  0.49729900  0.51460400  0.27051600  1
  C  C22  1  0.50248400  0.48517700  0.72966200  1
  C  C23  1  0.57033200  0.51610800  0.23288600  1
  C  C24  1  0.42945200  0.48368500  0.76729000  1
  C  C25  1  0.57360100  0.51363700  0.15527200  1
  C  C26  1  0.42618400  0.48620200  0.84490200  1
  C  C27  1  0.50192300  0.50899800  0.11455500  1
  C  C28  1  0.49786400  0.49088200  0.88561700  1
  C  C29  1  0.50053800  0.50273100  0.03390700  1
  C  C30  1  0.49924900  0.49716500  0.96626500  1
  C  C31  1  0.15779300  0.44778100  0.55546100  1
  C  C32  1  0.84199800  0.55192600  0.44467200  1
  C  C33  1  0.24143700  0.44449900  0.55572000  1
  C  C34  1  0.75835700  0.55523900  0.44442500  1
  C  C35  1  0.25196800  0.53303900  0.45394600  1
  C  C36  1  0.74781500  0.46675500  0.54624300  1
  C  C37  1  0.16955600  0.53789700  0.45282000  1
  C  C38  1  0.83022400  0.46186900  0.54735800  1
  C  C39  1  0.12221600  0.49538700  0.50378900  1
  C  C40  1  0.87756800  0.50433700  0.49636300  1
  C  C41  1  0.03607400  0.49866800  0.50103800  1
  C  C42  1  0.96370900  0.50104400  0.49911300  1
  C  C43  1  0.27904900  0.39910200  0.61525700  1
  C  C44  1  0.72075000  0.60063100  0.38487900  1
  C  C45  1  0.38352900  0.09425100  0.37803000  1
  C  C46  1  0.62042000  0.90576900  0.61843000  1
  C  C47  1  0.38757200  0.26686200  0.38427800  1
  C  C48  1  0.61100200  0.73457100  0.61879400  1
  C  C49  1  0.65422100  0.51515000  0.12011500  1
  C  C50  1  0.34556500  0.48468900  0.88006000  1
  C  C51  1  0.10557500  0.39997200  0.60769700  1
  C  C52  1  0.89422400  0.59968800  0.39240500  1
  N  N1  1  0.47821300  0.01531900  0.47623200  1
  N  N2  1  0.52336800  0.98449100  0.52206300  1
  N  N3  1  0.28728000  0.48692300  0.50454600  1
  N  N4  1  0.71251000  0.51286500  0.49563200  1
  O  O1  1  0.43440300  0.48750000  0.61192300  1
  O  O2  1  0.56538300  0.51231600  0.38825800  1
  O  O3  1  0.57345000  0.49208900  0.61174400  1
  O  O4  1  0.42633700  0.50767500  0.38843300  1
  O  O5  1  0.43138300  0.38093900  0.48975600  1
  O  O6  1  0.56843500  0.61888700  0.51046300  1
  O  O7  1  0.57053600  0.38629500  0.49121800  1
  O  O8  1  0.42923700  0.61351400  0.50895400  1
  O  O9  1  0.33046900  0.35380600  0.60029800  1
  O  O10  1  0.66931300  0.64591200  0.39982700  1
  O  O11  1  0.37312800  0.11750500  0.31387700  1
  O  O12  1  0.63405600  0.88311400  0.68218300  1
  O  O13  1  0.31587500  0.24714600  0.37940500  1
  O  O14  1  0.58380900  0.67791700  0.65500500  1
  O  O15  1  0.66354200  0.51638500  0.05202900  1
  O  O16  1  0.33624800  0.48352900  0.94814600  1
  O  O17  1  0.12191900  0.33363800  0.62566200  1
  O  O18  1  0.87791100  0.66602600  0.37442000  1
