# generated using pymatgen
data_Fe2H19C46IO16
_symmetry_space_group_name_H-M   'P 1'
_cell_length_a   15.82139800
_cell_length_b   9.29500800
_cell_length_c   24.64301700
_cell_angle_alpha   94.38992900
_cell_angle_beta   101.81098600
_cell_angle_gamma   97.11638300
_symmetry_Int_Tables_number   1
_chemical_formula_structural   Fe2H19C46IO16
_chemical_formula_sum   'Fe2 H19 C46 I1 O16'
_cell_volume   3500.52423941
_cell_formula_units_Z   1
loop_
 _symmetry_equiv_pos_site_id
 _symmetry_equiv_pos_as_xyz
  1  'x, y, z'
loop_
 _atom_site_type_symbol
 _atom_site_label
 _atom_site_symmetry_multiplicity
 _atom_site_fract_x
 _atom_site_fract_y
 _atom_site_fract_z
 _atom_site_occupancy
  Fe  Fe1  1  0.49164900  0.98546100  0.87814400  1
  Fe  Fe2  1  0.50869200  0.01098700  0.12218100  1
  H  H1  1  0.06585800  0.97677900  0.89269200  1
  H  H2  1  0.18624200  0.03030000  0.06427400  1
  H  H3  1  0.81417200  0.95209400  0.93657700  1
  H  H4  1  0.79054600  0.04352200  0.13140600  1
  H  H5  1  0.93387400  0.05151700  0.10785200  1
  H  H6  1  0.49520800  0.43978500  0.85523300  1
  H  H7  1  0.48905000  0.70012500  0.72014300  1
  H  H8  1  0.48463000  0.23760900  0.69381900  1
  H  H9  1  0.55069200  0.30226100  0.46249800  1
  H  H10  1  0.56106700  0.31680300  0.36624600  1
  H  H11  1  0.44951100  0.71479900  0.36755700  1
  H  H12  1  0.44853700  0.70512000  0.46505500  1
  H  H13  1  0.53257900  0.76037000  0.30686600  1
  H  H14  1  0.50172700  0.55365400  0.14365400  1
  H  H15  1  0.49037400  0.29356900  0.27733800  1
  H  H16  1  0.56734900  0.70825000  0.55569400  1
  H  H17  1  0.56560600  0.69388300  0.65315600  1
  H  H18  1  0.41105100  0.27172600  0.61043100  1
  H  H19  1  0.42168300  0.28292100  0.51431000  1
  C  C1  1  0.20464400  0.99302100  0.91141100  1
  C  C2  1  0.12441600  0.98920700  0.92518800  1
  C  C3  1  0.11882300  0.00422000  0.98015000  1
  C  C4  1  0.19327800  0.02117700  0.02151600  1
  C  C5  1  0.27473100  0.02414700  0.00866000  1
  C  C6  1  0.28042200  0.01162500  0.95269800  1
  C  C7  1  0.03534300  0.00226200  0.99459500  1
  C  C8  1  0.96525400  0.00080700  0.00672800  1
  C  C9  1  0.80704600  0.97000300  0.97913900  1
  C  C10  1  0.72536900  0.96806500  0.99148800  1
  C  C11  1  0.71936300  0.99207000  0.04704000  1
  C  C12  1  0.79466400  0.02472400  0.08825200  1
  C  C13  1  0.87540900  0.02794500  0.07522100  1
  C  C14  1  0.88145300  0.99879100  0.02071300  1
  C  C15  1  0.48219800  0.18355200  0.79761600  1
  C  C16  1  0.36427800  0.02495100  0.93565400  1
  C  C17  1  0.64908100  0.95284400  0.94466200  1
  C  C18  1  0.49528800  0.71350200  0.83030000  1
  C  C19  1  0.49619400  0.27972600  0.16870400  1
  C  C20  1  0.35080100  0.03306100  0.05546000  1
  C  C21  1  0.63578600  0.97703300  0.06433500  1
  C  C22  1  0.52211100  0.81081700  0.20107700  1
  C  C23  1  0.49427600  0.58438700  0.79172700  1
  C  C24  1  0.49108500  0.59483200  0.73563000  1
  C  C25  1  0.48775400  0.47079100  0.69947700  1
  C  C26  1  0.48500000  0.33598000  0.72017500  1
  C  C27  1  0.48772900  0.32567900  0.77594000  1
  C  C28  1  0.49387900  0.44967100  0.81169600  1
  C  C29  1  0.52890100  0.39330800  0.44152100  1
  C  C30  1  0.53389800  0.40140800  0.38654600  1
  C  C31  1  0.50646400  0.51739200  0.35887500  1
  C  C32  1  0.47513100  0.62562000  0.38783400  1
  C  C33  1  0.47342000  0.61988900  0.44330300  1
  C  C34  1  0.49952100  0.50323800  0.47020800  1
  C  C35  1  0.52054800  0.66050600  0.27935400  1
  C  C36  1  0.51487500  0.66952800  0.22323200  1
  C  C37  1  0.50328800  0.54453300  0.18726400  1
  C  C38  1  0.49879600  0.40972800  0.20715300  1
  C  C39  1  0.49934000  0.40003300  0.26299100  1
  C  C40  1  0.50920600  0.52569600  0.29953500  1
  C  C41  1  0.53311700  0.61219300  0.56788400  1
  C  C42  1  0.53106500  0.60412900  0.62327300  1
  C  C43  1  0.48827100  0.48142500  0.63996200  1
  C  C44  1  0.44807500  0.36705100  0.59987500  1
  C  C45  1  0.45317900  0.37333100  0.54491200  1
  C  C46  1  0.49540300  0.49599600  0.52869100  1
  I  I1  1  0.20859000  0.98258400  0.82619000  1
  O  O1  1  0.52009700  0.17482000  0.84966800  1
  O  O2  1  0.42252200  0.14079000  0.95410900  1
  O  O3  1  0.43385300  0.06963200  0.76686200  1
  O  O4  1  0.37816100  0.92771700  0.89810500  1
  O  O5  1  0.57417600  0.98852800  0.95194900  1
  O  O6  1  0.65898400  0.92161300  0.89371800  1
  O  O7  1  0.49817500  0.84462400  0.81371600  1
  O  O8  1  0.49129800  0.69794200  0.88223600  1
  O  O9  1  0.50004800  0.15061000  0.18647600  1
  O  O10  1  0.49702300  0.29389000  0.11623400  1
  O  O11  1  0.42761400  0.00834900  0.04778000  1
  O  O12  1  0.33985700  0.05344900  0.10669600  1
  O  O13  1  0.57343800  0.92366300  0.23065800  1
  O  O14  1  0.62303100  0.07033200  0.10359900  1
  O  O15  1  0.47977000  0.82096100  0.15010400  1
  O  O16  1  0.57743200  0.86169800  0.04519100  1
