# generated using pymatgen
data_Zn2H39C36N5O11
_symmetry_space_group_name_H-M   'P 1'
_cell_length_a   16.01142500
_cell_length_b   10.77558900
_cell_length_c   9.58650300
_cell_angle_alpha   90.06350100
_cell_angle_beta   89.97974500
_cell_angle_gamma   89.99731300
_symmetry_Int_Tables_number   1
_chemical_formula_structural   Zn2H39C36N5O11
_chemical_formula_sum   'Zn2 H39 C36 N5 O11'
_cell_volume   1653.98254435
_cell_formula_units_Z   1
loop_
 _symmetry_equiv_pos_site_id
 _symmetry_equiv_pos_as_xyz
  1  'x, y, z'
loop_
 _atom_site_type_symbol
 _atom_site_label
 _atom_site_symmetry_multiplicity
 _atom_site_fract_x
 _atom_site_fract_y
 _atom_site_fract_z
 _atom_site_occupancy
  Zn  Zn1  1  0.50263800  0.51631200  0.66082100  1
  Zn  Zn2  1  0.50340900  0.51512500  0.34289100  1
  H  H1  1  0.05417300  0.35519000  0.34542100  1
  H  H2  1  0.95322500  0.31690400  0.58642100  1
  H  H3  1  0.94886200  0.55313700  0.26838300  1
  H  H4  1  0.05292600  0.71690000  0.41762600  1
  H  H5  1  0.95136000  0.67820400  0.65829400  1
  H  H6  1  0.56576000  0.11231500  0.70276000  1
  H  H7  1  0.63274900  0.12616900  0.55392200  1
  H  H8  1  0.63692200  0.91923500  0.52622300  1
  H  H9  1  0.57969900  0.90581900  0.68776900  1
  H  H10  1  0.42601000  0.91873900  0.68236700  1
  H  H11  1  0.46682500  0.12475600  0.28305600  1
  H  H12  1  0.57762100  0.11427500  0.31753000  1
  H  H13  1  0.56342600  0.90860100  0.29735600  1
  H  H14  1  0.45055000  0.91985700  0.29464200  1
  H  H15  1  0.37136100  0.10301100  0.46942500  1
  H  H16  1  0.36952800  0.89730500  0.52113700  1
  H  H17  1  0.37810700  0.45472800  0.10183700  1
  H  H18  1  0.45027500  0.33149800  0.12919900  1
  H  H19  1  0.48453100  0.32257200  0.89885400  1
  H  H20  1  0.38992400  0.41019500  0.87347000  1
  H  H21  1  0.41488100  0.66045900  0.13008900  1
  H  H22  1  0.39951200  0.63662000  0.89673800  1
  H  H23  1  0.62687800  0.56732400  0.11924700  1
  H  H24  1  0.61492400  0.41673900  0.87518400  1
  H  H25  1  0.62377000  0.58291000  0.88987500  1
  H  H26  1  0.52213600  0.70617200  0.10991500  1
  H  H27  1  0.50008400  0.71057500  0.88112200  1
  H  H28  1  0.43209100  0.13813600  0.76418100  1
  H  H29  1  0.33494400  0.17069100  0.93203400  1
  H  H30  1  0.25886100  0.04842600  0.90918600  1
  H  H31  1  0.23179500  0.20704600  0.86814500  1
  H  H32  1  0.58539700  0.29403100  0.10179800  1
  H  H33  1  0.71314400  0.17540200  0.02586000  1
  H  H34  1  0.72213700  0.18384200  0.21411600  1
  H  H35  1  0.80734800  0.23577000  0.10487500  1
  H  H36  1  0.04250900  0.39900500  0.81860500  1
  H  H37  1  0.07207500  0.54010500  0.04049800  1
  H  H38  1  0.16172600  0.63869100  0.00974800  1
  H  H39  1  0.17051600  0.47245600  0.98649200  1
  C  C1  1  0.50154200  0.27259200  0.50373100  1
  C  C2  1  0.33984900  0.51742200  0.50082300  1
  C  C3  1  0.50434400  0.75857700  0.49991400  1
  C  C4  1  0.66624000  0.51452800  0.50290200  1
  C  C5  1  0.97628400  0.40700700  0.54599500  1
  C  C6  1  0.03007800  0.42806300  0.41661700  1
  C  C7  1  0.25022800  0.51773500  0.50022200  1
  C  C8  1  0.75586400  0.51461100  0.50337500  1
  C  C9  1  0.03026800  0.49798800  0.62423600  1
  C  C10  1  0.08358200  0.51779800  0.49862000  1
  C  C11  1  0.97535500  0.60619600  0.58588800  1
  C  C12  1  0.92248900  0.51592500  0.50331600  1
  C  C13  1  0.02935900  0.62649100  0.45633200  1
  C  C14  1  0.97462000  0.53666800  0.37412300  1
  C  C15  1  0.17497000  0.51781900  0.49957400  1
  C  C16  1  0.83112100  0.51504500  0.50350500  1
  C  C17  1  0.57331800  0.08558300  0.59198100  1
  C  C18  1  0.57856400  0.94555100  0.58114300  1
  C  C19  1  0.41735900  0.08226800  0.55262600  1
  C  C20  1  0.51473700  0.08672600  0.35481500  1
  C  C21  1  0.50138800  0.13342200  0.50301000  1
  C  C22  1  0.50386100  0.89722900  0.50044700  1
  C  C23  1  0.42439400  0.94274600  0.56993100  1
  C  C24  1  0.50794900  0.94650300  0.35215600  1
  C  C25  1  0.44263600  0.42321500  0.07918600  1
  C  C26  1  0.45253500  0.41123700  0.92272700  1
  C  C27  1  0.47552000  0.63409600  0.08257500  1
  C  C28  1  0.58630600  0.49214100  0.07901700  1
  C  C29  1  0.46651300  0.62973700  0.92507500  1
  C  C30  1  0.58618900  0.50105100  0.92105200  1
  C  C31  1  0.31031200  0.11744900  0.71915700  1
  C  C32  1  0.28264800  0.13718600  0.86627200  1
  C  C33  1  0.70249500  0.35752500  0.11242300  1
  C  C34  1  0.73843000  0.22999900  0.11444100  1
  C  C35  1  0.10359200  0.56727600  0.82638000  1
  C  C36  1  0.12854000  0.55370500  0.97524300  1
  N  N1  1  0.50217300  0.51348600  0.13397900  1
  N  N2  1  0.50130000  0.51473600  0.86961600  1
  N  N3  1  0.39072500  0.13827700  0.68231300  1
  N  N4  1  0.61887300  0.37309700  0.12336300  1
  N  N5  1  0.06258700  0.47423500  0.76170200  1
  O  O1  1  0.50186000  0.33105600  0.62415100  1
  O  O2  1  0.50250600  0.33061500  0.38333200  1
  O  O3  1  0.37828000  0.51689300  0.62176800  1
  O  O4  1  0.37887000  0.51679800  0.38036400  1
  O  O5  1  0.50347300  0.70081500  0.62033100  1
  O  O6  1  0.50403500  0.70033400  0.37960000  1
  O  O7  1  0.62713900  0.51455000  0.62300700  1
  O  O8  1  0.62771700  0.51462100  0.38233100  1
  O  O9  1  0.25934300  0.08328300  0.63277500  1
  O  O10  1  0.74908700  0.44645200  0.10091900  1
  O  O11  1  0.12086400  0.66219400  0.76358600  1
