# generated using pymatgen
data_Zn2H26C47N2O9
_symmetry_space_group_name_H-M   'P 1'
_cell_length_a   12.57813200
_cell_length_b   13.68920400
_cell_length_c   15.05294800
_cell_angle_alpha   90.00873800
_cell_angle_beta   102.07041600
_cell_angle_gamma   86.63558300
_symmetry_Int_Tables_number   1
_chemical_formula_structural   Zn2H26C47N2O9
_chemical_formula_sum   'Zn2 H26 C47 N2 O9'
_cell_volume   2530.01948868
_cell_formula_units_Z   1
loop_
 _symmetry_equiv_pos_site_id
 _symmetry_equiv_pos_as_xyz
  1  'x, y, z'
loop_
 _atom_site_type_symbol
 _atom_site_label
 _atom_site_symmetry_multiplicity
 _atom_site_fract_x
 _atom_site_fract_y
 _atom_site_fract_z
 _atom_site_occupancy
  Zn  Zn1  1  0.37984900  0.47940800  0.47272500  1
  Zn  Zn2  1  0.62130700  0.51574000  0.51467400  1
  H  H1  1  0.32584600  0.48811200  0.18058500  1
  H  H2  1  0.66492500  0.54158100  0.24054300  1
  H  H3  1  0.76218500  0.54659000  0.12091700  1
  H  H4  1  0.76639300  0.53237400  0.95981800  1
  H  H5  1  0.67510300  0.50767300  0.80679000  1
  H  H6  1  0.33587600  0.45469600  0.74685300  1
  H  H7  1  0.23865500  0.44968800  0.86644300  1
  H  H8  1  0.23450200  0.46369100  0.02755900  1
  H  H9  1  0.71562900  0.22794500  0.42181800  1
  H  H10  1  0.69030900  0.89408200  0.37857500  1
  H  H11  1  0.74687900  0.05588300  0.38857000  1
  H  H12  1  0.43651300  0.16498500  0.52030500  1
  H  H13  1  0.36849900  0.05838400  0.58212100  1
  H  H14  1  0.26608400  0.93602600  0.62338700  1
  H  H15  1  0.57518700  0.77205900  0.40918500  1
  H  H16  1  0.23983200  0.36869200  0.33385100  1
  H  H17  1  0.87033400  0.35031000  0.32136200  1
  H  H18  1  0.04803900  0.33307300  0.29427000  1
  H  H19  1  0.18885500  0.53464200  0.55480700  1
  H  H20  1  0.74976500  0.63102800  0.64638500  1
  H  H21  1  0.07648700  0.60153100  0.62212900  1
  H  H22  1  0.93972700  0.66941500  0.69631000  1
  H  H23  1  0.74179000  0.41728100  0.40438900  1
  H  H24  1  0.24321400  0.78012000  0.65480100  1
  H  H25  1  0.32834200  0.68058200  0.62958300  1
  H  H26  1  0.13091300  0.76553600  0.53773400  1
  C  C1  1  0.45368000  0.68656300  0.50291000  1
  C  C2  1  0.50588100  0.48052000  0.66792400  1
  C  C3  1  0.54708100  0.30934200  0.48478500  1
  C  C4  1  0.49496400  0.51515900  0.31944000  1
  C  C5  1  0.40120200  0.49835300  0.15904500  1
  C  C6  1  0.49504000  0.51601500  0.22194000  1
  C  C7  1  0.59058600  0.52825400  0.19253800  1
  C  C8  1  0.59259800  0.52121100  0.10140900  1
  C  C9  1  0.49919700  0.50229600  0.03916600  1
  C  C10  1  0.40340600  0.49144200  0.06794400  1
  C  C11  1  0.68850600  0.53189500  0.07258100  1
  C  C12  1  0.69092700  0.52369500  0.98175700  1
  C  C13  1  0.59748100  0.50465300  0.91942200  1
  C  C14  1  0.50166900  0.49390300  0.94819800  1
  C  C15  1  0.40824800  0.47504600  0.88595800  1
  C  C16  1  0.31234100  0.46435900  0.91478000  1
  C  C17  1  0.30995100  0.47243700  0.00561200  1
  C  C18  1  0.59972200  0.49755500  0.82832900  1
  C  C19  1  0.50584400  0.47997800  0.76543600  1
  C  C20  1  0.41024400  0.46800500  0.79483600  1
  C  C21  1  0.67979700  0.07808200  0.42018100  1
  C  C22  1  0.57323600  0.20490200  0.47402700  1
  C  C23  1  0.34594400  0.81854700  0.56486400  1
  C  C24  1  0.32731900  0.91491800  0.58511300  1
  C  C25  1  0.38644700  0.98621900  0.55919900  1
  C  C26  1  0.46546000  0.96377300  0.50914500  1
  C  C27  1  0.48531400  0.86591800  0.48757200  1
  C  C28  1  0.52681600  0.03675900  0.48219000  1
  C  C29  1  0.61166400  0.00964900  0.44022000  1
  C  C30  1  0.62761000  0.91422300  0.41567300  1
  C  C31  1  0.56262800  0.84388200  0.43569400  1
  C  C32  1  0.50561600  0.13652100  0.49495400  1
  C  C33  1  0.66254400  0.17515300  0.43928900  1
  C  C34  1  0.42645100  0.79198300  0.51638900  1
  C  C35  1  0.07641700  0.37915800  0.35163900  1
  C  C36  1  0.81002200  0.59933400  0.61145600  1
  C  C37  1  0.91679100  0.62092500  0.63974100  1
  C  C38  1  0.99464700  0.58119600  0.59645900  1
  C  C39  1  0.96530500  0.51905900  0.52347200  1
  C  C40  1  0.85569200  0.49860600  0.49725800  1
  C  C41  1  0.04139900  0.47761500  0.47525600  1
  C  C42  1  0.00515000  0.41850400  0.40187900  1
  C  C43  1  0.89781100  0.39760100  0.37800800  1
  C  C44  1  0.82428700  0.43651300  0.42553400  1
  C  C45  1  0.15275000  0.49321100  0.49696400  1
  C  C46  1  0.18410300  0.39914700  0.37376100  1
  C  C47  1  0.27883000  0.74679400  0.59969900  1
  N  N1  1  0.22046700  0.45556400  0.44533900  1
  N  N2  1  0.78014800  0.53890600  0.54140200  1
  O  O1  1  0.37389200  0.62714000  0.48301800  1
  O  O2  1  0.55676200  0.65455800  0.51818000  1
  O  O3  1  0.41326100  0.47089700  0.61023000  1
  O  O4  1  0.59670400  0.49756400  0.64228600  1
  O  O5  1  0.44428700  0.34036800  0.47161800  1
  O  O6  1  0.62719000  0.36813200  0.50295100  1
  O  O7  1  0.40489100  0.49620100  0.34510800  1
  O  O8  1  0.58680500  0.52684500  0.37725300  1
  O  O9  1  0.19383300  0.72217500  0.52948400  1
