# generated using pymatgen
data_Zn2H19C23N5O8
_symmetry_space_group_name_H-M   'P 1'
_cell_length_a   6.58922200
_cell_length_b   9.02711300
_cell_length_c   12.37092000
_cell_angle_alpha   90.00000000
_cell_angle_beta   80.33685000
_cell_angle_gamma   90.00000000
_symmetry_Int_Tables_number   1
_chemical_formula_structural   Zn2H19C23N5O8
_chemical_formula_sum   'Zn2 H19 C23 N5 O8'
_cell_volume   725.40234373
_cell_formula_units_Z   1
loop_
 _symmetry_equiv_pos_site_id
 _symmetry_equiv_pos_as_xyz
  1  'x, y, z'
loop_
 _atom_site_type_symbol
 _atom_site_label
 _atom_site_symmetry_multiplicity
 _atom_site_fract_x
 _atom_site_fract_y
 _atom_site_fract_z
 _atom_site_occupancy
  Zn  Zn1  1  0.49132300  0.83192600  0.49936000  1
  Zn  Zn2  1  0.50883100  0.16401600  0.50152800  1
  H  H1  1  0.53132600  0.91246300  0.84683800  1
  H  H2  1  0.39510800  0.07489000  0.78211500  1
  H  H3  1  0.47260200  0.05638700  0.14552100  1
  H  H4  1  0.64926400  0.91927200  0.02004600  1
  H  H5  1  0.73884600  0.96424500  0.15466300  1
  H  H6  1  0.17852300  0.58986500  0.48283700  1
  H  H7  1  0.18661500  0.34496300  0.54011900  1
  H  H8  1  0.22251600  0.62865500  0.61969900  1
  H  H9  1  0.31870900  0.39400700  0.65115700  1
  H  H10  1  0.77350800  0.65197400  0.54931900  1
  H  H11  1  0.82253100  0.41155400  0.49093200  1
  H  H12  1  0.55843800  0.60466000  0.65484100  1
  H  H13  1  0.68606200  0.36919200  0.62728400  1
  H  H14  1  0.72212700  0.60641100  0.36490600  1
  H  H15  1  0.67005000  0.36335600  0.33876200  1
  H  H16  1  0.29096300  0.61345600  0.32681500  1
  H  H17  1  0.50767000  0.61035000  0.23227500  1
  H  H18  1  0.22048200  0.41546700  0.38818200  1
  H  H19  1  0.36859900  0.41515500  0.26250600  1
  C  C1  1  0.81669200  0.98165000  0.75340800  1
  C  C2  1  0.68780700  0.94538600  0.84910100  1
  C  C3  1  0.75634000  0.94918900  0.94786300  1
  C  C4  1  0.02283200  0.00641000  0.75515000  1
  C  C5  1  0.08993200  0.01610200  0.85502100  1
  C  C6  1  0.95710000  0.98959900  0.95175900  1
  C  C7  1  0.03031700  0.99883000  0.05023700  1
  C  C8  1  0.90140200  0.98075400  0.14962100  1
  C  C9  1  0.97549100  0.99062200  0.24690500  1
  C  C10  1  0.29224400  0.05110100  0.85784400  1
  C  C11  1  0.23519400  0.03032200  0.04949400  1
  C  C12  1  0.31121300  0.03472900  0.14689500  1
  C  C13  1  0.18333600  0.01110800  0.24588400  1
  C  C14  1  0.72708700  0.99065100  0.65374800  1
  C  C15  1  0.17709500  0.00334100  0.65503200  1
  C  C16  1  0.27439700  0.00459000  0.34586600  1
  C  C17  1  0.82421800  0.99295800  0.34731200  1
  C  C18  1  0.28655000  0.57348400  0.54127700  1
  C  C19  1  0.31606800  0.41005500  0.56252200  1
  C  C20  1  0.55623900  0.57989400  0.38845100  1
  C  C21  1  0.53081500  0.41279700  0.38847700  1
  C  C22  1  0.62853600  0.58750600  0.56779400  1
  C  C23  1  0.67508200  0.42429300  0.54834300  1
  N  N1  1  0.36193100  0.05629500  0.95408200  1
  N  N2  1  0.48496400  0.63748000  0.49796200  1
  N  N3  1  0.51077100  0.35853200  0.50030800  1
  N  N4  1  0.44372300  0.64857500  0.31021500  1
  N  N5  1  0.35183100  0.37015300  0.34122900  1
  O  O1  1  0.68066400  0.12177900  0.61822300  1
  O  O2  1  0.66302100  0.86678000  0.61681000  1
  O  O3  1  0.24515300  0.87341100  0.61601600  1
  O  O4  1  0.26208800  0.12892800  0.61888800  1
  O  O5  1  0.31897400  0.87396500  0.38262400  1
  O  O6  1  0.33639100  0.12901500  0.38389700  1
  O  O7  1  0.75402600  0.12277000  0.38469400  1
  O  O8  1  0.73723200  0.86710700  0.38179100  1
