# generated using pymatgen
data_ZnH9C16NO4
_symmetry_space_group_name_H-M   'P 1'
_cell_length_a   8.51007900
_cell_length_b   11.28715700
_cell_length_c   13.15904300
_cell_angle_alpha   96.57116700
_cell_angle_beta   86.50195400
_cell_angle_gamma   93.65036200
_symmetry_Int_Tables_number   1
_chemical_formula_structural   ZnH9C16NO4
_chemical_formula_sum   'Zn2 H18 C32 N2 O8'
_cell_volume   1251.29364435
_cell_formula_units_Z   2
loop_
 _symmetry_equiv_pos_site_id
 _symmetry_equiv_pos_as_xyz
  1  'x, y, z'
loop_
 _atom_site_type_symbol
 _atom_site_label
 _atom_site_symmetry_multiplicity
 _atom_site_fract_x
 _atom_site_fract_y
 _atom_site_fract_z
 _atom_site_occupancy
  Zn  Zn1  1  0.44350600  0.13314200  0.50932000  1
  Zn  Zn2  1  0.43434000  0.86732300  0.47800500  1
  H  H1  1  0.34793600  0.94872800  0.18624700  1
  H  H2  1  0.38584300  0.93532600  0.01063600  1
  H  H3  1  0.94845500  0.96480200  0.56617700  1
  H  H4  1  0.66328100  0.03888000  0.83607700  1
  H  H5  1  0.76093100  0.02941300  0.99318600  1
  H  H6  1  0.71737500  0.99468900  0.14372100  1
  H  H7  1  0.93277000  0.03573100  0.42536900  1
  H  H8  1  0.44648900  0.70781900  0.62064900  1
  H  H9  1  0.42046800  0.69266100  0.30147100  1
  H  H10  1  0.45503800  0.52689100  0.70161000  1
  H  H11  1  0.42432200  0.47368600  0.28522700  1
  H  H12  1  0.45680200  0.30787800  0.68577300  1
  H  H13  1  0.43562700  0.29203600  0.36597700  1
  H  H14  1  0.39799100  0.81655800  0.86813600  1
  H  H15  1  0.30490700  0.82021200  0.75151700  1
  H  H16  1  0.51215200  0.86785100  0.76106400  1
  H  H17  1  0.37496200  0.05475200  0.77545900  1
  H  H18  1  0.42282400  0.04021800  0.89326500  1
  C  C1  1  0.97432500  0.99405100  0.13181800  1
  C  C2  1  0.10329100  0.98462000  0.19023300  1
  C  C3  1  0.24798100  0.96287900  0.14328400  1
  C  C4  1  0.26973300  0.95808700  0.03966900  1
  C  C5  1  0.14925700  0.98218500  0.97935300  1
  C  C6  1  0.99885400  0.99559800  0.02483100  1
  C  C7  1  0.17932000  0.99179400  0.87451400  1
  C  C8  1  0.05402800  0.99787900  0.81090900  1
  C  C9  1  0.90401800  0.01050200  0.85716000  1
  C  C10  1  0.87859300  0.01402300  0.96246000  1
  C  C11  1  0.06860500  0.98855800  0.70300100  1
  C  C12  1  0.93543900  0.98164100  0.64794200  1
  C  C13  1  0.79002000  0.00353000  0.69348200  1
  C  C14  1  0.77602200  0.02146100  0.79882300  1
  C  C15  1  0.82527200  0.00025100  0.18291400  1
  C  C16  1  0.81233500  0.01202600  0.28889200  1
  C  C17  1  0.94451500  0.01963000  0.34352900  1
  C  C18  1  0.08827100  0.99778000  0.29595300  1
  C  C19  1  0.65530900  0.00455500  0.62785900  1
  C  C20  1  0.66218300  0.00840300  0.34862900  1
  C  C21  1  0.22240200  0.99617300  0.36057200  1
  C  C22  1  0.21467000  0.99177100  0.63825100  1
  C  C23  1  0.45073400  0.47608700  0.62693200  1
  C  C24  1  0.45207900  0.35312400  0.61802400  1
  C  C25  1  0.43972800  0.34447200  0.43991200  1
  C  C26  1  0.43698300  0.46705800  0.44644700  1
  C  C27  1  0.44268400  0.53319500  0.54032200  1
  C  C28  1  0.44039800  0.65573000  0.54691400  1
  C  C29  1  0.42598100  0.64736100  0.36912000  1
  C  C30  1  0.42857800  0.52436900  0.35995900  1
  C  C31  1  0.34741100  0.99428100  0.83426000  1
  C  C32  1  0.39436400  0.86730600  0.80130900  1
  N  N1  1  0.43132900  0.71092000  0.46204900  1
  N  N2  1  0.44684200  0.28951600  0.52515200  1
  O  O1  1  0.60257000  0.90229600  0.58050400  1
  O  O2  1  0.60380600  0.10743800  0.61036000  1
  O  O3  1  0.61623900  0.10872600  0.39848200  1
  O  O4  1  0.60238800  0.90322700  0.36938900  1
  O  O5  1  0.27574600  0.09850100  0.40668600  1
  O  O6  1  0.27347000  0.89295300  0.37743400  1
  O  O7  1  0.26139600  0.89144800  0.58876600  1
  O  O8  1  0.27438300  0.09717800  0.61726700  1
