# generated using pymatgen
data_ZnH8C12N3O4
_symmetry_space_group_name_H-M   'P 1'
_cell_length_a   8.44936800
_cell_length_b   11.02340800
_cell_length_c   11.31461000
_cell_angle_alpha   90.00000000
_cell_angle_beta   96.55636100
_cell_angle_gamma   90.00000000
_symmetry_Int_Tables_number   1
_chemical_formula_structural   ZnH8C12N3O4
_chemical_formula_sum   'Zn2 H16 C24 N6 O8'
_cell_volume   1046.96000211
_cell_formula_units_Z   2
loop_
 _symmetry_equiv_pos_site_id
 _symmetry_equiv_pos_as_xyz
  1  'x, y, z'
loop_
 _atom_site_type_symbol
 _atom_site_label
 _atom_site_symmetry_multiplicity
 _atom_site_fract_x
 _atom_site_fract_y
 _atom_site_fract_z
 _atom_site_occupancy
  Zn  Zn1  1  0.48106400  0.48978800  0.86769800  1
  Zn  Zn2  1  0.51894100  0.51021800  0.13229400  1
  H  H1  1  0.74615400  0.90839700  0.01118000  1
  H  H2  1  0.25374100  0.09157500  0.98864700  1
  H  H3  1  0.25674600  0.90752800  0.00807300  1
  H  H4  1  0.74323200  0.09250700  0.99207900  1
  H  H5  1  0.17373100  0.49020800  0.48396300  1
  H  H6  1  0.82620600  0.51004500  0.51612000  1
  H  H7  1  0.99133300  0.58641400  0.95386900  1
  H  H8  1  0.00881300  0.41360600  0.04617400  1
  H  H9  1  0.19179200  0.58299400  0.30548400  1
  H  H10  1  0.20040200  0.42872800  0.29519200  1
  H  H11  1  0.79991300  0.57076200  0.70535000  1
  H  H12  1  0.80800900  0.41658300  0.69418900  1
  H  H13  1  0.89259300  0.44726300  0.30842900  1
  H  H14  1  0.89044200  0.60033900  0.31637200  1
  H  H15  1  0.10769100  0.55288500  0.69206700  1
  H  H16  1  0.10944000  0.39984900  0.68313400  1
  C  C1  1  0.85658400  0.74280700  0.98401800  1
  C  C2  1  0.14343800  0.25718000  0.01595600  1
  C  C3  1  0.13687000  0.74223400  0.98149100  1
  C  C4  1  0.86313000  0.25779000  0.01850900  1
  C  C5  1  0.85788400  0.86693200  0.99852900  1
  C  C6  1  0.14208000  0.13306000  0.00139100  1
  C  C7  1  0.14090000  0.86640000  0.99660800  1
  C  C8  1  0.85907500  0.13362000  0.00344400  1
  C  C9  1  0.99946700  0.93229400  0.99731600  1
  C  C10  1  0.00049400  0.06772500  0.00267000  1
  C  C11  1  0.57472400  0.49979100  0.53163800  1
  C  C12  1  0.42527400  0.50040700  0.46839500  1
  C  C13  1  0.31234800  0.48095900  0.65164600  1
  C  C14  1  0.68766500  0.51916200  0.34837800  1
  C  C15  1  0.99406900  0.68281100  0.96809400  1
  C  C16  1  0.00596900  0.31719100  0.03191900  1
  C  C17  1  0.29317200  0.48977100  0.52938500  1
  C  C18  1  0.70680700  0.51043800  0.47065400  1
  C  C19  1  0.28120700  0.66843700  0.98739500  1
  C  C20  1  0.71881200  0.33159600  0.01259200  1
  C  C21  1  0.71385200  0.66979700  0.99073300  1
  C  C22  1  0.28617500  0.33019400  0.00924500  1
  C  C23  1  0.58979200  0.48927900  0.65462800  1
  C  C24  1  0.41022000  0.51075000  0.34540200  1
  N  N1  1  0.54095800  0.51926700  0.28795400  1
  N  N2  1  0.45905100  0.48074300  0.71204300  1
  N  N3  1  0.25716200  0.50991400  0.27800800  1
  N  N4  1  0.74284900  0.48958700  0.72206000  1
  N  N5  1  0.82418400  0.52442600  0.28565800  1
  N  N6  1  0.17585800  0.47550000  0.71436600  1
  O  O1  1  0.35121000  0.63858300  0.09311200  1
  O  O2  1  0.64875000  0.36139500  0.90688500  1
  O  O3  1  0.64571400  0.62237500  0.89159600  1
  O  O4  1  0.35432500  0.37760000  0.10839400  1
  O  O5  1  0.31539800  0.61704000  0.88884700  1
  O  O6  1  0.68463200  0.38299800  0.11112900  1
  O  O7  1  0.68056500  0.63542000  0.09625400  1
  O  O8  1  0.31941400  0.36459900  0.90372600  1
