# generated using pymatgen
data_FeH11C25NO9
_symmetry_space_group_name_H-M   'P 1'
_cell_length_a   17.44963100
_cell_length_b   12.42822800
_cell_length_c   13.17511200
_cell_angle_alpha   91.30271300
_cell_angle_beta   81.93115000
_cell_angle_gamma   105.81836000
_symmetry_Int_Tables_number   1
_chemical_formula_structural   FeH11C25NO9
_chemical_formula_sum   'Fe2 H22 C50 N2 O18'
_cell_volume   2721.48071114
_cell_formula_units_Z   2
loop_
 _symmetry_equiv_pos_site_id
 _symmetry_equiv_pos_as_xyz
  1  'x, y, z'
loop_
 _atom_site_type_symbol
 _atom_site_label
 _atom_site_symmetry_multiplicity
 _atom_site_fract_x
 _atom_site_fract_y
 _atom_site_fract_z
 _atom_site_occupancy
  Fe  Fe1  1  0.51252700  0.02153900  0.21918800  1
  Fe  Fe2  1  0.50289700  0.01363100  0.76888500  1
  H  H1  1  0.26258100  0.99571700  0.23079700  1
  H  H2  1  0.24798000  0.00086200  0.79082500  1
  H  H3  1  0.98817400  0.95832600  0.25754100  1
  H  H4  1  0.12150800  0.99021300  0.75583700  1
  H  H5  1  0.89459200  0.02140900  0.23117100  1
  H  H6  1  0.01576400  0.01467300  0.72596000  1
  H  H7  1  0.76749300  0.01668200  0.19816600  1
  H  H8  1  0.88506100  0.00966300  0.69773600  1
  H  H9  1  0.75095800  0.00192100  0.75652600  1
  H  H10  1  0.48282100  0.58582100  0.66586300  1
  H  H11  1  0.51050800  0.60089500  0.33546100  1
  H  H12  1  0.53506400  0.45300200  0.64970300  1
  H  H13  1  0.47738500  0.87577100  0.51456300  1
  H  H14  1  0.53511200  0.16067000  0.48034300  1
  H  H15  1  0.45194400  0.39123900  0.26474700  1
  H  H16  1  0.33415700  0.40173000  0.21380300  1
  H  H17  1  0.26578200  0.44683700  0.31023800  1
  H  H18  1  0.25724700  0.29937100  0.29410600  1
  H  H19  1  0.15103100  0.90005400  0.32818700  1
  H  H20  1  0.21492900  0.02960000  0.46710400  1
  H  H21  1  0.11295800  0.96314900  0.52548100  1
  H  H22  1  0.15080000  0.11406900  0.52331600  1
  C  C1  1  0.24997400  0.00065400  0.15352200  1
  C  C2  1  0.11010700  0.97873600  0.21308900  1
  C  C3  1  0.31411200  0.02158800  0.07649600  1
  C  C4  1  0.30209900  0.03418100  0.97567500  1
  C  C5  1  0.17336800  0.99537400  0.13383800  1
  C  C6  1  0.15963400  0.00572300  0.03415800  1
  C  C7  1  0.22307700  0.01864500  0.95483100  1
  C  C8  1  0.20498600  0.00839300  0.85569100  1
  C  C9  1  0.03497100  0.97809000  0.19296400  1
  C  C10  1  0.02043600  0.99373900  0.09410000  1
  C  C11  1  0.08228200  0.00105900  0.01375100  1
  C  C12  1  0.06689500  0.00255300  0.91331700  1
  C  C13  1  0.12885600  0.00037600  0.83530400  1
  C  C14  1  0.88464600  0.00683200  0.15271100  1
  C  C15  1  0.94447200  0.99737400  0.07428900  1
  C  C16  1  0.92863800  0.99756800  0.97421600  1
  C  C17  1  0.98966400  0.00092900  0.89315200  1
  C  C18  1  0.97229100  0.00646800  0.79357400  1
  C  C19  1  0.80906400  0.00432500  0.13338100  1
  C  C20  1  0.78987400  0.99227200  0.03478600  1
  C  C21  1  0.85151700  0.99550500  0.95511800  1
  C  C22  1  0.83626100  0.99901300  0.85584800  1
  C  C23  1  0.71172800  0.98446600  0.01452700  1
  C  C24  1  0.69829600  0.98980300  0.91314800  1
  C  C25  1  0.89654200  0.00502100  0.77581200  1
  C  C26  1  0.76122000  0.99901100  0.83529200  1
  C  C27  1  0.64491300  0.97512200  0.09901900  1
  C  C28  1  0.49059300  0.80843300  0.32296900  1
  C  C29  1  0.39372100  0.03529800  0.10744500  1
  C  C30  1  0.48458500  0.20738300  0.32192700  1
  C  C31  1  0.49444900  0.79986500  0.68838900  1
  C  C32  1  0.61911600  0.98402200  0.88351800  1
  C  C33  1  0.53298200  0.23498400  0.66971500  1
  C  C34  1  0.37151100  0.05613700  0.89257400  1
  C  C35  1  0.48312400  0.73472900  0.59609500  1
  C  C36  1  0.48564900  0.62536100  0.59317200  1
  C  C37  1  0.49140100  0.57082500  0.50014200  1
  C  C38  1  0.49607500  0.63272700  0.41028800  1
  C  C39  1  0.48670700  0.74028300  0.41491700  1
  C  C40  1  0.47990200  0.78996500  0.50874800  1
  C  C41  1  0.47826300  0.38263300  0.41487300  1
  C  C42  1  0.49927100  0.28300400  0.40719000  1
  C  C43  1  0.52533000  0.24281300  0.48758800  1
  C  C44  1  0.52953100  0.29903600  0.57827900  1
  C  C45  1  0.52235300  0.40730800  0.58100000  1
  C  C46  1  0.49807400  0.45273000  0.49789400  1
  C  C47  1  0.35538600  0.38918700  0.36952500  1
  C  C48  1  0.29995100  0.38395000  0.29187500  1
  C  C49  1  0.12317900  0.04173400  0.38001700  1
  C  C50  1  0.15233000  0.03675000  0.48032600  1
  N  N1  1  0.43539300  0.40914700  0.33991800  1
  N  N2  1  0.11942900  0.95586700  0.31463900  1
  O  O1  1  0.59308100  0.03371800  0.09522600  1
  O  O2  1  0.48170400  0.76281600  0.23303400  1
  O  O3  1  0.63654100  0.90766300  0.17726400  1
  O  O4  1  0.50379400  0.91732200  0.33448500  1
  O  O5  1  0.40359800  0.96477800  0.17431600  1
  O  O6  1  0.45190400  0.12606100  0.08012800  1
  O  O7  1  0.54629300  0.17655300  0.27426800  1
  O  O8  1  0.41158900  0.14249900  0.32048900  1
  O  O9  1  0.44782400  0.86586500  0.71231000  1
  O  O10  1  0.56497400  0.82232900  0.71990000  1
  O  O11  1  0.61530200  0.04154500  0.80262000  1
  O  O12  1  0.55399100  0.91215700  0.92864300  1
  O  O13  1  0.37362000  0.11650200  0.81130100  1
  O  O14  1  0.51901700  0.12621100  0.65831400  1
  O  O15  1  0.43163200  0.01372600  0.89975300  1
  O  O16  1  0.53645500  0.28004600  0.76058900  1
  O  O17  1  0.32780600  0.37475700  0.46000700  1
  O  O18  1  0.10337900  0.12384800  0.35719000  1
