# generated using pymatgen
data_ZnH7C14(NO2)2
_symmetry_space_group_name_H-M   'P 1'
_cell_length_a   12.73408500
_cell_length_b   9.33153400
_cell_length_c   8.58601400
_cell_angle_alpha   90.00000000
_cell_angle_beta   94.99704000
_cell_angle_gamma   90.00000000
_symmetry_Int_Tables_number   1
_chemical_formula_structural   ZnH7C14(NO2)2
_chemical_formula_sum   'Zn2 H14 C28 N4 O8'
_cell_volume   1016.38575091
_cell_formula_units_Z   2
loop_
 _symmetry_equiv_pos_site_id
 _symmetry_equiv_pos_as_xyz
  1  'x, y, z'
loop_
 _atom_site_type_symbol
 _atom_site_label
 _atom_site_symmetry_multiplicity
 _atom_site_fract_x
 _atom_site_fract_y
 _atom_site_fract_z
 _atom_site_occupancy
  Zn  Zn1  1  0.50237200  0.84103800  0.50067000  1
  Zn  Zn2  1  0.49762800  0.15896200  0.49933000  1
  H  H1  1  0.85751000  0.97620500  0.29326900  1
  H  H2  1  0.14249000  0.02379500  0.70673000  1
  H  H3  1  0.85176000  0.97918900  0.79189300  1
  H  H4  1  0.14824000  0.02081100  0.20810700  1
  H  H5  1  0.85907700  0.62402500  0.54972800  1
  H  H6  1  0.14092300  0.37597500  0.45027200  1
  H  H7  1  0.14362500  0.63707200  0.45133000  1
  H  H8  1  0.85637500  0.36292800  0.54867000  1
  H  H9  1  0.29913800  0.76035500  0.47305300  1
  H  H10  1  0.70086200  0.23964500  0.52694700  1
  H  H11  1  0.70516700  0.75305100  0.52914000  1
  H  H12  1  0.29483300  0.24694900  0.47086000  1
  H  H13  1  0.57315400  0.04976800  0.01200400  1
  H  H14  1  0.42684600  0.95023200  0.98799600  1
  C  C1  1  0.70706800  0.00386500  0.16611400  1
  C  C2  1  0.29293200  0.99613500  0.83388600  1
  C  C3  1  0.81496400  0.98554100  0.17917000  1
  C  C4  1  0.18503600  0.01445900  0.82083000  1
  C  C5  1  0.86920700  0.98685200  0.04584600  1
  C  C6  1  0.13079300  0.01314800  0.95415400  1
  C  C7  1  0.81348700  0.98878700  0.89895800  1
  C  C8  1  0.18651300  0.01121300  0.10104200  1
  C  C9  1  0.70560500  0.00546700  0.88815400  1
  C  C10  1  0.29439500  0.99453300  0.11184600  1
  C  C11  1  0.65530800  0.02430800  0.02130200  1
  C  C12  1  0.34469200  0.97569200  0.97869800  1
  C  C13  1  0.40655100  0.42649100  0.48684200  1
  C  C14  1  0.59344900  0.57350900  0.51315800  1
  C  C15  1  0.59156300  0.42282300  0.51227800  1
  C  C16  1  0.40843700  0.57717700  0.48772200  1
  C  C17  1  0.31090100  0.64857300  0.47443000  1
  C  C18  1  0.68909900  0.35142700  0.52557000  1
  C  C19  1  0.69208700  0.64149700  0.52689100  1
  C  C20  1  0.30791300  0.35850300  0.47310900  1
  C  C21  1  0.64110900  0.00206800  0.73899300  1
  C  C22  1  0.35889100  0.99793200  0.26100700  1
  C  C23  1  0.35642000  0.99884300  0.69986900  1
  C  C24  1  0.64358000  0.00115700  0.30013100  1
  C  C25  1  0.21674000  0.57757300  0.46125300  1
  C  C26  1  0.78326000  0.42242700  0.53874700  1
  C  C27  1  0.78479500  0.56726500  0.53933900  1
  C  C28  1  0.21520500  0.43273500  0.46066100  1
  N  N1  1  0.98063200  0.98655100  0.06247300  1
  N  N2  1  0.01936800  0.01344900  0.93752700  1
  N  N3  1  0.49800400  0.34878600  0.49900000  1
  N  N4  1  0.50199600  0.65121400  0.50100000  1
  O  O1  1  0.60398700  0.12412000  0.68225000  1
  O  O2  1  0.39601300  0.87588000  0.31775000  1
  O  O3  1  0.38976100  0.12325200  0.31831200  1
  O  O4  1  0.61023900  0.87674800  0.68168800  1
  O  O5  1  0.39438800  0.87687000  0.65410100  1
  O  O6  1  0.60561200  0.12313000  0.34589900  1
  O  O7  1  0.61200400  0.87636800  0.34948600  1
  O  O8  1  0.38799600  0.12363200  0.65051400  1
