# generated using pymatgen
data_FeH12C23O11
_symmetry_space_group_name_H-M   'P 1'
_cell_length_a   15.47986900
_cell_length_b   16.31568700
_cell_length_c   13.48434700
_cell_angle_alpha   88.41719400
_cell_angle_beta   101.95864300
_cell_angle_gamma   114.67938200
_symmetry_Int_Tables_number   1
_chemical_formula_structural   FeH12C23O11
_chemical_formula_sum   'Fe2 H24 C46 O22'
_cell_volume   3020.77862982
_cell_formula_units_Z   2
loop_
 _symmetry_equiv_pos_site_id
 _symmetry_equiv_pos_as_xyz
  1  'x, y, z'
loop_
 _atom_site_type_symbol
 _atom_site_label
 _atom_site_symmetry_multiplicity
 _atom_site_fract_x
 _atom_site_fract_y
 _atom_site_fract_z
 _atom_site_occupancy
  Fe  Fe1  1  0.49254500  0.01374700  0.76250200  1
  Fe  Fe2  1  0.52525100  0.02573800  0.21314100  1
  H  H1  1  0.81695900  0.05845700  0.21914200  1
  H  H2  1  0.96629800  0.06594200  0.17873600  1
  H  H3  1  0.82732500  0.00013800  0.86756000  1
  H  H4  1  0.05774800  0.09277100  0.01700900  1
  H  H5  1  0.04276500  0.94827000  0.78838700  1
  H  H6  1  0.19903100  0.97486400  0.75131800  1
  H  H7  1  0.48464200  0.91871700  0.46913200  1
  H  H8  1  0.52113400  0.70904300  0.33412200  1
  H  H9  1  0.60206800  0.63082000  0.62117300  1
  H  H10  1  0.60919000  0.48469500  0.62376800  1
  H  H11  1  0.40379600  0.40138800  0.34012700  1
  H  H12  1  0.39283300  0.54640500  0.34011200  1
  H  H13  1  0.52632800  0.33875600  0.33368100  1
  H  H14  1  0.52276000  0.11464300  0.50692000  1
  H  H15  1  0.48511900  0.32624700  0.63871300  1
  H  H16  1  0.27875800  0.46917000  0.68914300  1
  H  H17  1  0.33840700  0.56645200  0.77917800  1
  H  H18  1  0.40722300  0.50908000  0.74412000  1
  H  H19  1  0.71027400  0.75273100  0.01021900  1
  H  H20  1  0.79942700  0.70861300  0.00914200  1
  H  H21  1  0.73947200  0.73682200  0.89135000  1
  H  H22  1  0.02176200  0.87803900  0.28120200  1
  H  H23  1  0.07567600  0.99989500  0.28156800  1
  H  H24  1  0.15224100  0.94039900  0.31996400  1
  C  C1  1  0.81811500  0.04630900  0.14114500  1
  C  C2  1  0.90217000  0.04967600  0.11887800  1
  C  C3  1  0.90328800  0.02809100  0.02156100  1
  C  C4  1  0.82258900  0.01133100  0.94445200  1
  C  C5  1  0.73777700  0.00983700  0.96520300  1
  C  C6  1  0.73470700  0.02348700  0.06610900  1
  C  C7  1  0.99307900  0.02948400  0.00037800  1
  C  C8  1  0.00150600  0.95696500  0.96678300  1
  C  C9  1  0.10491000  0.96208000  0.85023200  1
  C  C10  1  0.19313000  0.97688000  0.82960000  1
  C  C11  1  0.27416700  0.99646400  0.90682800  1
  C  C12  1  0.26594200  0.99781400  0.00836900  1
  C  C13  1  0.17644300  0.98703100  0.02828300  1
  C  C14  1  0.09629600  0.96860100  0.94873400  1
  C  C15  1  0.48311800  0.16107100  0.66675800  1
  C  C16  1  0.36541600  0.01482200  0.87548000  1
  C  C17  1  0.65784900  0.00174600  0.87864100  1
  C  C18  1  0.46367400  0.85603400  0.64884100  1
  C  C19  1  0.53333000  0.17495400  0.32317700  1
  C  C20  1  0.34528900  0.99945800  0.09362400  1
  C  C21  1  0.64579600  0.01154000  0.09872900  1
  C  C22  1  0.52614100  0.87563000  0.31026700  1
  C  C23  1  0.50035800  0.81721400  0.39331400  1
  C  C24  1  0.50376300  0.73441000  0.39696500  1
  C  C25  1  0.48723300  0.68499600  0.48157700  1
  C  C26  1  0.47016600  0.72047600  0.56505600  1
  C  C27  1  0.47074700  0.80653900  0.56249600  1
  C  C28  1  0.48342800  0.85213200  0.47476700  1
  C  C29  1  0.55611200  0.57994000  0.56052600  1
  C  C30  1  0.56078700  0.49743600  0.56155000  1
  C  C31  1  0.50608200  0.43255600  0.48280300  1
  C  C32  1  0.44747800  0.45154000  0.40218100  1
  C  C33  1  0.44097000  0.53342900  0.40242600  1
  C  C34  1  0.49357100  0.59740900  0.48274500  1
  C  C35  1  0.52070700  0.30455500  0.40342900  1
  C  C36  1  0.52733900  0.22244600  0.41052000  1
  C  C37  1  0.52159400  0.18033000  0.50050700  1
  C  C38  1  0.50529000  0.21685700  0.58132600  1
  C  C39  1  0.49954000  0.29877500  0.57519000  1
  C  C40  1  0.50940600  0.34399100  0.48694000  1
  C  C41  1  0.44781700  0.66467900  0.65173700  1
  C  C42  1  0.34739600  0.53016000  0.71644800  1
  C  C43  1  0.92170400  0.86481300  0.94925500  1
  C  C44  1  0.76949400  0.75609300  0.97367900  1
  C  C45  1  0.16577000  0.99712300  0.13273700  1
  C  C46  1  0.08568700  0.93810400  0.26748200  1
  O  O1  1  0.55057600  0.13768200  0.71710900  1
  O  O2  1  0.44138000  0.09206100  0.90457800  1
  O  O3  1  0.39144100  0.10918500  0.66563300  1
  O  O4  1  0.36478700  0.96347500  0.80170900  1
  O  O5  1  0.58052300  0.01007300  0.89301800  1
  O  O6  1  0.66875000  0.99615100  0.78550700  1
  O  O7  1  0.47791400  0.94060600  0.63790200  1
  O  O8  1  0.45208800  0.82159000  0.73671600  1
  O  O9  1  0.54932400  0.10211900  0.33877100  1
  O  O10  1  0.51225000  0.19823500  0.23048700  1
  O  O11  1  0.43657000  0.03386500  0.08529900  1
  O  O12  1  0.32406400  0.96067800  0.17724800  1
  O  O13  1  0.61875000  0.92368300  0.31186500  1
  O  O14  1  0.65041500  0.06802600  0.16921900  1
  O  O15  1  0.46173000  0.90301400  0.26005800  1
  O  O16  1  0.56597800  0.93709400  0.07052100  1
  O  O17  1  0.50468900  0.68673600  0.73403900  1
  O  O18  1  0.36795600  0.58540200  0.63796600  1
  O  O19  1  0.93207200  0.80617400  0.90554100  1
  O  O20  1  0.84136500  0.84258600  0.98723800  1
  O  O21  1  0.22285600  0.06440800  0.18710000  1
  O  O22  1  0.09367900  0.93187200  0.16883000  1
