# generated using pymatgen
data_Cu3H8C28(NO4)4
_symmetry_space_group_name_H-M   'P 1'
_cell_length_a   23.44234300
_cell_length_b   23.44234300
_cell_length_c   38.42022900
_cell_angle_alpha   90.00000000
_cell_angle_beta   90.00000000
_cell_angle_gamma   90.00000000
_symmetry_Int_Tables_number   1
_chemical_formula_structural   Cu3H8C28(NO4)4
_chemical_formula_sum   'Cu12 H32 C112 N16 O64'
_cell_volume   21113.58501501
_cell_formula_units_Z   4
loop_
 _symmetry_equiv_pos_site_id
 _symmetry_equiv_pos_as_xyz
  1  'x, y, z'
loop_
 _atom_site_type_symbol
 _atom_site_label
 _atom_site_symmetry_multiplicity
 _atom_site_fract_x
 _atom_site_fract_y
 _atom_site_fract_z
 _atom_site_occupancy
  Cu  Cu1  1  0.55564700  0.00000000  0.50000000  1
  Cu  Cu2  1  0.00000000  0.55564800  0.50000000  1
  Cu  Cu3  1  0.44435200  0.00000000  0.50000000  1
  Cu  Cu4  1  0.00000000  0.44435300  0.50000000  1
  Cu  Cu5  1  0.05564800  0.50000000  0.00000000  1
  Cu  Cu6  1  0.50000000  0.05564800  0.00000000  1
  Cu  Cu7  1  0.94435200  0.50000000  0.00000000  1
  Cu  Cu8  1  0.50000000  0.94435200  0.00000000  1
  Cu  Cu9  1  0.50000000  0.50000000  0.46637300  1
  Cu  Cu10  1  0.50000000  0.50000000  0.53362700  1
  Cu  Cu11  1  0.00000000  0.00000000  0.96637300  1
  Cu  Cu12  1  0.00000000  0.00000000  0.03362700  1
  H  H1  1  0.41298700  0.02718100  0.39114800  1
  H  H2  1  0.97281900  0.41298700  0.39114800  1
  H  H3  1  0.58701300  0.97281900  0.39114800  1
  H  H4  1  0.02718100  0.58701300  0.39114800  1
  H  H5  1  0.41298700  0.97281900  0.60885200  1
  H  H6  1  0.97281900  0.58701300  0.60885200  1
  H  H7  1  0.58701300  0.02718100  0.60885200  1
  H  H8  1  0.02718100  0.41298700  0.60885200  1
  H  H9  1  0.91298700  0.52718100  0.89114800  1
  H  H10  1  0.47281900  0.91298700  0.89114800  1
  H  H11  1  0.08701300  0.47281900  0.89114800  1
  H  H12  1  0.52718100  0.08701300  0.89114800  1
  H  H13  1  0.91298700  0.47281900  0.10885200  1
  H  H14  1  0.47281900  0.08701300  0.10885200  1
  H  H15  1  0.08701300  0.52718100  0.10885200  1
  H  H16  1  0.52718100  0.91298700  0.10885200  1
  H  H17  1  0.39990100  0.07144200  0.32635000  1
  H  H18  1  0.92855800  0.39990100  0.32635000  1
  H  H19  1  0.60009900  0.92855800  0.32635000  1
  H  H20  1  0.07144200  0.60009900  0.32635000  1
  H  H21  1  0.39990100  0.92855800  0.67365000  1
  H  H22  1  0.92855800  0.60009900  0.67365000  1
  H  H23  1  0.60009900  0.07144200  0.67365000  1
  H  H24  1  0.07144200  0.39990100  0.67365000  1
  H  H25  1  0.89990100  0.57144200  0.82635000  1
  H  H26  1  0.42855800  0.89990100  0.82635000  1
  H  H27  1  0.10009900  0.42855800  0.82635000  1
  H  H28  1  0.57144200  0.10009900  0.82635000  1
  H  H29  1  0.89990100  0.42855800  0.17365000  1
  H  H30  1  0.42855800  0.10009900  0.17365000  1
  H  H31  1  0.10009900  0.57144200  0.17365000  1
  H  H32  1  0.57144200  0.89990100  0.17365000  1
  C  C1  1  0.50000000  0.10763100  0.50000000  1
  C  C2  1  0.89236900  0.50000000  0.50000000  1
  C  C3  1  0.50000000  0.89236900  0.50000000  1
  C  C4  1  0.10763100  0.50000000  0.50000000  1
  C  C5  1  0.00000000  0.60763100  0.00000000  1
  C  C6  1  0.39236900  0.00000000  0.00000000  1
  C  C7  1  0.00000000  0.39236900  0.00000000  1
  C  C8  1  0.60763100  0.00000000  0.00000000  1
  C  C9  1  0.50000000  0.00000000  0.43391300  1
  C  C10  1  0.00000000  0.50000000  0.43391300  1
  C  C11  1  0.50000000  0.00000000  0.56608700  1
  C  C12  1  0.00000000  0.50000000  0.56608700  1
  C  C13  1  0.00000000  0.50000000  0.93391300  1
  C  C14  1  0.50000000  0.00000000  0.93391300  1
  C  C15  1  0.00000000  0.50000000  0.06608700  1
  C  C16  1  0.50000000  0.00000000  0.06608700  1
  C  C17  1  0.50000000  0.16881300  0.50000000  1
  C  C18  1  0.83118700  0.50000000  0.50000000  1
  C  C19  1  0.50000000  0.83118700  0.50000000  1
  C  C20  1  0.16881300  0.50000000  0.50000000  1
  C  C21  1  0.00000000  0.66881300  0.00000000  1
  C  C22  1  0.33118700  0.00000000  0.00000000  1
  C  C23  1  0.00000000  0.33118700  0.00000000  1
  C  C24  1  0.66881300  0.00000000  0.00000000  1
  C  C25  1  0.50000000  0.22020600  0.50000000  1
  C  C26  1  0.77979400  0.50000000  0.50000000  1
  C  C27  1  0.50000000  0.77979400  0.50000000  1
  C  C28  1  0.22020600  0.50000000  0.50000000  1
  C  C29  1  0.00000000  0.72020600  0.00000000  1
  C  C30  1  0.27979400  0.00000000  0.00000000  1
  C  C31  1  0.00000000  0.27979400  0.00000000  1
  C  C32  1  0.72020600  0.00000000  0.00000000  1
  C  C33  1  0.50000000  0.28042500  0.50000000  1
  C  C34  1  0.71957500  0.50000000  0.50000000  1
  C  C35  1  0.50000000  0.71957500  0.50000000  1
  C  C36  1  0.28042500  0.50000000  0.50000000  1
  C  C37  1  0.00000000  0.78042500  0.00000000  1
  C  C38  1  0.21957500  0.00000000  0.00000000  1
  C  C39  1  0.00000000  0.21957500  0.00000000  1
  C  C40  1  0.78042500  0.00000000  0.00000000  1
  C  C41  1  0.50000000  0.33181800  0.50000000  1
  C  C42  1  0.66818200  0.50000000  0.50000000  1
  C  C43  1  0.50000000  0.66818200  0.50000000  1
  C  C44  1  0.33181800  0.50000000  0.50000000  1
  C  C45  1  0.00000000  0.83181800  0.00000000  1
  C  C46  1  0.16818200  0.00000000  0.00000000  1
  C  C47  1  0.00000000  0.16818200  0.00000000  1
  C  C48  1  0.83181800  0.00000000  0.00000000  1
  C  C49  1  0.45159500  0.01535500  0.37759600  1
  C  C50  1  0.98464500  0.45159500  0.37759600  1
  C  C51  1  0.54840500  0.98464500  0.37759600  1
  C  C52  1  0.01535400  0.54840500  0.37759600  1
  C  C53  1  0.45159500  0.98464600  0.62240400  1
  C  C54  1  0.98464500  0.54840500  0.62240400  1
  C  C55  1  0.54840500  0.01535500  0.62240400  1
  C  C56  1  0.01535500  0.45159500  0.62240400  1
  C  C57  1  0.95159500  0.51535500  0.87759600  1
  C  C58  1  0.48464500  0.95159500  0.87759600  1
  C  C59  1  0.04840500  0.48464500  0.87759600  1
  C  C60  1  0.51535500  0.04840500  0.87759600  1
  C  C61  1  0.95159500  0.48464500  0.12240400  1
  C  C62  1  0.48464500  0.04840500  0.12240400  1
  C  C63  1  0.04840500  0.51535500  0.12240400  1
  C  C64  1  0.51535500  0.95159500  0.12240400  1
  C  C65  1  0.45142500  0.01553300  0.34171900  1
  C  C66  1  0.98446700  0.45142500  0.34171900  1
  C  C67  1  0.54857500  0.98446700  0.34171900  1
  C  C68  1  0.01553300  0.54857500  0.34171900  1
  C  C69  1  0.45142500  0.98446700  0.65828100  1
  C  C70  1  0.98446700  0.54857500  0.65828100  1
  C  C71  1  0.54857500  0.01553300  0.65828100  1
  C  C72  1  0.01553300  0.45142500  0.65828100  1
  C  C73  1  0.95142500  0.51553300  0.84171900  1
  C  C74  1  0.48446700  0.95142500  0.84171900  1
  C  C75  1  0.04857500  0.48446700  0.84171900  1
  C  C76  1  0.51553300  0.04857500  0.84171900  1
  C  C77  1  0.95142500  0.48446700  0.15828100  1
  C  C78  1  0.48446700  0.04857500  0.15828100  1
  C  C79  1  0.04857500  0.51553300  0.15828100  1
  C  C80  1  0.51553300  0.95142500  0.15828100  1
  C  C81  1  0.50000000  0.00000000  0.32331800  1
  C  C82  1  0.00000000  0.50000000  0.32331800  1
  C  C83  1  0.50000000  0.00000000  0.67668200  1
  C  C84  1  0.00000000  0.50000000  0.67668200  1
  C  C85  1  0.00000000  0.50000000  0.82331800  1
  C  C86  1  0.50000000  0.00000000  0.82331800  1
  C  C87  1  0.00000000  0.50000000  0.17668200  1
  C  C88  1  0.50000000  0.00000000  0.17668200  1
  C  C89  1  0.50000000  0.00000000  0.39575100  1
  C  C90  1  0.00000000  0.50000000  0.39575100  1
  C  C91  1  0.50000000  0.00000000  0.60424900  1
  C  C92  1  0.00000000  0.50000000  0.60424900  1
  C  C93  1  0.00000000  0.50000000  0.89575100  1
  C  C94  1  0.50000000  0.00000000  0.89575100  1
  C  C95  1  0.00000000  0.50000000  0.10424900  1
  C  C96  1  0.50000000  0.00000000  0.10424900  1
  C  C97  1  0.50000000  0.00000000  0.21507900  1
  C  C98  1  0.00000000  0.50000000  0.21507900  1
  C  C99  1  0.50000000  0.00000000  0.78492100  1
  C  C100  1  0.00000000  0.50000000  0.78492100  1
  C  C101  1  0.00000000  0.50000000  0.71507900  1
  C  C102  1  0.50000000  0.00000000  0.71507900  1
  C  C103  1  0.00000000  0.50000000  0.28492100  1
  C  C104  1  0.50000000  0.00000000  0.28492100  1
  C  C105  1  0.39300200  0.50000000  0.50000000  1
  C  C106  1  0.50000000  0.39300200  0.50000000  1
  C  C107  1  0.60699800  0.50000000  0.50000000  1
  C  C108  1  0.50000000  0.60699800  0.50000000  1
  C  C109  1  0.89300200  0.00000000  0.00000000  1
  C  C110  1  0.00000000  0.89300200  0.00000000  1
  C  C111  1  0.10699800  0.00000000  0.00000000  1
  C  C112  1  0.00000000  0.10699800  0.00000000  1
  N  N1  1  0.53498900  0.96499100  0.26719900  1
  N  N2  1  0.03500900  0.53498900  0.26719900  1
  N  N3  1  0.46501100  0.03500900  0.26719900  1
  N  N4  1  0.96499100  0.46501100  0.26719900  1
  N  N5  1  0.53498900  0.03500900  0.73280100  1
  N  N6  1  0.03500900  0.46501100  0.73280100  1
  N  N7  1  0.46501100  0.96499100  0.73280100  1
  N  N8  1  0.96499100  0.53498900  0.73280100  1
  N  N9  1  0.03498900  0.46499100  0.76719900  1
  N  N10  1  0.53500900  0.03498900  0.76719900  1
  N  N11  1  0.96501100  0.53500900  0.76719900  1
  N  N12  1  0.46499100  0.96501100  0.76719900  1
  N  N13  1  0.03498900  0.53500900  0.23280100  1
  N  N14  1  0.53500900  0.96501100  0.23280100  1
  N  N15  1  0.96501100  0.46499100  0.23280100  1
  N  N16  1  0.46499100  0.03498900  0.23280100  1
  O  O1  1  0.54703700  0.08101400  0.49036400  1
  O  O2  1  0.91898600  0.54703700  0.49036400  1
  O  O3  1  0.45296300  0.91898600  0.49036400  1
  O  O4  1  0.08101400  0.45296300  0.49036400  1
  O  O5  1  0.54703700  0.91898600  0.50963600  1
  O  O6  1  0.91898600  0.45296300  0.50963600  1
  O  O7  1  0.45296300  0.08101400  0.50963600  1
  O  O8  1  0.08101400  0.54703700  0.50963600  1
  O  O9  1  0.04703700  0.58101400  0.99036400  1
  O  O10  1  0.41898600  0.04703700  0.99036400  1
  O  O11  1  0.95296300  0.41898600  0.99036400  1
  O  O12  1  0.58101400  0.95296300  0.99036400  1
  O  O13  1  0.04703700  0.41898600  0.00963600  1
  O  O14  1  0.41898600  0.95296300  0.00963600  1
  O  O15  1  0.95296300  0.58101400  0.00963600  1
  O  O16  1  0.58101400  0.04703700  0.00963600  1
  O  O17  1  0.54693600  0.98399700  0.45028100  1
  O  O18  1  0.01600300  0.54693600  0.45028100  1
  O  O19  1  0.45306400  0.01600300  0.45028100  1
  O  O20  1  0.98399700  0.45306400  0.45028100  1
  O  O21  1  0.54693600  0.01600300  0.54971900  1
  O  O22  1  0.01600300  0.45306400  0.54971900  1
  O  O23  1  0.45306400  0.98399700  0.54971900  1
  O  O24  1  0.98399700  0.54693600  0.54971900  1
  O  O25  1  0.04693600  0.48399700  0.95028100  1
  O  O26  1  0.51600300  0.04693600  0.95028100  1
  O  O27  1  0.95306400  0.51600300  0.95028100  1
  O  O28  1  0.48399700  0.95306400  0.95028100  1
  O  O29  1  0.04693600  0.51600300  0.04971900  1
  O  O30  1  0.51600300  0.95306400  0.04971900  1
  O  O31  1  0.95306400  0.48399700  0.04971900  1
  O  O32  1  0.48399700  0.04693600  0.04971900  1
  O  O33  1  0.41954600  0.48543700  0.47088500  1
  O  O34  1  0.51456300  0.41954600  0.47088500  1
  O  O35  1  0.58045400  0.51456300  0.47088500  1
  O  O36  1  0.48543700  0.58045400  0.47088500  1
  O  O37  1  0.41954600  0.51456300  0.52911500  1
  O  O38  1  0.51456300  0.58045400  0.52911500  1
  O  O39  1  0.58045400  0.48543700  0.52911500  1
  O  O40  1  0.48543700  0.41954600  0.52911500  1
  O  O41  1  0.91954600  0.98543700  0.97088500  1
  O  O42  1  0.01456300  0.91954600  0.97088500  1
  O  O43  1  0.08045400  0.01456300  0.97088500  1
  O  O44  1  0.98543700  0.08045400  0.97088500  1
  O  O45  1  0.91954600  0.01456300  0.02911500  1
  O  O46  1  0.01456300  0.08045400  0.02911500  1
  O  O47  1  0.08045400  0.98543700  0.02911500  1
  O  O48  1  0.98543700  0.91954600  0.02911500  1
  O  O49  1  0.40200500  0.02932800  0.32484600  1
  O  O50  1  0.97067200  0.40200500  0.32484600  1
  O  O51  1  0.59799500  0.97067200  0.32484600  1
  O  O52  1  0.02932800  0.59799500  0.32484600  1
  O  O53  1  0.40200500  0.97067200  0.67515400  1
  O  O54  1  0.97067200  0.59799500  0.67515400  1
  O  O55  1  0.59799500  0.02932800  0.67515400  1
  O  O56  1  0.02932800  0.40200500  0.67515400  1
  O  O57  1  0.90200500  0.52932800  0.82484600  1
  O  O58  1  0.47067200  0.90200500  0.82484600  1
  O  O59  1  0.09799500  0.47067200  0.82484600  1
  O  O60  1  0.52932800  0.09799500  0.82484600  1
  O  O61  1  0.90200500  0.47067200  0.17515400  1
  O  O62  1  0.47067200  0.09799500  0.17515400  1
  O  O63  1  0.09799500  0.52932800  0.17515400  1
  O  O64  1  0.52932800  0.90200500  0.17515400  1
