# generated using pymatgen
data_Zn2H21C40N6Cl3O8
_symmetry_space_group_name_H-M   'P 1'
_cell_length_a   13.68439500
_cell_length_b   15.91694500
_cell_length_c   17.10269700
_cell_angle_alpha   90.89176500
_cell_angle_beta   88.98873500
_cell_angle_gamma   103.31124900
_symmetry_Int_Tables_number   1
_chemical_formula_structural   Zn2H21C40N6Cl3O8
_chemical_formula_sum   'Zn2 H21 C40 N6 Cl3 O8'
_cell_volume   3624.30250861
_cell_formula_units_Z   1
loop_
 _symmetry_equiv_pos_site_id
 _symmetry_equiv_pos_as_xyz
  1  'x, y, z'
loop_
 _atom_site_type_symbol
 _atom_site_label
 _atom_site_symmetry_multiplicity
 _atom_site_fract_x
 _atom_site_fract_y
 _atom_site_fract_z
 _atom_site_occupancy
  Zn  Zn1  1  0.50148900  0.40691300  0.50254300  1
  Zn  Zn2  1  0.50024600  0.59683600  0.49089000  1
  H  H1  1  0.80863600  0.69246600  0.56024000  1
  H  H2  1  0.13864600  0.68150200  0.59820300  1
  H  H3  1  0.98660700  0.72452700  0.58876900  1
  H  H4  1  0.82255000  0.44553800  0.47295300  1
  H  H5  1  0.19979200  0.31544900  0.42980400  1
  H  H6  1  0.91327300  0.36558100  0.43688000  1
  H  H7  1  0.02142300  0.27320500  0.40523900  1
  H  H8  1  0.24107700  0.58196700  0.57383200  1
  H  H9  1  0.54648400  0.40722500  0.74822300  1
  H  H10  1  0.54733900  0.41131400  0.88782700  1
  H  H11  1  0.58081700  0.37013400  0.10578800  1
  H  H12  1  0.45595800  0.59328700  0.10560600  1
  H  H13  1  0.41990900  0.63303900  0.88767900  1
  H  H14  1  0.45675300  0.59732200  0.24523600  1
  H  H15  1  0.40942600  0.24537500  0.41331300  1
  H  H16  1  0.41595900  0.09505000  0.41742700  1
  H  H17  1  0.40260300  0.69941800  0.38622800  1
  H  H18  1  0.59899200  0.30413300  0.60695700  1
  H  H19  1  0.58507100  0.90852700  0.57598300  1
  H  H20  1  0.60921000  0.15271000  0.61516800  1
  H  H21  1  0.59177600  0.75826900  0.58009100  1
  C  C1  1  0.51491700  0.49152200  0.34384600  1
  C  C2  1  0.30409000  0.46057900  0.48990500  1
  C  C3  1  0.48697400  0.51226000  0.64959300  1
  C  C4  1  0.69702900  0.54325300  0.50502700  1
  C  C5  1  0.95216400  0.66320900  0.56186100  1
  C  C6  1  0.80614500  0.56579500  0.51483600  1
  C  C7  1  0.15274800  0.35813800  0.44866700  1
  C  C8  1  0.05211000  0.33433500  0.43394800  1
  C  C9  1  0.99038400  0.38863300  0.45290200  1
  C  C10  1  0.02780000  0.46774400  0.49017800  1
  C  C11  1  0.13017400  0.49063200  0.50737800  1
  C  C12  1  0.96593000  0.52474600  0.51028600  1
  C  C13  1  0.00843200  0.60331300  0.54545700  1
  C  C14  1  0.10718400  0.62219800  0.56689600  1
  C  C15  1  0.16657900  0.56561200  0.55041300  1
  C  C16  1  0.86261200  0.50604200  0.49704200  1
  C  C17  1  0.85172200  0.64531700  0.54538400  1
  C  C18  1  0.19361000  0.43675300  0.48352200  1
  C  C19  1  0.51857200  0.48606600  0.25781100  1
  C  C20  1  0.48492400  0.54708300  0.21559500  1
  C  C21  1  0.48400200  0.54417700  0.13500900  1
  C  C22  1  0.51786700  0.47973600  0.09505700  1
  C  C23  1  0.55298400  0.41974500  0.13680800  1
  C  C24  1  0.55382300  0.42212800  0.21745400  1
  C  C25  1  0.51866600  0.46007500  0.85843700  1
  C  C26  1  0.51773400  0.45715000  0.77785300  1
  C  C27  1  0.48409300  0.52413400  0.89839700  1
  C  C28  1  0.48333500  0.51775200  0.73563500  1
  C  C29  1  0.44737200  0.58130400  0.77600600  1
  C  C30  1  0.44828400  0.58373100  0.85665100  1
  C  C31  1  0.54824500  0.77925000  0.53532300  1
  C  C32  1  0.54374500  0.86490900  0.53267200  1
  C  C33  1  0.48687000  0.89151900  0.47577000  1
  C  C34  1  0.43698500  0.83142300  0.42279300  1
  C  C35  1  0.44306700  0.74643800  0.42736200  1
  C  C36  1  0.45741300  0.13867700  0.46067600  1
  C  C37  1  0.45301700  0.22436800  0.45802400  1
  C  C38  1  0.51435600  0.11203800  0.51751400  1
  C  C39  1  0.55840400  0.25712700  0.56586700  1
  C  C40  1  0.56437200  0.17212300  0.57043700  1
  N  N1  1  0.51820200  0.47355400  0.01241300  1
  N  N2  1  0.48374100  0.53031700  0.98104100  1
  N  N3  1  0.49806400  0.72159800  0.48325900  1
  N  N4  1  0.47766600  0.97799300  0.47049300  1
  N  N5  1  0.52352300  0.02555400  0.52277800  1
  N  N6  1  0.50340300  0.28201700  0.51000300  1
  Cl  Cl1  1  0.60557600  0.34537300  0.26426800  1
  Cl  Cl2  1  0.39463700  0.65748700  0.72924600  1
  Cl  Cl3  1  0.36442300  0.86283800  0.35027100  1
  O  O1  1  0.51078800  0.42193500  0.38502500  1
  O  O2  1  0.51153600  0.56610000  0.37620600  1
  O  O3  1  0.35179900  0.39822000  0.49556800  1
  O  O4  1  0.35148000  0.54195800  0.48530700  1
  O  O5  1  0.49140600  0.43782800  0.61730000  1
  O  O6  1  0.48990200  0.58168100  0.60837900  1
  O  O7  1  0.65045400  0.46147500  0.50696900  1
  O  O8  1  0.64987700  0.60584400  0.49873500  1
