# generated using pymatgen
data_ZnH18C21NO5
_symmetry_space_group_name_H-M   'P 1'
_cell_length_a   15.20171300
_cell_length_b   14.02960800
_cell_length_c   15.95165400
_cell_angle_alpha   90.00000000
_cell_angle_beta   89.99500900
_cell_angle_gamma   90.00000000
_symmetry_Int_Tables_number   1
_chemical_formula_structural   ZnH18C21NO5
_chemical_formula_sum   'Zn2 H36 C42 N2 O10'
_cell_volume   3402.07422779
_cell_formula_units_Z   2
loop_
 _symmetry_equiv_pos_site_id
 _symmetry_equiv_pos_as_xyz
  1  'x, y, z'
loop_
 _atom_site_type_symbol
 _atom_site_label
 _atom_site_symmetry_multiplicity
 _atom_site_fract_x
 _atom_site_fract_y
 _atom_site_fract_z
 _atom_site_occupancy
  Zn  Zn1  1  0.49793400  0.60764900  0.50367200  1
  Zn  Zn2  1  0.49793700  0.39059300  0.50360600  1
  H  H1  1  0.41079900  0.61097900  0.94174300  1
  H  H2  1  0.37577600  0.43933100  0.92260600  1
  H  H3  1  0.43713300  0.63703700  0.08013900  1
  H  H4  1  0.36230000  0.48093600  0.05997600  1
  H  H5  1  0.42152800  0.37169600  0.08046000  1
  H  H6  1  0.55495000  0.64057400  0.06613800  1
  H  H7  1  0.46193500  0.35440900  0.94350600  1
  H  H8  1  0.52079500  0.65419200  0.92617000  1
  H  H9  1  0.64179300  0.48369200  0.08813000  1
  H  H10  1  0.57950400  0.37661600  0.06635100  1
  H  H11  1  0.05918300  0.64446400  0.46278200  1
  H  H12  1  0.05905100  0.35368200  0.54491700  1
  H  H13  1  0.21794200  0.64511200  0.46588400  1
  H  H14  1  0.21786400  0.35310900  0.54239100  1
  H  H15  1  0.93682200  0.35390600  0.46193900  1
  H  H16  1  0.93666500  0.64423300  0.54531600  1
  H  H17  1  0.77800400  0.35333300  0.46439000  1
  H  H18  1  0.77789900  0.64490100  0.54215300  1
  H  H19  1  0.36949000  0.06591400  0.44856800  1
  H  H20  1  0.42944700  0.93222200  0.38636800  1
  H  H21  1  0.37281000  0.23906700  0.44739800  1
  H  H22  1  0.42859400  0.75896000  0.38967800  1
  H  H23  1  0.62300600  0.23906600  0.55970800  1
  H  H24  1  0.56719900  0.75903000  0.61766600  1
  H  H25  1  0.62629900  0.06591800  0.55860300  1
  H  H26  1  0.56632200  0.93229900  0.62089400  1
  H  H27  1  0.67190000  0.51139200  0.82381200  1
  H  H28  1  0.77049500  0.52613100  0.88514100  1
  H  H29  1  0.74019700  0.69943100  0.89394400  1
  H  H30  1  0.75245400  0.65708600  0.78732800  1
  H  H31  1  0.64413000  0.68265500  0.82837900  1
  H  H32  1  0.68356000  0.29587300  0.00107000  1
  H  H33  1  0.74304200  0.40742000  0.99044900  1
  H  H34  1  0.78450400  0.35906600  0.84517600  1
  H  H35  1  0.82153600  0.27531800  0.92387900  1
  H  H36  1  0.72619800  0.24811700  0.86029900  1
  C  C1  1  0.32575500  0.49914000  0.50422700  1
  C  C2  1  0.49735400  0.49915700  0.33981100  1
  C  C3  1  0.67011200  0.49916100  0.50308900  1
  C  C4  1  0.49860500  0.49904400  0.66752600  1
  C  C5  1  0.49405900  0.60079200  0.05057800  1
  C  C6  1  0.42477500  0.44206600  0.04894000  1
  C  C7  1  0.43898500  0.42811800  0.95587400  1
  C  C8  1  0.48103800  0.59772900  0.95652000  1
  C  C9  1  0.50078600  0.49905200  0.75743700  1
  C  C10  1  0.50104500  0.49945500  0.08266700  1
  C  C11  1  0.50681000  0.49955000  0.92468200  1
  C  C12  1  0.59863400  0.47316700  0.95852200  1
  C  C13  1  0.58568000  0.45363900  0.05238900  1
  C  C14  1  0.50362300  0.49919900  0.83295100  1
  C  C15  1  0.49904300  0.49930300  0.17433900  1
  C  C16  1  0.49797800  0.49921300  0.24986400  1
  C  C17  1  0.09284600  0.58045700  0.48239300  1
  C  C18  1  0.09278500  0.41772100  0.52549200  1
  C  C19  1  0.18353400  0.58072200  0.48340000  1
  C  C20  1  0.18348700  0.41750800  0.52484600  1
  C  C21  1  0.22936200  0.49913600  0.50422500  1
  C  C22  1  0.04646000  0.49907900  0.50384800  1
  C  C23  1  0.90308300  0.41783900  0.48162400  1
  C  C24  1  0.90300800  0.58033800  0.52541500  1
  C  C25  1  0.81238100  0.41762900  0.48222800  1
  C  C26  1  0.81232000  0.58061400  0.52436400  1
  C  C27  1  0.76650200  0.49915000  0.50315700  1
  C  C28  1  0.94940100  0.49907700  0.50362600  1
  C  C29  1  0.42716400  0.10207100  0.47207500  1
  C  C30  1  0.45893200  0.89608200  0.43914000  1
  C  C31  1  0.42840300  0.20034300  0.47228500  1
  C  C32  1  0.45929000  0.79781200  0.44031700  1
  C  C33  1  0.56741300  0.20034200  0.53481700  1
  C  C34  1  0.53649000  0.79785200  0.56701000  1
  C  C35  1  0.56863500  0.10207300  0.53507300  1
  C  C36  1  0.53683600  0.89612400  0.56814200  1
  C  C37  1  0.49789300  0.05159000  0.50359100  1
  C  C38  1  0.49788300  0.94658100  0.50362700  1
  C  C39  1  0.70285500  0.55295100  0.87451500  1
  C  C40  1  0.71036100  0.65485000  0.84407800  1
  C  C41  1  0.70408500  0.35267200  0.95689400  1
  C  C42  1  0.76301600  0.30587100  0.89225400  1
  N  N1  1  0.49791400  0.24799000  0.50354000  1
  N  N2  1  0.49789100  0.75023700  0.50367400  1
  O  O1  1  0.36687800  0.58140500  0.50370000  1
  O  O2  1  0.36688600  0.41688200  0.50453700  1
  O  O3  1  0.49792500  0.58147100  0.37876600  1
  O  O4  1  0.49709400  0.41680000  0.37871100  1
  O  O5  1  0.62899500  0.58143600  0.50366900  1
  O  O6  1  0.62898600  0.41689300  0.50271600  1
  O  O7  1  0.49802900  0.58139200  0.62862800  1
  O  O8  1  0.49885300  0.41672100  0.62857700  1
  O  O9  1  0.65631300  0.55211200  0.95091900  1
  O  O10  1  0.63006500  0.39136000  0.91602500  1
