# generated using pymatgen
data_Cu3H30C60(N2O9)2
_symmetry_space_group_name_H-M   'P 1'
_cell_length_a   21.26261100
_cell_length_b   21.26254200
_cell_length_c   54.93385600
_cell_angle_alpha   90.00000000
_cell_angle_beta   90.00000000
_cell_angle_gamma   90.00000000
_symmetry_Int_Tables_number   1
_chemical_formula_structural   Cu3H30C60(N2O9)2
_chemical_formula_sum   'Cu12 H120 C240 N16 O72'
_cell_volume   24835.44025343
_cell_formula_units_Z   4
loop_
 _symmetry_equiv_pos_site_id
 _symmetry_equiv_pos_as_xyz
  1  'x, y, z'
loop_
 _atom_site_type_symbol
 _atom_site_label
 _atom_site_symmetry_multiplicity
 _atom_site_fract_x
 _atom_site_fract_y
 _atom_site_fract_z
 _atom_site_occupancy
  Cu  Cu1  1  0.99977200  0.99974600  0.47552300  1
  Cu  Cu2  1  0.49987800  0.49975000  0.97553500  1
  Cu  Cu3  1  0.99969800  0.99974600  0.52407300  1
  Cu  Cu4  1  0.49995400  0.49986700  0.02405800  1
  Cu  Cu5  1  0.93880200  0.50091600  0.50140100  1
  Cu  Cu6  1  0.49854200  0.93879900  0.50140900  1
  Cu  Cu7  1  0.06175700  0.49853500  0.50138100  1
  Cu  Cu8  1  0.50089700  0.06175400  0.50137100  1
  Cu  Cu9  1  0.43850600  0.00103400  0.00133300  1
  Cu  Cu10  1  0.99870300  0.43843400  0.00133500  1
  Cu  Cu11  1  0.56145600  0.99864000  0.00144600  1
  Cu  Cu12  1  0.00104500  0.56138500  0.00144700  1
  H  H1  1  0.37118300  0.91078600  0.31180000  1
  H  H2  1  0.08912000  0.37131700  0.31175400  1
  H  H3  1  0.62757300  0.08903900  0.31170300  1
  H  H4  1  0.91084100  0.62769000  0.31175000  1
  H  H5  1  0.87185500  0.41146000  0.81176400  1
  H  H6  1  0.58971000  0.87237300  0.81171800  1
  H  H7  1  0.12827100  0.58967500  0.81174300  1
  H  H8  1  0.41152600  0.12881100  0.81178800  1
  H  H9  1  0.90029800  0.50877600  0.62154500  1
  H  H10  1  0.49118900  0.90045800  0.62157600  1
  H  H11  1  0.10036600  0.49112900  0.62155500  1
  H  H12  1  0.50883600  0.10052700  0.62152100  1
  H  H13  1  0.39932300  0.00826000  0.12148700  1
  H  H14  1  0.99088000  0.39933700  0.12149900  1
  H  H15  1  0.59939400  0.99064300  0.12160800  1
  H  H16  1  0.00845300  0.59941200  0.12159700  1
  H  H17  1  0.90004000  0.50675800  0.57727500  1
  H  H18  1  0.49294100  0.90012900  0.57730400  1
  H  H19  1  0.10062700  0.49289600  0.57728000  1
  H  H20  1  0.50680200  0.10071700  0.57724900  1
  H  H21  1  0.39924600  0.00635500  0.07721100  1
  H  H22  1  0.99280300  0.39922500  0.07722300  1
  H  H23  1  0.59983400  0.99252200  0.07733900  1
  H  H24  1  0.00658800  0.59981700  0.07732800  1
  H  H25  1  0.37082900  0.90801400  0.26899600  1
  H  H26  1  0.09171400  0.37094300  0.26894900  1
  H  H27  1  0.62781200  0.09166800  0.26890000  1
  H  H28  1  0.90803200  0.62790600  0.26894800  1
  H  H29  1  0.87160700  0.40865500  0.76896200  1
  H  H30  1  0.59232200  0.87209300  0.76891400  1
  H  H31  1  0.12861700  0.59227100  0.76893900  1
  H  H32  1  0.40873500  0.12912300  0.76898500  1
  H  H33  1  0.01624000  0.28770900  0.54161400  1
  H  H34  1  0.71171900  0.01630300  0.54156800  1
  H  H35  1  0.98424900  0.71166900  0.54156700  1
  H  H36  1  0.28776300  0.98424500  0.54161300  1
  H  H37  1  0.51344300  0.78775500  0.04156900  1
  H  H38  1  0.21167800  0.51346600  0.04187100  1
  H  H39  1  0.48254400  0.21166000  0.04166000  1
  H  H40  1  0.78778300  0.48242200  0.04136100  1
  H  H41  1  0.09927200  0.21113500  0.51400800  1
  H  H42  1  0.78828500  0.09932800  0.51395800  1
  H  H43  1  0.90054100  0.78761200  0.51402500  1
  H  H44  1  0.21181600  0.90051300  0.51408100  1
  H  H45  1  0.59840300  0.71148800  0.01473500  1
  H  H46  1  0.28813800  0.59840900  0.01511000  1
  H  H47  1  0.40012500  0.28797100  0.01367900  1
  H  H48  1  0.71169800  0.39994800  0.01331200  1
  H  H49  1  0.97929200  0.21371800  0.45898500  1
  H  H50  1  0.78574400  0.97930600  0.45894800  1
  H  H51  1  0.02018600  0.78578600  0.45888900  1
  H  H52  1  0.21367500  0.02010000  0.45892600  1
  H  H53  1  0.48199400  0.71393700  0.95857700  1
  H  H54  1  0.28605100  0.48196600  0.95895900  1
  H  H55  1  0.52188300  0.28596500  0.95924000  1
  H  H56  1  0.71401600  0.52165600  0.95885900  1
  H  H57  1  0.89602000  0.28934300  0.48663900  1
  H  H58  1  0.71011600  0.89604200  0.48660700  1
  H  H59  1  0.10414900  0.71075300  0.48648600  1
  H  H60  1  0.28869600  0.10408600  0.48651300  1
  H  H61  1  0.39678300  0.78929100  0.98545800  1
  H  H62  1  0.21053400  0.39677400  0.98576700  1
  H  H63  1  0.60454800  0.21060200  0.98727600  1
  H  H64  1  0.78917500  0.60437800  0.98696400  1
  H  H65  1  0.91591800  0.20962400  0.52685500  1
  H  H66  1  0.78981800  0.91598300  0.52682500  1
  H  H67  1  0.08396800  0.79039400  0.52670900  1
  H  H68  1  0.20904500  0.08395400  0.52673500  1
  H  H69  1  0.41427900  0.70948000  0.02581500  1
  H  H70  1  0.29006700  0.41429100  0.02620800  1
  H  H71  1  0.58303700  0.29017300  0.02742000  1
  H  H72  1  0.70934200  0.58287300  0.02702600  1
  H  H73  1  0.49628200  0.89960300  0.42550100  1
  H  H74  1  0.10070800  0.49638800  0.42544900  1
  H  H75  1  0.50285300  0.10064700  0.42544000  1
  H  H76  1  0.89966500  0.50295400  0.42549400  1
  H  H77  1  0.99682500  0.39980400  0.92541000  1
  H  H78  1  0.60091700  0.99691700  0.92552700  1
  H  H79  1  0.00342700  0.60084700  0.92553500  1
  H  H80  1  0.39987600  0.00356000  0.92541700  1
  H  H81  1  0.10448400  0.61891600  0.73379700  1
  H  H82  1  0.38182700  0.10489800  0.73388200  1
  H  H83  1  0.89590100  0.38172000  0.73386900  1
  H  H84  1  0.61900400  0.89629400  0.73378300  1
  H  H85  1  0.60353300  0.11841200  0.23378400  1
  H  H86  1  0.88114500  0.60360700  0.23385000  1
  H  H87  1  0.39498600  0.88118500  0.23387800  1
  H  H88  1  0.11840000  0.39509200  0.23381400  1
  H  H89  1  0.10184700  0.61873600  0.69099300  1
  H  H90  1  0.38171000  0.10215900  0.69107900  1
  H  H91  1  0.89868800  0.38159300  0.69106700  1
  H  H92  1  0.61883500  0.89898100  0.69097900  1
  H  H93  1  0.60080000  0.11829100  0.19098100  1
  H  H94  1  0.88108400  0.60084400  0.19104700  1
  H  H95  1  0.39767500  0.88111800  0.19107400  1
  H  H96  1  0.11828500  0.39775400  0.19101000  1
  H  H97  1  0.49812300  0.89963000  0.38125900  1
  H  H98  1  0.10052800  0.49826200  0.38120700  1
  H  H99  1  0.50082800  0.10044900  0.38120000  1
  H  H100  1  0.89970900  0.50096000  0.38125300  1
  H  H101  1  0.99875700  0.40009000  0.88117400  1
  H  H102  1  0.60096600  0.99903900  0.88128300  1
  H  H103  1  0.00149300  0.60090900  0.88128900  1
  H  H104  1  0.40014800  0.00181300  0.88117900  1
  H  H105  1  0.11507000  0.34982800  0.44094400  1
  H  H106  1  0.04540200  0.31220900  0.43831300  1
  H  H107  1  0.64958700  0.11504300  0.44089100  1
  H  H108  1  0.68721200  0.04537700  0.43826800  1
  H  H109  1  0.88523900  0.64886900  0.44097100  1
  H  H110  1  0.95460100  0.68701800  0.43827500  1
  H  H111  1  0.35055700  0.88511800  0.44103000  1
  H  H112  1  0.31241200  0.95447900  0.43832400  1
  H  H113  1  0.61855400  0.85034200  0.94188600  1
  H  H114  1  0.54914900  0.81259200  0.93858400  1
  H  H115  1  0.14981500  0.61852500  0.94210800  1
  H  H116  1  0.18759300  0.54912000  0.93885400  1
  H  H117  1  0.38724400  0.14944700  0.94048400  1
  H  H118  1  0.45679900  0.18742300  0.93820000  1
  H  H119  1  0.85077000  0.38705800  0.94027200  1
  H  H120  1  0.81279600  0.45660300  0.93793700  1
  C  C1  1  0.12027900  0.00059900  0.49979300  1
  C  C2  1  0.99808100  0.12028100  0.49983700  1
  C  C3  1  0.87916500  0.99811800  0.49981100  1
  C  C4  1  0.00061900  0.87916700  0.49976500  1
  C  C5  1  0.62048100  0.50102400  0.99960000  1
  C  C6  1  0.49860900  0.62043300  0.99958400  1
  C  C7  1  0.37929100  0.49858500  0.00000300  1
  C  C8  1  0.50121500  0.37924400  0.00001700  1
  C  C9  1  0.49957600  0.00013100  0.42860100  1
  C  C10  1  0.00019200  0.49967700  0.42860200  1
  C  C11  1  0.00012200  0.50031400  0.92860300  1
  C  C12  1  0.50038600  0.00022800  0.92860300  1
  C  C13  1  0.94440400  0.50423800  0.61191900  1
  C  C14  1  0.49566500  0.94454900  0.61193500  1
  C  C15  1  0.05626200  0.49560900  0.61192300  1
  C  C16  1  0.50429400  0.05640600  0.61190500  1
  C  C17  1  0.44346600  0.00374200  0.11188500  1
  C  C18  1  0.99537500  0.44347500  0.11189200  1
  C  C19  1  0.55532500  0.99512900  0.11195300  1
  C  C20  1  0.00396200  0.55533600  0.11194700  1
  C  C21  1  0.00033300  0.49981300  0.57417900  1
  C  C22  1  0.49986300  0.00041800  0.57417800  1
  C  C23  1  0.49955300  0.99944600  0.07417600  1
  C  C24  1  0.99968800  0.49953100  0.07417700  1
  C  C25  1  0.05309300  0.22972600  0.50798800  1
  C  C26  1  0.76970700  0.05314000  0.50794100  1
  C  C27  1  0.94681000  0.76933700  0.50796300  1
  C  C28  1  0.23009900  0.94677300  0.50801300  1
  C  C29  1  0.55257900  0.72998700  0.00828100  1
  C  C30  1  0.26968200  0.55258400  0.00864000  1
  C  C31  1  0.44656600  0.26957100  0.00787500  1
  C  C32  1  0.73012000  0.44639200  0.00752200  1
  C  C33  1  0.00802400  0.26998000  0.52290000  1
  C  C34  1  0.72945600  0.00807600  0.52285600  1
  C  C35  1  0.99223800  0.72942900  0.52284300  1
  C  C36  1  0.27000800  0.99221500  0.52288700  1
  C  C37  1  0.50647100  0.77006300  0.02277400  1
  C  C38  1  0.22950100  0.50648200  0.02309600  1
  C  C39  1  0.49130300  0.22946800  0.02299400  1
  C  C40  1  0.77010100  0.49115500  0.02267600  1
  C  C41  1  0.99720200  0.31097800  0.50086300  1
  C  C42  1  0.68846500  0.99723100  0.50081900  1
  C  C43  1  0.00320600  0.68847300  0.50080500  1
  C  C44  1  0.31097000  0.00315600  0.50084800  1
  C  C45  1  0.49696200  0.81110800  0.00066100  1
  C  C46  1  0.18860900  0.49696100  0.00094000  1
  C  C47  1  0.50299800  0.18856700  0.00099800  1
  C  C48  1  0.81114900  0.50284700  0.00072100  1
  C  C49  1  0.04136100  0.27140500  0.48615000  1
  C  C50  1  0.72803600  0.04138600  0.48610200  1
  C  C51  1  0.95869400  0.72773300  0.48612400  1
  C  C52  1  0.27171000  0.95863100  0.48617300  1
  C  C53  1  0.54214800  0.77169500  0.98635500  1
  C  C54  1  0.22812100  0.54214000  0.98667200  1
  C  C55  1  0.45916800  0.22800200  0.98608500  1
  C  C56  1  0.77183400  0.45899000  0.98577200  1
  C  C57  1  0.98712400  0.23081700  0.47781100  1
  C  C58  1  0.76863500  0.98714700  0.47777100  1
  C  C59  1  0.01259600  0.76868100  0.47772900  1
  C  C60  1  0.23076900  0.01252700  0.47776800  1
  C  C61  1  0.48857200  0.73099800  0.97747900  1
  C  C62  1  0.26887200  0.48855800  0.97784400  1
  C  C63  1  0.51351500  0.26881300  0.97802400  1
  C  C64  1  0.73105300  0.51331600  0.97766100  1
  C  C65  1  0.94222700  0.27114700  0.49279800  1
  C  C66  1  0.72830600  0.94225600  0.49276200  1
  C  C67  1  0.05786400  0.72866200  0.49268300  1
  C  C68  1  0.27078500  0.05780800  0.49271700  1
  C  C69  1  0.44261800  0.77117300  0.99205100  1
  C  C70  1  0.22860400  0.44261200  0.99237800  1
  C  C71  1  0.55807900  0.22862000  0.99321400  1
  C  C72  1  0.77113200  0.55790600  0.99288700  1
  C  C73  1  0.95302100  0.22911300  0.51484200  1
  C  C74  1  0.77033100  0.95307300  0.51480600  1
  C  C75  1  0.04691200  0.77066900  0.51473100  1
  C  C76  1  0.22877300  0.04688300  0.51476500  1
  C  C77  1  0.45210100  0.72908500  0.01417200  1
  C  C78  1  0.27054200  0.45210500  0.01454000  1
  C  C79  1  0.54640400  0.27056900  0.01522100  1
  C  C80  1  0.72904000  0.54623300  0.01485200  1
  C  C81  1  0.99798000  0.19006000  0.49992500  1
  C  C82  1  0.80938400  0.99802700  0.49988600  1
  C  C83  1  0.00158800  0.80938900  0.49984700  1
  C  C84  1  0.19005500  0.00154600  0.49988600  1
  C  C85  1  0.49811100  0.69020300  0.99967200  1
  C  C86  1  0.30952000  0.49810700  0.00007800  1
  C  C87  1  0.50177800  0.30947300  0.00009800  1
  C  C88  1  0.69025100  0.50158200  0.99969500  1
  C  C89  1  0.49947000  0.00003300  0.37815000  1
  C  C90  1  0.00011400  0.49960800  0.37815000  1
  C  C91  1  0.00011300  0.50051000  0.87815200  1
  C  C92  1  0.50056700  0.00044600  0.87815100  1
  C  C93  1  0.49813700  0.94398300  0.39087400  1
  C  C94  1  0.05620800  0.49827000  0.39084600  1
  C  C95  1  0.50085000  0.05613300  0.39084100  1
  C  C96  1  0.94405900  0.50098000  0.39087100  1
  C  C97  1  0.99876400  0.44438900  0.89082700  1
  C  C98  1  0.55659800  0.99901500  0.89088800  1
  C  C99  1  0.00149500  0.55653800  0.89089200  1
  C  C100  1  0.44445000  0.00176800  0.89083000  1
  C  C101  1  0.00033100  0.49995800  0.62463000  1
  C  C102  1  0.50002500  0.00049600  0.62462900  1
  C  C103  1  0.49934800  0.99946700  0.12462800  1
  C  C104  1  0.99965600  0.49936600  0.12462900  1
  C  C105  1  0.94432000  0.50328800  0.58683200  1
  C  C106  1  0.49646200  0.94442500  0.58684800  1
  C  C107  1  0.05634600  0.49641300  0.58683500  1
  C  C108  1  0.50333600  0.05645200  0.58681800  1
  C  C109  1  0.44348400  0.00285700  0.08679600  1
  C  C110  1  0.99626800  0.44347300  0.08680400  1
  C  C111  1  0.55551100  0.99599900  0.08686700  1
  C  C112  1  0.00310000  0.55550200  0.08686100  1
  C  C113  1  0.00032600  0.49975400  0.54754200  1
  C  C114  1  0.49980400  0.00036900  0.54754100  1
  C  C115  1  0.49969800  0.99956200  0.04754000  1
  C  C116  1  0.99971400  0.49964300  0.04754100  1
  C  C117  1  0.99814200  0.38076300  0.50124500  1
  C  C118  1  0.61868100  0.99816400  0.50120700  1
  C  C119  1  0.00240500  0.61868800  0.50122700  1
  C  C120  1  0.38075600  0.00237500  0.50126300  1
  C  C121  1  0.49784500  0.88088300  0.00111900  1
  C  C122  1  0.11883000  0.49781900  0.00130100  1
  C  C123  1  0.50212900  0.11879000  0.00134800  1
  C  C124  1  0.88092200  0.50200300  0.00116700  1
  C  C125  1  0.00022900  0.49970400  0.45523900  1
  C  C126  1  0.49963400  0.00018300  0.45523800  1
  C  C127  1  0.50026200  0.00010700  0.95523900  1
  C  C128  1  0.00004900  0.50018100  0.95524000  1
  C  C129  1  0.04040300  0.54011800  0.73869600  1
  C  C130  1  0.46065700  0.04082500  0.73872100  1
  C  C131  1  0.95995100  0.46056500  0.73871600  1
  C  C132  1  0.54020200  0.96036600  0.73868900  1
  C  C133  1  0.53949800  0.03957800  0.23868700  1
  C  C134  1  0.96000500  0.53958200  0.23870900  1
  C  C135  1  0.45905900  0.96001300  0.23872100  1
  C  C136  1  0.03958000  0.45915200  0.23870000  1
  C  C137  1  0.00020000  0.50029600  0.72615900  1
  C  C138  1  0.50038900  0.00059000  0.72615900  1
  C  C139  1  0.49926800  0.99977100  0.22615700  1
  C  C140  1  0.99976300  0.49934800  0.22615800  1
  C  C141  1  0.07589000  0.58320500  0.72546100  1
  C  C142  1  0.41748000  0.07628400  0.72551900  1
  C  C143  1  0.92451800  0.41737700  0.72550900  1
  C  C144  1  0.58329500  0.92489700  0.72545000  1
  C  C145  1  0.57493400  0.08270100  0.22544900  1
  C  C146  1  0.91682200  0.57500500  0.22549600  1
  C  C147  1  0.42358700  0.91685100  0.22551600  1
  C  C148  1  0.08269300  0.42368000  0.22547100  1
  C  C149  1  0.07366000  0.58433500  0.70049500  1
  C  C150  1  0.41617500  0.07399400  0.70055600  1
  C  C151  1  0.92683800  0.41606500  0.70054700  1
  C  C152  1  0.58443300  0.92715800  0.70048500  1
  C  C153  1  0.57264400  0.08386800  0.20048600  1
  C  C154  1  0.91554900  0.57269800  0.20053300  1
  C  C155  1  0.42584600  0.91557700  0.20055200  1
  C  C156  1  0.08386100  0.42592400  0.20050700  1
  C  C157  1  0.03677600  0.54205800  0.68807400  1
  C  C158  1  0.45836200  0.03707600  0.68810400  1
  C  C159  1  0.96376200  0.45825600  0.68810000  1
  C  C160  1  0.54215900  0.96405500  0.68806900  1
  C  C161  1  0.53574700  0.04159500  0.18806900  1
  C  C162  1  0.95777300  0.53579700  0.18809200  1
  C  C163  1  0.46274600  0.95778200  0.18810000  1
  C  C164  1  0.04159700  0.46280700  0.18807900  1
  C  C165  1  0.00024700  0.50020300  0.70087000  1
  C  C166  1  0.50030400  0.00057500  0.70086900  1
  C  C167  1  0.49925200  0.99971700  0.20086800  1
  C  C168  1  0.99970900  0.49931500  0.20086900  1
  C  C169  1  0.49734700  0.94402700  0.41595800  1
  C  C170  1  0.05625200  0.49746000  0.41593000  1
  C  C171  1  0.50174800  0.05618700  0.41592500  1
  C  C172  1  0.94409300  0.50185900  0.41595500  1
  C  C173  1  0.99792300  0.44428600  0.91591000  1
  C  C174  1  0.55651300  0.99806300  0.91597300  1
  C  C175  1  0.00234200  0.55644500  0.91597800  1
  C  C176  1  0.44435500  0.00250500  0.91591300  1
  C  C177  1  0.03545700  0.54235100  0.66290100  1
  C  C178  1  0.45789200  0.03569600  0.66293200  1
  C  C179  1  0.96516000  0.45778800  0.66292900  1
  C  C180  1  0.54245000  0.96539300  0.66289600  1
  C  C181  1  0.53439600  0.04190500  0.16289700  1
  C  C182  1  0.95735700  0.53442800  0.16292100  1
  C  C183  1  0.46411000  0.95733300  0.16292800  1
  C  C184  1  0.04194100  0.46415700  0.16290600  1
  C  C185  1  0.54293200  0.03585700  0.26405800  1
  C  C186  1  0.96383300  0.54303100  0.26407800  1
  C  C187  1  0.45568700  0.96382000  0.26409300  1
  C  C188  1  0.03588000  0.45579400  0.26407400  1
  C  C189  1  0.04376000  0.53644200  0.76407100  1
  C  C190  1  0.46449700  0.04423300  0.76409100  1
  C  C191  1  0.95650400  0.46441700  0.76408400  1
  C  C192  1  0.53651200  0.95696900  0.76406300  1
  C  C193  1  0.49932700  0.99985900  0.27662200  1
  C  C194  1  0.99988900  0.49943600  0.27662300  1
  C  C195  1  0.00011400  0.50046700  0.77662400  1
  C  C196  1  0.50053700  0.00060000  0.77662300  1
  C  C197  1  0.40921900  0.93290100  0.27733100  1
  C  C198  1  0.06685900  0.40933600  0.27729700  1
  C  C199  1  0.58944000  0.06681500  0.27726200  1
  C  C200  1  0.93292500  0.58954100  0.27729800  1
  C  C201  1  0.90998600  0.43353400  0.77730800  1
  C  C202  1  0.56747700  0.91047600  0.77727200  1
  C  C203  1  0.09022600  0.56742100  0.77728900  1
  C  C204  1  0.43361000  0.09073200  0.77732400  1
  C  C205  1  0.40826600  0.93533000  0.30229500  1
  C  C206  1  0.06453300  0.40839300  0.30226200  1
  C  C207  1  0.59046200  0.06446700  0.30222600  1
  C  C208  1  0.93537800  0.59057700  0.30226000  1
  C  C209  1  0.90896800  0.43598600  0.80227000  1
  C  C210  1  0.56514200  0.90948000  0.80223600  1
  C  C211  1  0.09118300  0.56509700  0.80225500  1
  C  C212  1  0.43605300  0.09171100  0.80228700  1
  C  C213  1  0.45401500  0.96781800  0.31471200  1
  C  C214  1  0.03209200  0.45414500  0.31469600  1
  C  C215  1  0.54474500  0.03202200  0.31467700  1
  C  C216  1  0.96787900  0.54486900  0.31469500  1
  C  C217  1  0.95470000  0.46846600  0.81470000  1
  C  C218  1  0.53270600  0.95521100  0.81468300  1
  C  C219  1  0.04543900  0.53265700  0.81469300  1
  C  C220  1  0.46852700  0.04595900  0.81470800  1
  C  C221  1  0.49936200  0.99990000  0.30191100  1
  C  C222  1  0.99995300  0.49948300  0.30191200  1
  C  C223  1  0.00008300  0.50053300  0.80191300  1
  C  C224  1  0.50059300  0.00059200  0.80191300  1
  C  C225  1  0.54502500  0.03067000  0.33984900  1
  C  C226  1  0.96933200  0.54515800  0.33986600  1
  C  C227  1  0.45380600  0.96925400  0.33988400  1
  C  C228  1  0.03075700  0.45394400  0.33986800  1
  C  C229  1  0.04567400  0.53129300  0.83986600  1
  C  C230  1  0.46994600  0.04617400  0.83988000  1
  C  C231  1  0.95444700  0.46989000  0.83987100  1
  C  C232  1  0.53133600  0.95493800  0.83985600  1
  C  C233  1  0.09087200  0.29738500  0.46981800  1
  C  C234  1  0.70204500  0.09087800  0.46976500  1
  C  C235  1  0.90925900  0.70142300  0.46983600  1
  C  C236  1  0.29801400  0.90917500  0.46989400  1
  C  C237  1  0.59263100  0.79781100  0.97050900  1
  C  C238  1  0.20212500  0.59261600  0.97079300  1
  C  C239  1  0.41029400  0.20186600  0.96950400  1
  C  C240  1  0.79811200  0.41011200  0.96922700  1
  N  N1  1  0.49943200  0.99998400  0.35212100  1
  N  N2  1  0.00007100  0.49957100  0.35212200  1
  N  N3  1  0.00006600  0.50059000  0.85212300  1
  N  N4  1  0.50064100  0.00053500  0.85212200  1
  N  N5  1  0.00032300  0.50003000  0.65066000  1
  N  N6  1  0.50012600  0.00053200  0.65065900  1
  N  N7  1  0.49926900  0.99957600  0.15065800  1
  N  N8  1  0.99963900  0.49929800  0.15065800  1
  N  N9  1  0.07387400  0.33787000  0.45018600  1
  N  N10  1  0.66155300  0.07385700  0.45013800  1
  N  N11  1  0.92641300  0.66111500  0.45017000  1
  N  N12  1  0.33831700  0.92630400  0.45022300  1
  N  N13  1  0.57680600  0.83829200  0.95072900  1
  N  N14  1  0.16179800  0.57678100  0.95096800  1
  N  N15  1  0.42809300  0.16156400  0.94992200  1
  N  N16  1  0.83856800  0.42791000  0.94969300  1
  O  O1  1  0.09110900  0.00439800  0.47880400  1
  O  O2  1  0.99978200  0.09120800  0.47878500  1
  O  O3  1  0.90832000  0.99975900  0.47881600  1
  O  O4  1  0.00442200  0.90841700  0.47883400  1
  O  O5  1  0.59125700  0.50439000  0.97863000  1
  O  O6  1  0.50040900  0.59125500  0.97857800  1
  O  O7  1  0.40846200  0.50029300  0.97898900  1
  O  O8  1  0.50451600  0.40846000  0.97903800  1
  O  O9  1  0.09113400  0.00161000  0.52083000  1
  O  O10  1  0.00250200  0.09115300  0.52081000  1
  O  O11  1  0.90831200  0.00254800  0.52073900  1
  O  O12  1  0.00156400  0.90833100  0.52075800  1
  O  O13  1  0.59131000  0.49709200  0.02056400  1
  O  O14  1  0.49755000  0.59123800  0.02059200  1
  O  O15  1  0.40849400  0.49746800  0.02100400  1
  O  O16  1  0.49718300  0.40842200  0.02097100  1
  O  O17  1  0.59178400  0.05898500  0.35213300  1
  O  O18  1  0.94106100  0.59191800  0.35216400  1
  O  O19  1  0.40708500  0.94097600  0.35220200  1
  O  O20  1  0.05908600  0.40722800  0.35217100  1
  O  O21  1  0.09241500  0.55959600  0.85216500  1
  O  O22  1  0.44166800  0.09290400  0.85219300  1
  O  O23  1  0.90769900  0.44161300  0.85217400  1
  O  O24  1  0.55962500  0.90817100  0.85214400  1
  O  O25  1  0.94803300  0.48367100  0.53614200  1
  O  O26  1  0.51586200  0.94806600  0.53614300  1
  O  O27  1  0.05260000  0.51580900  0.53612300  1
  O  O28  1  0.48370200  0.05262700  0.53612000  1
  O  O29  1  0.44748500  0.98355000  0.03606700  1
  O  O30  1  0.01584400  0.44742900  0.03609400  1
  O  O31  1  0.55204800  0.01570900  0.03619300  1
  O  O32  1  0.98364100  0.55198000  0.03616900  1
  O  O33  1  0.94662600  0.41101600  0.49474300  1
  O  O34  1  0.58842600  0.94663600  0.49472000  1
  O  O35  1  0.05391900  0.58843400  0.49471500  1
  O  O36  1  0.41098500  0.05388900  0.49473500  1
  O  O37  1  0.44637400  0.91117800  0.99459000  1
  O  O38  1  0.08862000  0.44633900  0.99472400  1
  O  O39  1  0.55367700  0.08857600  0.99485200  1
  O  O40  1  0.91117800  0.55356700  0.99472000  1
  O  O41  1  0.05056100  0.40906900  0.50800200  1
  O  O42  1  0.59037800  0.05058500  0.50796400  1
  O  O43  1  0.95001300  0.59038300  0.50800800  1
  O  O44  1  0.40908700  0.94999600  0.50804400  1
  O  O45  1  0.55019800  0.90914000  0.00797700  1
  O  O46  1  0.09048400  0.55016600  0.00811000  1
  O  O47  1  0.44967600  0.09045500  0.00804400  1
  O  O48  1  0.90921200  0.44956800  0.00791300  1
  O  O49  1  0.94864500  0.51779900  0.46665900  1
  O  O50  1  0.48158000  0.94860500  0.46667200  1
  O  O51  1  0.05184000  0.48162400  0.46664500  1
  O  O52  1  0.51773300  0.05180800  0.46663100  1
  O  O53  1  0.44860500  0.01815200  0.96662100  1
  O  O54  1  0.98191900  0.44851700  0.96659700  1
  O  O55  1  0.55178800  0.98193600  0.96668400  1
  O  O56  1  0.01809400  0.55171500  0.96671000  1
  O  O57  1  0.06834300  0.58595500  0.65058500  1
  O  O58  1  0.41420400  0.06855500  0.65065000  1
  O  O59  1  0.93231100  0.41409900  0.65064400  1
  O  O60  1  0.58605100  0.93251200  0.65057700  1
  O  O61  1  0.56725800  0.08552700  0.15058100  1
  O  O62  1  0.91368500  0.56728100  0.15062800  1
  O  O63  1  0.43125000  0.91365100  0.15064300  1
  O  O64  1  0.08558400  0.43130200  0.15059800  1
  O  O65  1  0.14596300  0.28438800  0.47332300  1
  O  O66  1  0.71503600  0.14597400  0.47326200  1
  O  O67  1  0.85410000  0.71400900  0.47340400  1
  O  O68  1  0.28542400  0.85402100  0.47347200  1
  O  O69  1  0.64750900  0.78492000  0.97453600  1
  O  O70  1  0.21498500  0.64749600  0.97483100  1
  O  O71  1  0.35503700  0.21458900  0.97276100  1
  O  O72  1  0.78538000  0.35485400  0.97247400  1
