# generated using pymatgen
data_FeH10(C9O4)2
_symmetry_space_group_name_H-M   'P 1'
_cell_length_a   15.51101300
_cell_length_b   10.16013400
_cell_length_c   13.35461000
_cell_angle_alpha   97.48200800
_cell_angle_beta   102.10723700
_cell_angle_gamma   109.22466000
_symmetry_Int_Tables_number   1
_chemical_formula_structural   FeH10(C9O4)2
_chemical_formula_sum   'Fe2 H20 C36 O16'
_cell_volume   1897.23630823
_cell_formula_units_Z   2
loop_
 _symmetry_equiv_pos_site_id
 _symmetry_equiv_pos_as_xyz
  1  'x, y, z'
loop_
 _atom_site_type_symbol
 _atom_site_label
 _atom_site_symmetry_multiplicity
 _atom_site_fract_x
 _atom_site_fract_y
 _atom_site_fract_z
 _atom_site_occupancy
  Fe  Fe1  1  0.50085000  0.99306300  0.77865700  1
  Fe  Fe2  1  0.51964800  0.98228100  0.23355800  1
  H  H1  1  0.79025100  0.97087500  0.24492000  1
  H  H2  1  0.94551400  0.99738300  0.22213000  1
  H  H3  1  0.84954500  0.00772100  0.90113300  1
  H  H4  1  0.05993900  0.05881400  0.12309500  1
  H  H5  1  0.96240000  0.91915300  0.89165000  1
  H  H6  1  0.07274300  0.96434100  0.78912800  1
  H  H7  1  0.22655600  0.98607200  0.76374000  1
  H  H8  1  0.17724100  0.98325000  0.11455500  1
  H  H9  1  0.55470700  0.17665700  0.54593300  1
  H  H10  1  0.56255100  0.50619400  0.32178600  1
  H  H11  1  0.47029000  0.80433200  0.46364800  1
  H  H12  1  0.34508600  0.34423700  0.65846700  1
  H  H13  1  0.38102100  0.52690700  0.67652100  1
  H  H14  1  0.41743600  0.34050800  0.82253100  1
  H  H15  1  0.56771800  0.63393200  0.89708600  1
  H  H16  1  0.59296900  0.50911900  0.80961800  1
  H  H17  1  0.56458900  0.46727800  0.92741200  1
  H  H18  1  0.41042400  0.63900300  0.85608100  1
  H  H19  1  0.40917700  0.52566600  0.94992800  1
  H  H20  1  0.31264000  0.47080800  0.83227700  1
  C  C1  1  0.80224800  0.97826400  0.16864100  1
  C  C2  1  0.89003500  0.99285900  0.15592800  1
  C  C3  1  0.90680100  0.99798600  0.05932300  1
  C  C4  1  0.83505200  0.99491600  0.97555000  1
  C  C5  1  0.74582100  0.98235100  0.98769400  1
  C  C6  1  0.72925900  0.96960300  0.08560500  1
  C  C7  1  0.00279200  0.01252100  0.05173200  1
  C  C8  1  0.02004600  0.96612600  0.96256900  1
  C  C9  1  0.12965300  0.97424900  0.85568500  1
  C  C10  1  0.21652400  0.98585500  0.84141200  1
  C  C11  1  0.29122500  0.00136900  0.92473600  1
  C  C12  1  0.27771900  0.99876800  0.02463900  1
  C  C13  1  0.18932200  0.98875200  0.03833400  1
  C  C14  1  0.11557300  0.97876700  0.95403400  1
  C  C15  1  0.48570200  0.21529500  0.69344200  1
  C  C16  1  0.38105300  0.01734700  0.90040600  1
  C  C17  1  0.67390300  0.99052500  0.89834300  1
  C  C18  1  0.49731900  0.74700900  0.64924800  1
  C  C19  1  0.53360600  0.23901100  0.36042200  1
  C  C20  1  0.35186000  0.99701700  0.11453300  1
  C  C21  1  0.63904800  0.95382900  0.10948900  1
  C  C22  1  0.52121400  0.73624000  0.30067400  1
  C  C23  1  0.53482900  0.33039400  0.45697400  1
  C  C24  1  0.53966600  0.27293700  0.54482300  1
  C  C25  1  0.50643700  0.31615100  0.62494600  1
  C  C26  1  0.47752400  0.43214700  0.62543900  1
  C  C27  1  0.49544700  0.51474000  0.54892400  1
  C  C28  1  0.51989400  0.45889100  0.46176400  1
  C  C29  1  0.53166600  0.53421500  0.38235200  1
  C  C30  1  0.50542700  0.65035400  0.37973500  1
  C  C31  1  0.48039800  0.70420100  0.46343900  1
  C  C32  1  0.48571600  0.64801800  0.55235100  1
  C  C33  1  0.40933300  0.44266000  0.69011500  1
  C  C34  1  0.44158000  0.45033500  0.80905500  1
  C  C35  1  0.54803800  0.51968100  0.86198000  1
  C  C36  1  0.39032000  0.52682300  0.86529600  1
  O  O1  1  0.55492600  0.18241000  0.74558100  1
  O  O2  1  0.45726400  0.13089800  0.94724100  1
  O  O3  1  0.39787800  0.12741700  0.67663400  1
  O  O4  1  0.37959600  0.93144100  0.81740300  1
  O  O5  1  0.59103800  0.98810600  0.90880800  1
  O  O6  1  0.69339500  0.00306100  0.80823800  1
  O  O7  1  0.47979700  0.86362000  0.64164500  1
  O  O8  1  0.53938300  0.73302300  0.74053400  1
  O  O9  1  0.54262000  0.11678400  0.36888900  1
  O  O10  1  0.50460000  0.26089200  0.26673600  1
  O  O11  1  0.43197900  0.98885500  0.10187500  1
  O  O12  1  0.33582800  0.99635300  0.20717000  1
  O  O13  1  0.60638200  0.78553500  0.28691800  1
  O  O14  1  0.64150000  0.03440800  0.19584300  1
  O  O15  1  0.45999700  0.79629700  0.26913300  1
  O  O16  1  0.56150800  0.84443400  0.05869700  1
