# generated using pymatgen
data_CuH9C13NO4
_symmetry_space_group_name_H-M   'P 1'
_cell_length_a   10.71477800
_cell_length_b   10.71515100
_cell_length_c   9.35999800
_cell_angle_alpha   90.00309300
_cell_angle_beta   89.99134000
_cell_angle_gamma   90.00000000
_symmetry_Int_Tables_number   1
_chemical_formula_structural   CuH9C13NO4
_chemical_formula_sum   'Cu2 H18 C26 N2 O8'
_cell_volume   1074.62570146
_cell_formula_units_Z   2
loop_
 _symmetry_equiv_pos_site_id
 _symmetry_equiv_pos_as_xyz
  1  'x, y, z'
loop_
 _atom_site_type_symbol
 _atom_site_label
 _atom_site_symmetry_multiplicity
 _atom_site_fract_x
 _atom_site_fract_y
 _atom_site_fract_z
 _atom_site_occupancy
  Cu  Cu1  1  0.99964400  0.99998900  0.14137100  1
  Cu  Cu2  1  0.00035500  0.00001100  0.85862900  1
  H  H1  1  0.42171300  0.18513600  0.88005000  1
  H  H2  1  0.57828700  0.81486400  0.11995000  1
  H  H3  1  0.57832700  0.18377500  0.12264900  1
  H  H4  1  0.42167200  0.81622500  0.87735100  1
  H  H5  1  0.42415800  0.99865300  0.24467300  1
  H  H6  1  0.57584200  0.00134700  0.75532700  1
  H  H7  1  0.81416200  0.42219100  0.11904000  1
  H  H8  1  0.18583800  0.57780800  0.88096000  1
  H  H9  1  0.99713700  0.57686100  0.24417900  1
  H  H10  1  0.00286300  0.42313900  0.75582100  1
  H  H11  1  0.18305600  0.42229000  0.12458400  1
  H  H12  1  0.81694300  0.57770900  0.87541600  1
  H  H13  1  0.13414500  0.15460100  0.40563500  1
  H  H14  1  0.86585400  0.84539800  0.59436500  1
  H  H15  1  0.93332900  0.19400900  0.59295900  1
  H  H16  1  0.06667100  0.80599100  0.40704100  1
  H  H17  1  0.79818600  0.03928800  0.40838900  1
  H  H18  1  0.20181300  0.96071200  0.59161100  1
  C  C1  1  0.99994700  0.75830800  0.99989900  1
  C  C2  1  0.00005200  0.24169100  0.00010100  1
  C  C3  1  0.24169300  0.00001800  0.00083000  1
  C  C4  1  0.75830700  0.99998200  0.99917000  1
  C  C5  1  0.54100900  0.10034700  0.06704200  1
  C  C6  1  0.45899100  0.89965200  0.93295800  1
  C  C7  1  0.45901200  0.10108300  0.93441400  1
  C  C8  1  0.54098700  0.89891700  0.06558600  1
  C  C9  1  0.38033200  0.00000900  0.00086900  1
  C  C10  1  0.61966800  0.99999100  0.99913100  1
  C  C11  1  0.46001500  0.99927300  0.13351900  1
  C  C12  1  0.53998400  0.00072600  0.86648100  1
  C  C13  1  0.99845700  0.54055300  0.13323000  1
  C  C14  1  0.00154300  0.45944600  0.86677000  1
  C  C15  1  0.89851300  0.45925900  0.06504600  1
  C  C16  1  0.10148700  0.54074100  0.93495400  1
  C  C17  1  0.00003400  0.38032900  0.99989400  1
  C  C18  1  0.99996500  0.61967100  0.00010600  1
  C  C19  1  0.09997900  0.45931200  0.06805000  1
  C  C20  1  0.90002100  0.54068800  0.93195000  1
  C  C21  1  0.96479200  0.10287100  0.54993300  1
  C  C22  1  0.03520800  0.89712900  0.45006700  1
  C  C23  1  0.07114300  0.08200900  0.44958200  1
  C  C24  1  0.92885700  0.91799100  0.55041800  1
  C  C25  1  0.89303400  0.02070400  0.45067800  1
  C  C26  1  0.10696600  0.97929600  0.54932200  1
  N  N1  1  0.99941600  0.99985300  0.35523900  1
  N  N2  1  0.00058300  0.00014600  0.64476100  1
  O  O1  1  0.99947400  0.81865500  0.12185800  1
  O  O2  1  0.00052600  0.18134400  0.87814200  1
  O  O3  1  0.00044000  0.81852700  0.87782100  1
  O  O4  1  0.99956000  0.18147300  0.12217900  1
  O  O5  1  0.18114900  0.99990800  0.12270300  1
  O  O6  1  0.81885100  0.00009200  0.87729700  1
  O  O7  1  0.18166800  0.00012400  0.87867700  1
  O  O8  1  0.81833200  0.99987500  0.12132300  1
