# generated using pymatgen
data_ZnH9C11NO4
_symmetry_space_group_name_H-M   'P 1'
_cell_length_a   10.01994800
_cell_length_b   10.94262000
_cell_length_c   11.24243300
_cell_angle_alpha   89.98843500
_cell_angle_beta   92.45143400
_cell_angle_gamma   80.92061800
_symmetry_Int_Tables_number   1
_chemical_formula_structural   ZnH9C11NO4
_chemical_formula_sum   'Zn2 H18 C22 N2 O8'
_cell_volume   1216.08205211
_cell_formula_units_Z   2
loop_
 _symmetry_equiv_pos_site_id
 _symmetry_equiv_pos_as_xyz
  1  'x, y, z'
loop_
 _atom_site_type_symbol
 _atom_site_label
 _atom_site_symmetry_multiplicity
 _atom_site_fract_x
 _atom_site_fract_y
 _atom_site_fract_z
 _atom_site_occupancy
  Zn  Zn1  1  0.63809100  0.48311500  0.47778000  1
  Zn  Zn2  1  0.33611900  0.52768600  0.51961900  1
  H  H1  1  0.41274900  0.13420200  0.66597400  1
  H  H2  1  0.55492600  0.21696100  0.28161100  1
  H  H3  1  0.61998100  0.09306500  0.11078800  1
  H  H4  1  0.62004400  0.86913600  0.11419700  1
  H  H5  1  0.55637700  0.76912600  0.28781000  1
  H  H6  1  0.36552700  0.52436000  0.90331300  1
  H  H7  1  0.60868700  0.48593300  0.09408400  1
  H  H8  1  0.67425600  0.47344500  0.89040100  1
  H  H9  1  0.29994600  0.53651800  0.10699800  1
  H  H10  1  0.87169000  0.58261600  0.57285000  1
  H  H11  1  0.10252500  0.42832000  0.42472400  1
  H  H12  1  0.88264600  0.39070500  0.38956300  1
  H  H13  1  0.09163100  0.62024400  0.60799000  1
  H  H14  1  0.59424400  0.75950900  0.72902100  1
  H  H15  1  0.60661200  0.90829600  0.79437200  1
  H  H16  1  0.51219300  0.80339500  0.86579100  1
  H  H17  1  0.35939700  0.97065500  0.76587600  1
  H  H18  1  0.34184800  0.82847800  0.69567500  1
  C  C1  1  0.43419900  0.51552400  0.26871900  1
  C  C2  1  0.48466400  0.26679600  0.49505900  1
  C  C3  1  0.54000100  0.49496400  0.72868800  1
  C  C4  1  0.48916100  0.74441100  0.50104100  1
  C  C5  1  0.55799100  0.11834700  0.28931800  1
  C  C6  1  0.59396200  0.04873500  0.19062000  1
  C  C7  1  0.59397000  0.92345900  0.19255400  1
  C  C8  1  0.55861700  0.86707000  0.29329200  1
  C  C9  1  0.52489500  0.93549300  0.39512400  1
  C  C10  1  0.52399700  0.06262900  0.39254000  1
  C  C11  1  0.48370100  0.13321000  0.49125000  1
  C  C12  1  0.44245700  0.07758500  0.58987000  1
  C  C13  1  0.44632000  0.95117000  0.59514300  1
  C  C14  1  0.48812200  0.87890400  0.49754100  1
  C  C15  1  0.40457000  0.51994600  0.13982500  1
  C  C16  1  0.50353400  0.50303500  0.06294500  1
  C  C17  1  0.56963400  0.49022900  0.85758100  1
  C  C18  1  0.47067300  0.50713800  0.93446200  1
  C  C19  1  0.06008800  0.49564500  0.48909400  1
  C  C20  1  0.91413600  0.51529600  0.50847800  1
  C  C21  1  0.41187700  0.89626900  0.70991800  1
  C  C22  1  0.53961900  0.83779800  0.77877200  1
  N  N1  1  0.13799300  0.55799800  0.54822500  1
  N  N2  1  0.83626300  0.45289300  0.44937100  1
  O  O1  1  0.56104500  0.49679700  0.30790200  1
  O  O2  1  0.33183600  0.52976600  0.33925200  1
  O  O3  1  0.59967600  0.30689700  0.48071400  1
  O  O4  1  0.37061500  0.34032800  0.51309100  1
  O  O5  1  0.64227600  0.48012300  0.65813200  1
  O  O6  1  0.41324500  0.51465500  0.68947300  1
  O  O7  1  0.60362700  0.67043400  0.48518000  1
  O  O8  1  0.37447700  0.70391500  0.51570100  1
