# generated using pymatgen
data_Zn3H9C34ClO12
_symmetry_space_group_name_H-M   'P 1'
_cell_length_a   27.31068600
_cell_length_b   27.68793400
_cell_length_c   27.34256100
_cell_angle_alpha   109.74254800
_cell_angle_beta   110.61194800
_cell_angle_gamma   108.30157300
_symmetry_Int_Tables_number   1
_chemical_formula_structural   Zn3H9C34ClO12
_chemical_formula_sum   'Zn6 H18 C68 Cl2 O24'
_cell_volume   15863.52471945
_cell_formula_units_Z   2
loop_
 _symmetry_equiv_pos_site_id
 _symmetry_equiv_pos_as_xyz
  1  'x, y, z'
loop_
 _atom_site_type_symbol
 _atom_site_label
 _atom_site_symmetry_multiplicity
 _atom_site_fract_x
 _atom_site_fract_y
 _atom_site_fract_z
 _atom_site_occupancy
  Zn  Zn1  1  0.00246400  0.04767900  0.54990600  1
  Zn  Zn2  1  0.00138300  0.95211600  0.45327700  1
  Zn  Zn3  1  0.42850100  0.95840000  0.97980600  1
  Zn  Zn4  1  0.52295300  0.04160900  0.97024400  1
  Zn  Zn5  1  0.55797000  0.49958800  0.55583800  1
  Zn  Zn6  1  0.45917400  0.50262000  0.46264800  1
  H  H1  1  0.16977800  0.16165200  0.40663100  1
  H  H2  1  0.24775500  0.23707100  0.40724600  1
  H  H3  1  0.34259100  0.33356500  0.59998000  1
  H  H4  1  0.26461600  0.25814600  0.59936500  1
  H  H5  1  0.72973600  0.90708300  0.23146300  1
  H  H6  1  0.65076200  0.90732000  0.15260900  1
  H  H7  1  0.74734400  0.09485600  0.24777500  1
  H  H8  1  0.84191200  0.74441500  0.50696900  1
  H  H9  1  0.76808400  0.66974400  0.51110500  1
  H  H10  1  0.66897900  0.76179500  0.50979800  1
  H  H11  1  0.74281900  0.83647800  0.50566300  1
  H  H12  1  0.57444400  0.82301500  0.84861200  1
  H  H13  1  0.58845100  0.74772700  0.78467200  1
  H  H14  1  0.38587000  0.72362500  0.72290300  1
  H  H15  1  0.49953200  0.27787500  0.15442100  1
  H  H16  1  0.50533800  0.35322700  0.23980500  1
  H  H17  1  0.50817700  0.24995000  0.32521400  1
  H  H18  1  0.50240200  0.17472900  0.23997900  1
  C  C1  1  0.08372500  0.08099700  0.50223900  1
  C  C2  1  0.08686600  0.99916400  0.58524900  1
  C  C3  1  0.92022800  0.91879400  0.50104700  1
  C  C4  1  0.91696600  0.00062900  0.41791300  1
  C  C5  1  0.13394500  0.99925000  0.63226200  1
  C  C6  1  0.17323800  0.99919100  0.67142500  1
  C  C7  1  0.21949500  0.99904600  0.71748100  1
  C  C8  1  0.25878300  0.99891900  0.75658100  1
  C  C9  1  0.30507400  0.99882900  0.80265800  1
  C  C10  1  0.34442900  0.99888400  0.84187100  1
  C  C11  1  0.25149300  0.24159800  0.44943600  1
  C  C12  1  0.29988000  0.28970800  0.50365200  1
  C  C13  1  0.30467800  0.29571300  0.55752500  1
  C  C14  1  0.26099000  0.25350900  0.55717900  1
  C  C15  1  0.21257900  0.20542100  0.50296000  1
  C  C16  1  0.20780400  0.19939400  0.44909000  1
  C  C17  1  0.34489000  0.33398000  0.50400600  1
  C  C18  1  0.16710400  0.16161900  0.50260300  1
  C  C19  1  0.12896200  0.12481400  0.50237200  1
  C  C20  1  0.38245500  0.37150300  0.50438400  1
  C  C21  1  0.68922400  0.94866900  0.19073400  1
  C  C22  1  0.69336800  0.00110900  0.19452400  1
  C  C23  1  0.74316900  0.05340700  0.24388800  1
  C  C24  1  0.78788200  0.05329900  0.28853000  1
  C  C25  1  0.78371100  0.00083400  0.28472300  1
  C  C26  1  0.73391500  0.94853500  0.23535500  1
  C  C27  1  0.64635800  0.00122200  0.14758300  1
  C  C28  1  0.83067600  0.00065600  0.33164200  1
  C  C29  1  0.86990900  0.00056000  0.37085400  1
  C  C30  1  0.60703500  0.00115700  0.10829500  1
  C  C31  1  0.76261800  0.70644000  0.51000400  1
  C  C32  1  0.71425100  0.71143400  0.51087600  1
  C  C33  1  0.70703800  0.75806400  0.50927000  1
  C  C34  1  0.74834100  0.79983900  0.50687700  1
  C  C35  1  0.79671700  0.79484700  0.50602100  1
  C  C36  1  0.80391400  0.74820900  0.50761000  1
  C  C37  1  0.67097500  0.66762400  0.51265800  1
  C  C38  1  0.83983500  0.83839500  0.50383200  1
  C  C39  1  0.87634000  0.87505100  0.50231500  1
  C  C40  1  0.63435900  0.63041500  0.51351700  1
  C  C41  1  0.46724900  0.90945200  0.89418800  1
  C  C42  1  0.39164200  0.99923700  0.88901400  1
  C  C43  1  0.48431900  0.09051100  0.05601100  1
  C  C44  1  0.55981300  0.00077500  0.06106000  1
  C  C45  1  0.50735500  0.42376000  0.42176000  1
  C  C46  1  0.42675700  0.41669000  0.50498800  1
  C  C47  1  0.50975900  0.57844400  0.59673600  1
  C  C48  1  0.59033900  0.58547900  0.51344400  1
  C  C49  1  0.54395900  0.74210100  0.77190100  1
  C  C50  1  0.49478700  0.69376000  0.71888600  1
  C  C51  1  0.43790900  0.68627700  0.70129100  1
  C  C52  1  0.43011400  0.72823700  0.73672300  1
  C  C53  1  0.47940700  0.77710000  0.78913200  1
  C  C54  1  0.53615400  0.78407200  0.80735100  1
  C  C55  1  0.50294100  0.65326400  0.67901700  1
  C  C56  1  0.47226400  0.82226500  0.82420800  1
  C  C57  1  0.46843600  0.86157300  0.85507300  1
  C  C58  1  0.50764900  0.61921100  0.64280300  1
  C  C59  1  0.50518200  0.31413800  0.23978900  1
  C  C60  1  0.50733300  0.30556100  0.28702900  1
  C  C61  1  0.50678500  0.25609200  0.28784600  1
  C  C62  1  0.50354200  0.21425900  0.24042200  1
  C  C63  1  0.50086400  0.22251000  0.19293100  1
  C  C64  1  0.50192100  0.27222200  0.19227300  1
  C  C65  1  0.50821600  0.34749300  0.33490300  1
  C  C66  1  0.49544900  0.17791100  0.14339500  1
  C  C67  1  0.49042300  0.13869000  0.10266000  1
  C  C68  1  0.50813400  0.38242000  0.37491200  1
  Cl  Cl1  1  0.37617800  0.62495900  0.63273300  1
  Cl  Cl2  1  0.85016900  0.12030000  0.35026400  1
  O  O1  1  0.06379900  0.09861300  0.53812500  1
  O  O2  1  0.06479000  0.02542700  0.46652900  1
  O  O3  1  0.06756200  0.03645300  0.60140400  1
  O  O4  1  0.06503700  0.96169800  0.52809700  1
  O  O5  1  0.93912800  0.97436200  0.53671500  1
  O  O6  1  0.94010700  0.90117300  0.46511200  1
  O  O7  1  0.93880600  0.03808500  0.47507300  1
  O  O8  1  0.93629100  0.96335800  0.40179200  1
  O  O9  1  0.43388300  0.89838400  0.91766800  1
  O  O10  1  0.50391200  0.96230600  0.90870100  1
  O  O11  1  0.37634100  0.96677800  0.91249800  1
  O  O12  1  0.44810900  0.03246100  0.90702700  1
  O  O13  1  0.44771900  0.03767400  0.04154900  1
  O  O14  1  0.51774700  0.10162900  0.03258600  1
  O  O15  1  0.50330500  0.96753900  0.04301100  1
  O  O16  1  0.57514100  0.03325100  0.03756700  1
  O  O17  1  0.54582500  0.44182300  0.47765400  1
  O  O18  1  0.46849400  0.44164500  0.40608100  1
  O  O19  1  0.48365500  0.43665600  0.54228000  1
  O  O20  1  0.40806200  0.43658600  0.46902200  1
  O  O21  1  0.54865200  0.56056800  0.61247600  1
  O  O22  1  0.47134900  0.56035900  0.54086100  1
  O  O23  1  0.60906000  0.56559700  0.54945000  1
  O  O24  1  0.53347300  0.56552300  0.47619300  1
