# generated using pymatgen
data_ZnH26C35NO6
_symmetry_space_group_name_H-M   'P 1'
_cell_length_a   11.28073800
_cell_length_b   19.45830100
_cell_length_c   18.26746900
_cell_angle_alpha   89.98919300
_cell_angle_beta   102.18610700
_cell_angle_gamma   90.00698900
_symmetry_Int_Tables_number   1
_chemical_formula_structural   ZnH26C35NO6
_chemical_formula_sum   'Zn2 H52 C70 N2 O12'
_cell_volume   3919.43035236
_cell_formula_units_Z   2
loop_
 _symmetry_equiv_pos_site_id
 _symmetry_equiv_pos_as_xyz
  1  'x, y, z'
loop_
 _atom_site_type_symbol
 _atom_site_label
 _atom_site_symmetry_multiplicity
 _atom_site_fract_x
 _atom_site_fract_y
 _atom_site_fract_z
 _atom_site_occupancy
  Zn  Zn1  1  0.49721900  0.50145600  0.58268200  1
  Zn  Zn2  1  0.49057800  0.49826000  0.41515400  1
  H  H1  1  0.88175900  0.50044000  0.43040700  1
  H  H2  1  0.10599200  0.49943700  0.56733600  1
  H  H3  1  0.91147900  0.49761500  0.60086100  1
  H  H4  1  0.07636200  0.50073200  0.39686400  1
  H  H5  1  0.38713900  0.71669400  0.38231900  1
  H  H6  1  0.36246600  0.28314700  0.57246600  1
  H  H7  1  0.37512200  0.84109300  0.38305200  1
  H  H8  1  0.35242200  0.15849100  0.56754000  1
  H  H9  1  0.59673000  0.84360700  0.60465500  1
  H  H10  1  0.62435200  0.15696800  0.43539900  1
  H  H11  1  0.59143900  0.71978300  0.60717900  1
  H  H12  1  0.62120900  0.28163800  0.43297600  1
  H  H13  1  0.46610200  0.93220800  0.60682500  1
  H  H14  1  0.49661400  0.06858700  0.38598600  1
  H  H15  1  0.64283300  0.57244000  0.85707800  1
  H  H16  1  0.35252300  0.42239600  0.14175300  1
  H  H17  1  0.35039500  0.43085300  0.81018000  1
  H  H18  1  0.62805700  0.57426900  0.18602400  1
  H  H19  1  0.35620300  0.43500800  0.67802600  1
  H  H20  1  0.62262800  0.57048300  0.31851000  1
  H  H21  1  0.30116800  0.50004500  0.90575900  1
  H  H22  1  0.68507600  0.50036800  0.09257800  1
  H  H23  1  0.29756700  0.49862300  0.03785100  1
  H  H24  1  0.68918900  0.50052300  0.96064700  1
  H  H25  1  0.56552400  0.99946200  0.71179400  1
  H  H26  1  0.40111600  0.00567100  0.69301500  1
  H  H27  1  0.67009600  0.12326100  0.74223900  1
  H  H28  1  0.68862300  0.21103900  0.84055700  1
  H  H29  1  0.52663700  0.22511100  0.91076400  1
  H  H30  1  0.34585500  0.15124300  0.88249400  1
  H  H31  1  0.32633100  0.06361500  0.78447800  1
  H  H32  1  0.61058500  0.99984500  0.31658100  1
  H  H33  1  0.44761700  0.99578000  0.28105800  1
  H  H34  1  0.71245700  0.87456900  0.31998600  1
  H  H35  1  0.74512500  0.78640600  0.23012900  1
  H  H36  1  0.60086300  0.77444300  0.10944100  1
  H  H37  1  0.42366000  0.85081700  0.07866100  1
  H  H38  1  0.39008400  0.93883900  0.16788000  1
  H  H39  1  0.81451200  0.57973800  0.80221700  1
  H  H40  1  0.72023300  0.65632100  0.79153100  1
  H  H41  1  0.74177800  0.62702500  0.60844900  1
  H  H42  1  0.88437800  0.68309000  0.54488500  1
  H  H43  1  0.06709900  0.73915100  0.61743400  1
  H  H44  1  0.10629000  0.73853100  0.75507600  1
  H  H45  1  0.96369100  0.68165600  0.81991100  1
  H  H46  1  0.30578700  0.33044800  0.21250800  1
  H  H47  1  0.18947800  0.39660700  0.19786400  1
  H  H48  1  0.25921100  0.36829700  0.39271600  1
  H  H49  1  0.13707700  0.29885300  0.45925500  1
  H  H50  1  0.98974100  0.21595800  0.39111400  1
  H  H51  1  0.96527800  0.20319300  0.25480500  1
  H  H52  1  0.08766700  0.27314500  0.18689800  1
  C  C1  1  0.49317500  0.36554900  0.50238600  1
  C  C2  1  0.49419700  0.63430900  0.49543200  1
  C  C3  1  0.25674200  0.50066000  0.47200900  1
  C  C4  1  0.73103800  0.49882200  0.52578300  1
  C  C5  1  0.12378300  0.50064000  0.45502100  1
  C  C6  1  0.86400700  0.49837500  0.54272200  1
  C  C7  1  0.06041000  0.49990600  0.50884500  1
  C  C8  1  0.92735100  0.49952100  0.48888900  1
  C  C9  1  0.43348600  0.74454700  0.43123200  1
  C  C10  1  0.42028100  0.25532000  0.54252200  1
  C  C11  1  0.42821300  0.81544800  0.43146900  1
  C  C12  1  0.41595800  0.18447500  0.54033100  1
  C  C13  1  0.48798200  0.85258000  0.49313500  1
  C  C14  1  0.48982500  0.14774100  0.50257300  1
  C  C15  1  0.54746200  0.81687400  0.55579200  1
  C  C16  1  0.56399000  0.18366900  0.46442200  1
  C  C17  1  0.54632700  0.74611300  0.55701200  1
  C  C18  1  0.56327700  0.25450100  0.46342600  1
  C  C19  1  0.49208600  0.70956000  0.49421600  1
  C  C20  1  0.49288000  0.29049700  0.50335000  1
  C  C21  1  0.47728300  0.96248000  0.55933700  1
  C  C22  1  0.49422000  0.03805900  0.43489400  1
  C  C23  1  0.48280700  0.03361700  0.56412900  1
  C  C24  1  0.49801400  0.96682100  0.43169400  1
  C  C25  1  0.48770300  0.07176900  0.50067400  1
  C  C26  1  0.48624200  0.92865000  0.49400400  1
  C  C27  1  0.58470800  0.54200700  0.74125900  1
  C  C28  1  0.40892700  0.45395900  0.25750500  1
  C  C29  1  0.58197700  0.54125600  0.81709100  1
  C  C30  1  0.41006800  0.45545000  0.18146500  1
  C  C31  1  0.49776300  0.50171100  0.84291800  1
  C  C32  1  0.48895200  0.49831500  0.15496300  1
  C  C33  1  0.41618100  0.46355400  0.79212500  1
  C  C34  1  0.56620800  0.53940000  0.20493900  1
  C  C35  1  0.42005500  0.46546700  0.71734700  1
  C  C36  1  0.56254400  0.53760000  0.27974100  1
  C  C37  1  0.38623400  0.49901700  0.94618700  1
  C  C38  1  0.60020000  0.50111700  0.05193900  1
  C  C39  1  0.38413500  0.49834800  0.02139500  1
  C  C40  1  0.60238900  0.50131800  0.97676500  1
  C  C41  1  0.49109300  0.49946900  0.07481700  1
  C  C42  1  0.49540900  0.50054100  0.92319600  1
  C  C43  1  0.48681500  0.03474100  0.69706300  1
  C  C44  1  0.49711900  0.08784300  0.75680000  1
  C  C45  1  0.59852700  0.12934500  0.77283700  1
  C  C46  1  0.60909500  0.17860900  0.82808400  1
  C  C47  1  0.51833100  0.18648900  0.86744900  1
  C  C48  1  0.41699700  0.14506700  0.85159000  1
  C  C49  1  0.40625900  0.09575400  0.79635900  1
  C  C50  1  0.53013700  0.96560500  0.30488600  1
  C  C51  1  0.54925300  0.91234400  0.24996500  1
  C  C52  1  0.64867500  0.86943400  0.26706000  1
  C  C53  1  0.66717400  0.81994700  0.21662200  1
  C  C54  1  0.58634300  0.81324600  0.14897200  1
  C  C55  1  0.48701900  0.85607200  0.13172900  1
  C  C56  1  0.46836400  0.90561200  0.18209100  1
  C  C57  1  0.75977900  0.61567600  0.76141100  1
  C  C58  1  0.84365300  0.64956800  0.71906300  1
  C  C59  1  0.82175800  0.65035400  0.64167800  1
  C  C60  1  0.90202200  0.68248000  0.60539100  1
  C  C61  1  0.00435400  0.71399900  0.64600000  1
  C  C62  1  0.02624500  0.71366000  0.72306600  1
  C  C63  1  0.94602300  0.68166100  0.75939600  1
  C  C64  1  0.25409500  0.36693200  0.24048700  1
  C  C65  1  0.18187300  0.32566800  0.28467600  1
  C  C66  1  0.19539800  0.33258200  0.36135500  1
  C  C67  1  0.12632700  0.29322300  0.39934400  1
  C  C68  1  0.04370800  0.24675600  0.36120100  1
  C  C69  1  0.03003200  0.23962600  0.28487900  1
  C  C70  1  0.09887400  0.27897500  0.24682200  1
  N  N1  1  0.50277600  0.50419200  0.69287100  1
  N  N2  1  0.48511900  0.49556100  0.30498300  1
  O  O1  1  0.49369500  0.39858400  0.56510900  1
  O  O2  1  0.49144000  0.60115000  0.43248100  1
  O  O3  1  0.49255700  0.39642800  0.43845400  1
  O  O4  1  0.49761000  0.60329100  0.55963200  1
  O  O5  1  0.31553100  0.50186100  0.54220900  1
  O  O6  1  0.67225000  0.49900600  0.45561100  1
  O  O7  1  0.31104200  0.49899000  0.41522800  1
  O  O8  1  0.67671300  0.49941700  0.58256800  1
  O  O9  1  0.48736200  0.06647100  0.62992900  1
  O  O10  1  0.51628900  0.93391700  0.36978800  1
  O  O11  1  0.66834700  0.57961400  0.71519900  1
  O  O12  1  0.33333333  0.41142600  0.28484700  1
