# generated using pymatgen
data_Zn2H9C26N2O8F3
_symmetry_space_group_name_H-M   'P 1'
_cell_length_a   8.53363400
_cell_length_b   8.83832800
_cell_length_c   12.14784100
_cell_angle_alpha   106.78579900
_cell_angle_beta   90.60378300
_cell_angle_gamma   97.02473400
_symmetry_Int_Tables_number   1
_chemical_formula_structural   Zn2H9C26N2O8F3
_chemical_formula_sum   'Zn2 H9 C26 N2 O8 F3'
_cell_volume   869.58879405
_cell_formula_units_Z   1
loop_
 _symmetry_equiv_pos_site_id
 _symmetry_equiv_pos_as_xyz
  1  'x, y, z'
loop_
 _atom_site_type_symbol
 _atom_site_label
 _atom_site_symmetry_multiplicity
 _atom_site_fract_x
 _atom_site_fract_y
 _atom_site_fract_z
 _atom_site_occupancy
  Zn  Zn1  1  0.49030400  0.46040100  0.87285000  1
  Zn  Zn2  1  0.50694900  0.54104700  0.12915500  1
  H  H1  1  0.01741900  0.62507800  0.04301800  1
  H  H2  1  0.97997900  0.37637000  0.95941800  1
  H  H3  1  0.57668500  0.83312100  0.28094900  1
  H  H4  1  0.58175800  0.89418600  0.67137100  1
  H  H5  1  0.60843700  0.93400600  0.48927800  1
  H  H6  1  0.46713400  0.36647700  0.29435600  1
  H  H7  1  0.41501100  0.22134200  0.39555700  1
  H  H8  1  0.38347700  0.05810500  0.52032600  1
  H  H9  1  0.53114100  0.72600900  0.79095300  1
  C  C1  1  0.90125300  0.80863800  0.01378900  1
  C  C2  1  0.03215700  0.73974900  0.02832300  1
  C  C3  1  0.18111900  0.80936100  0.01689000  1
  C  C4  1  0.20403000  0.95911400  0.00280500  1
  C  C5  1  0.07518700  0.03923100  0.99975900  1
  C  C6  1  0.92218600  0.96222900  0.00271800  1
  C  C7  1  0.79329600  0.04226600  0.99954200  1
  C  C8  1  0.81613600  0.19201700  0.98539800  1
  C  C9  1  0.96521600  0.26170600  0.97412300  1
  C  C10  1  0.09618400  0.19282000  0.98872200  1
  C  C11  1  0.74685900  0.71030200  0.00776200  1
  C  C12  1  0.68722900  0.28685900  0.99097000  1
  C  C13  1  0.25075300  0.29097800  0.99463700  1
  C  C14  1  0.30986900  0.71450600  0.01132800  1
  C  C15  1  0.57355100  0.80818900  0.44897300  1
  C  C16  1  0.44405400  0.24860100  0.67311400  1
  C  C17  1  0.41816800  0.18477100  0.55660400  1
  C  C18  1  0.43652900  0.28013700  0.48585900  1
  C  C19  1  0.47943800  0.44275500  0.53269300  1
  C  C20  1  0.49481500  0.50564400  0.65279600  1
  C  C21  1  0.50493300  0.54412900  0.46260800  1
  C  C22  1  0.54461200  0.70568400  0.51448000  1
  C  C23  1  0.55394800  0.76719300  0.63190200  1
  C  C24  1  0.52700500  0.66908100  0.70042200  1
  C  C25  1  0.49431600  0.48994800  0.34206300  1
  C  C26  1  0.55777700  0.75081400  0.33162200  1
  N  N1  1  0.51870000  0.59400200  0.27989900  1
  N  N2  1  0.47822400  0.40775700  0.72164600  1
  O  O1  1  0.69527500  0.68622300  0.10339700  1
  O  O2  1  0.67950400  0.63066900  0.90608300  1
  O  O3  1  0.63918000  0.31038300  0.89515700  1
  O  O4  1  0.64568700  0.36581500  0.09324500  1
  O  O5  1  0.30168500  0.31572700  0.89892400  1
  O  O6  1  0.31898700  0.36947500  0.09640000  1
  O  O7  1  0.35732900  0.69030200  0.10684600  1
  O  O8  1  0.35176300  0.63584300  0.90928300  1
  F  F1  1  0.35232200  0.02480800  0.99088700  1
  F  F2  1  0.64502300  0.97646200  0.01139600  1
  F  F3  1  0.43337300  0.14730900  0.73842900  1
