# generated using pymatgen
data_Fe2H23C36N15O16
_symmetry_space_group_name_H-M   'P 1'
_cell_length_a   16.03170100
_cell_length_b   16.95734600
_cell_length_c   11.58891600
_cell_angle_alpha   71.43287700
_cell_angle_beta   96.89651700
_cell_angle_gamma   98.20054100
_symmetry_Int_Tables_number   1
_chemical_formula_structural   Fe2H23C36N15O16
_chemical_formula_sum   'Fe2 H23 C36 N15 O16'
_cell_volume   2946.61566841
_cell_formula_units_Z   1
loop_
 _symmetry_equiv_pos_site_id
 _symmetry_equiv_pos_as_xyz
  1  'x, y, z'
loop_
 _atom_site_type_symbol
 _atom_site_label
 _atom_site_symmetry_multiplicity
 _atom_site_fract_x
 _atom_site_fract_y
 _atom_site_fract_z
 _atom_site_occupancy
  Fe  Fe1  1  0.50301300  0.00042900  0.74852000  1
  Fe  Fe2  1  0.49846100  0.00133700  0.24950300  1
  H  H1  1  0.91674000  0.99716300  0.21723700  1
  H  H2  1  0.20549600  0.96498200  0.67759500  1
  H  H3  1  0.21112800  0.07110500  0.63363700  1
  H  H4  1  0.55314500  0.47064900  0.17104200  1
  H  H5  1  0.44553300  0.46790300  0.14902000  1
  H  H6  1  0.54550200  0.36190300  0.09059300  1
  H  H7  1  0.43764500  0.35687200  0.07159100  1
  H  H8  1  0.46974100  0.31400700  0.64783800  1
  H  H9  1  0.40659100  0.22956800  0.63573700  1
  H  H10  1  0.03066000  0.95248000  0.78534200  1
  H  H11  1  0.03716600  0.05910000  0.73774700  1
  H  H12  1  0.13806700  0.06046800  0.15661700  1
  H  H13  1  0.13205000  0.95380600  0.20166900  1
  H  H14  1  0.86377700  0.94414900  0.83906400  1
  H  H15  1  0.86858700  0.05067900  0.79373400  1
  H  H16  1  0.82482500  0.99474500  0.34982400  1
  H  H17  1  0.74164800  0.92268700  0.34561900  1
  H  H18  1  0.53135200  0.68778200  0.35023300  1
  H  H19  1  0.59428700  0.77236500  0.36218600  1
  H  H20  1  0.55631700  0.53378000  0.84892000  1
  H  H21  1  0.44868200  0.53092200  0.82737800  1
  H  H22  1  0.56440500  0.64476900  0.92647100  1
  H  H23  1  0.45653000  0.63960200  0.90800800  1
  C  C1  1  0.22044600  0.01523600  0.81546700  1
  C  C2  1  0.13861000  0.01073200  0.84346500  1
  C  C3  1  0.12297700  0.00971100  0.95826500  1
  C  C4  1  0.18932500  0.01261300  0.04591700  1
  C  C5  1  0.27304000  0.01714600  0.01880300  1
  C  C6  1  0.28756000  0.01893500  0.90112000  1
  C  C7  1  0.03701300  0.00486500  0.98663000  1
  C  C8  1  0.96476500  0.00066100  0.00936000  1
  C  C9  1  0.81216300  0.99145700  0.94997300  1
  C  C10  1  0.72856300  0.98585200  0.97826100  1
  C  C11  1  0.71438700  0.98371100  0.09640800  1
  C  C12  1  0.78204600  0.98835000  0.18131100  1
  C  C13  1  0.86360600  0.99439800  0.15116700  1
  C  C14  1  0.87864700  0.99539800  0.03677000  1
  C  C15  1  0.47240700  0.12894700  0.53876000  1
  C  C16  1  0.37222600  0.02610000  0.86075800  1
  C  C17  1  0.65763900  0.98618400  0.88233200  1
  C  C18  1  0.51743100  0.84641100  0.72407100  1
  C  C19  1  0.48412900  0.15515400  0.27441300  1
  C  C20  1  0.34374000  0.01606100  0.11532100  1
  C  C21  1  0.62960600  0.97608800  0.13704900  1
  C  C22  1  0.52859300  0.87280400  0.45950500  1
  C  C23  1  0.52332200  0.78912300  0.54916500  1
  C  C24  1  0.52186500  0.72251400  0.50374700  1
  C  C25  1  0.51468100  0.64092400  0.58213500  1
  C  C26  1  0.51279300  0.62695700  0.70567300  1
  C  C27  1  0.51590500  0.69339600  0.75236300  1
  C  C28  1  0.52002600  0.77573300  0.67430000  1
  C  C29  1  0.49376200  0.43398800  0.45969500  1
  C  C30  1  0.50754700  0.56773700  0.53836600  1
  C  C31  1  0.48875300  0.37469900  0.29250400  1
  C  C32  1  0.48573800  0.30822300  0.24591300  1
  C  C33  1  0.48142500  0.22589000  0.32402900  1
  C  C34  1  0.47778800  0.21257300  0.44905700  1
  C  C35  1  0.47922200  0.27920800  0.49438600  1
  C  C36  1  0.48661500  0.36078000  0.41598200  1
  N  N1  1  0.56509300  0.51250500  0.57899200  1
  N  N2  1  0.55839900  0.44649200  0.53984200  1
  N  N3  1  0.43621900  0.48922200  0.41906000  1
  N  N4  1  0.44291100  0.55523200  0.45821600  1
  N  N5  1  0.23644100  0.01888300  0.69541700  1
  N  N6  1  0.49713200  0.45912200  0.21411500  1
  N  N7  1  0.48900500  0.32518500  0.11759700  1
  N  N8  1  0.46737500  0.26059300  0.62141300  1
  N  N9  1  0.07058800  0.00770500  0.75293900  1
  N  N10  1  0.17033200  0.00941800  0.16460700  1
  N  N11  1  0.83085800  0.99475300  0.83112200  1
  N  N12  1  0.76708000  0.98383200  0.30227500  1
  N  N13  1  0.53358000  0.74117600  0.37666500  1
  N  N14  1  0.50459100  0.54252200  0.78404200  1
  N  N15  1  0.51294200  0.67639200  0.88074400  1
  O  O1  1  0.53223000  0.11068000  0.62784900  1
  O  O2  1  0.42495200  0.09375700  0.85494400  1
  O  O3  1  0.40373100  0.07649300  0.53888700  1
  O  O4  1  0.39160800  0.96874600  0.81768100  1
  O  O5  1  0.58060800  0.99553600  0.89939800  1
  O  O6  1  0.67118200  0.98041900  0.77607100  1
  O  O7  1  0.51131700  0.92300200  0.65165600  1
  O  O8  1  0.51832900  0.83334800  0.84199600  1
  O  O9  1  0.49005800  0.07851900  0.34683400  1
  O  O10  1  0.48350500  0.16822000  0.15652400  1
  O  O11  1  0.42079900  0.00651000  0.09849100  1
  O  O12  1  0.32999900  0.02159700  0.22163900  1
  O  O13  1  0.59684500  0.92565200  0.46021700  1
  O  O14  1  0.60988900  0.03321100  0.18037600  1
  O  O15  1  0.46911400  0.89090100  0.36987300  1
  O  O16  1  0.57715100  0.90827200  0.14272600  1
