# generated using pymatgen
data_Fe2H16C43O19
_symmetry_space_group_name_H-M   'P 1'
_cell_length_a   14.66971500
_cell_length_b   9.50271500
_cell_length_c   17.17930000
_cell_angle_alpha   89.13465800
_cell_angle_beta   91.02560500
_cell_angle_gamma   110.05187900
_symmetry_Int_Tables_number   1
_chemical_formula_structural   Fe2H16C43O19
_chemical_formula_sum   'Fe2 H16 C43 O19'
_cell_volume   2249.19943460
_cell_formula_units_Z   1
loop_
 _symmetry_equiv_pos_site_id
 _symmetry_equiv_pos_as_xyz
  1  'x, y, z'
loop_
 _atom_site_type_symbol
 _atom_site_label
 _atom_site_symmetry_multiplicity
 _atom_site_fract_x
 _atom_site_fract_y
 _atom_site_fract_z
 _atom_site_occupancy
  Fe  Fe1  1  0.49624400  0.99710000  0.09340500  1
  Fe  Fe2  1  0.46793600  0.94514700  0.80409800  1
  H  H1  1  0.09709300  0.76134600  0.84458000  1
  H  H2  1  0.97315100  0.82094300  0.91062800  1
  H  H3  1  0.96796100  0.03747800  0.85954100  1
  H  H4  1  0.81017100  0.98861400  0.79981200  1
  H  H5  1  0.24878000  0.10980600  0.12401000  1
  H  H6  1  0.97034800  0.23004100  0.17525500  1
  H  H7  1  0.81829900  0.18287700  0.11664800  1
  H  H8  1  0.46976700  0.21067300  0.58530800  1
  H  H9  1  0.49019900  0.66719600  0.55953800  1
  H  H10  1  0.49803400  0.28086700  0.34675300  1
  H  H11  1  0.50312500  0.46453600  0.12110300  1
  H  H12  1  0.43555000  0.30607400  0.45652100  1
  H  H13  1  0.55938600  0.63875700  0.45197800  1
  H  H14  1  0.49201300  0.79014600  0.38054900  1
  H  H15  1  0.47877400  0.54896600  0.84160300  1
  H  H16  1  0.07727400  0.18868400  0.24783300  1
  C  C1  1  0.21211900  0.88819700  0.92055000  1
  C  C2  1  0.11736700  0.83491900  0.89411700  1
  C  C3  1  0.04713400  0.87651900  0.92948800  1
  C  C4  1  0.90774700  0.02751000  0.89696500  1
  C  C5  1  0.23282800  0.96919900  0.98908800  1
  C  C6  1  0.16268100  0.01724600  0.02235900  1
  C  C7  1  0.07166500  0.98364800  0.98767200  1
  C  C8  1  0.00501600  0.04592900  0.01713000  1
  C  C9  1  0.81887100  0.00677800  0.86187500  1
  C  C10  1  0.74004700  0.00155400  0.90556700  1
  C  C11  1  0.91920600  0.04190100  0.97723600  1
  C  C12  1  0.84553600  0.06747400  0.01755500  1
  C  C13  1  0.75310400  0.03326700  0.98438800  1
  C  C14  1  0.18193600  0.09261000  0.09231200  1
  C  C15  1  0.11221900  0.13435900  0.12794700  1
  C  C16  1  0.02428200  0.11400700  0.08979300  1
  C  C17  1  0.95655400  0.16597600  0.12254200  1
  C  C18  1  0.86701300  0.13684200  0.08882600  1
  C  C19  1  0.66933700  0.01528400  0.03466600  1
  C  C20  1  0.50871800  0.73862500  0.15886800  1
  C  C21  1  0.32910300  0.00808300  0.02523700  1
  C  C22  1  0.48974000  0.21370000  0.19905400  1
  C  C23  1  0.47961300  0.72575900  0.70620900  1
  C  C24  1  0.64368500  0.95196400  0.86843700  1
  C  C25  1  0.46789500  0.20070700  0.74144300  1
  C  C26  1  0.28877900  0.87060500  0.87105500  1
  C  C27  1  0.46362900  0.32464100  0.69065800  1
  C  C28  1  0.47003600  0.31404300  0.61085100  1
  C  C29  1  0.47895900  0.43599100  0.56295700  1
  C  C30  1  0.48484600  0.57084200  0.59558700  1
  C  C31  1  0.47404600  0.58086200  0.67457300  1
  C  C32  1  0.45849500  0.45558000  0.72201800  1
  C  C33  1  0.47607900  0.41660700  0.47803100  1
  C  C34  1  0.51722400  0.53053100  0.42869300  1
  C  C35  1  0.51700300  0.63520000  0.29467400  1
  C  C36  1  0.51193600  0.61815100  0.21387600  1
  C  C37  1  0.50643000  0.48085300  0.18331700  1
  C  C38  1  0.49979000  0.36020400  0.23155900  1
  C  C39  1  0.49939500  0.37559700  0.31085200  1
  C  C40  1  0.50907700  0.51254400  0.34320200  1
  C  C41  1  0.53279800  0.78170700  0.32989200  1
  C  C42  1  0.43449400  0.46046600  0.80430300  1
  C  C43  1  0.13416700  0.19724900  0.20691400  1
  O  O1  1  0.58823400  0.02619000  0.00682800  1
  O  O2  1  0.51645600  0.72041100  0.08399300  1
  O  O3  1  0.67319200  0.97872700  0.10828000  1
  O  O4  1  0.49340500  0.86022000  0.18218100  1
  O  O5  1  0.36239000  0.90211000  0.04828100  1
  O  O6  1  0.38341100  0.14932100  0.03287600  1
  O  O7  1  0.53658200  0.20551900  0.13586100  1
  O  O8  1  0.43266300  0.09083900  0.23251600  1
  O  O9  1  0.42859200  0.73327900  0.76684500  1
  O  O10  1  0.53836900  0.84951900  0.67469700  1
  O  O11  1  0.60366600  0.04935500  0.84399200  1
  O  O12  1  0.59599400  0.80831300  0.86154700  1
  O  O13  1  0.26756700  0.82866600  0.79858000  1
  O  O14  1  0.46342600  0.07178700  0.71262700  1
  O  O15  1  0.38036100  0.92174900  0.89336200  1
  O  O16  1  0.48534000  0.22069200  0.81637800  1
  O  O17  1  0.59814700  0.89238100  0.30717200  1
  O  O18  1  0.36277300  0.36514500  0.83092400  1
  O  O19  1  0.21816100  0.25296900  0.22919100  1
