# generated using pymatgen
data_VH2C6Cl2O5
_symmetry_space_group_name_H-M   'P 1'
_cell_length_a   13.71879200
_cell_length_b   16.13867800
_cell_length_c   6.71066500
_cell_angle_alpha   90.00000000
_cell_angle_beta   99.41775100
_cell_angle_gamma   90.00000000
_symmetry_Int_Tables_number   1
_chemical_formula_structural   VH2C6Cl2O5
_chemical_formula_sum   'V4 H8 C24 Cl8 O20'
_cell_volume   1465.73665198
_cell_formula_units_Z   4
loop_
 _symmetry_equiv_pos_site_id
 _symmetry_equiv_pos_as_xyz
  1  'x, y, z'
loop_
 _atom_site_type_symbol
 _atom_site_label
 _atom_site_symmetry_multiplicity
 _atom_site_fract_x
 _atom_site_fract_y
 _atom_site_fract_z
 _atom_site_occupancy
  V  V1  1  0.50980100  0.49763000  0.07041600  1
  V  V2  1  0.48755500  0.49678900  0.56286500  1
  V  V3  1  0.99592600  0.99825700  0.83780300  1
  V  V4  1  0.02121200  0.99894900  0.34630000  1
  H  H1  1  0.26709400  0.68775900  0.64840200  1
  H  H2  1  0.30738300  0.27254000  0.64723500  1
  H  H3  1  0.83441700  0.79230900  0.19223100  1
  H  H4  1  0.81621900  0.18249100  0.17931000  1
  H  H5  1  0.73107800  0.66003800  0.16355200  1
  H  H6  1  0.67269100  0.28425400  0.11085100  1
  H  H7  1  0.65805900  0.73434100  0.53099600  1
  H  H8  1  0.73892400  0.32313700  0.55814000  1
  C  C1  1  0.59748200  0.61903000  0.38757900  1
  C  C2  1  0.62086600  0.39139500  0.36408700  1
  C  C3  1  0.39017100  0.38096900  0.78749200  1
  C  C4  1  0.38688900  0.61043000  0.81598100  1
  C  C5  1  0.31309900  0.67629600  0.79313000  1
  C  C6  1  0.32237800  0.31062800  0.78183600  1
  C  C7  1  0.30074600  0.71987300  0.95506100  1
  C  C8  1  0.28236500  0.29079800  0.94312600  1
  C  C9  1  0.20718800  0.82060000  0.10966800  1
  C  C10  1  0.18837700  0.19086700  0.10423800  1
  C  C11  1  0.22556800  0.78471400  0.94156600  1
  C  C12  1  0.21664000  0.21878400  0.93606500  1
  C  C13  1  0.80012100  0.77184500  0.31819600  1
  C  C14  1  0.78541600  0.20907700  0.30373200  1
  C  C15  1  0.82532100  0.80827100  0.49765300  1
  C  C16  1  0.81190400  0.17828700  0.48866100  1
  C  C17  1  0.73017300  0.70193100  0.28947900  1
  C  C18  1  0.71210800  0.27550400  0.26308700  1
  C  C19  1  0.66420000  0.69044700  0.41220900  1
  C  C20  1  0.69590500  0.32713300  0.40837200  1
  C  C21  1  0.88513800  0.11217900  0.52096500  1
  C  C22  1  0.89499600  0.87767100  0.52409900  1
  C  C23  1  0.13249800  0.88546100  0.09974700  1
  C  C24  1  0.12209200  0.11944700  0.09673600  1
  Cl  Cl1  1  0.15882800  0.81365300  0.70627200  1
  Cl  Cl2  1  0.17710300  0.16809000  0.70581800  1
  Cl  Cl3  1  0.37292700  0.69726400  0.18937500  1
  Cl  Cl4  1  0.31118200  0.34869000  0.16620000  1
  Cl  Cl5  1  0.27213700  0.78922000  0.34463300  1
  Cl  Cl6  1  0.23132500  0.23936200  0.33590400  1
  Cl  Cl7  1  0.78128400  0.77084200  0.71173500  1
  Cl  Cl8  1  0.75590400  0.21176700  0.69153400  1
  O  O1  1  0.61006900  0.44246500  0.51387500  1
  O  O2  1  0.54911000  0.60572000  0.54137300  1
  O  O3  1  0.61130200  0.56359500  0.24671500  1
  O  O4  1  0.56925900  0.39211500  0.17998800  1
  O  O5  1  0.43516000  0.60052600  0.00314700  1
  O  O6  1  0.39464900  0.43295400  0.94221600  1
  O  O7  1  0.43294000  0.49561400  0.31938300  1
  O  O8  1  0.44105500  0.38666100  0.63715200  1
  O  O9  1  0.37857100  0.55381900  0.66900300  1
  O  O10  1  0.56424100  0.50115400  0.86347000  1
  O  O11  1  0.93050600  0.90388000  0.36717200  1
  O  O12  1  0.92188800  0.08755400  0.36494100  1
  O  O13  1  0.90237400  0.07886500  0.69947600  1
  O  O14  1  0.90927600  0.91259500  0.70097300  1
  O  O15  1  0.08713500  0.08953900  0.91997600  1
  O  O16  1  0.09417600  0.91224400  0.92187300  1
  O  O17  1  0.07017900  0.00051700  0.58850000  1
  O  O18  1  0.11586900  0.91587800  0.26998100  1
  O  O19  1  0.10734900  0.08849200  0.26788400  1
  O  O20  1  0.94662300  0.99670000  0.04727900  1
