# generated using pymatgen
data_CuH16C28INO4
_symmetry_space_group_name_H-M   'P 1'
_cell_length_a   15.90042600
_cell_length_b   17.89606000
_cell_length_c   19.36151000
_cell_angle_alpha   89.98435300
_cell_angle_beta   90.00203500
_cell_angle_gamma   71.53322300
_symmetry_Int_Tables_number   1
_chemical_formula_structural   CuH16C28INO4
_chemical_formula_sum   'Cu2 H32 C56 I2 N2 O8'
_cell_volume   5225.72022376
_cell_formula_units_Z   2
loop_
 _symmetry_equiv_pos_site_id
 _symmetry_equiv_pos_as_xyz
  1  'x, y, z'
loop_
 _atom_site_type_symbol
 _atom_site_label
 _atom_site_symmetry_multiplicity
 _atom_site_fract_x
 _atom_site_fract_y
 _atom_site_fract_z
 _atom_site_occupancy
  Cu  Cu1  1  0.50112600  0.42503800  0.50146000  1
  Cu  Cu2  1  0.49884700  0.57495900  0.49913400  1
  H  H1  1  0.07627500  0.29086100  0.50147700  1
  H  H2  1  0.92367900  0.70903200  0.49357300  1
  H  H3  1  0.22777100  0.45660700  0.49955500  1
  H  H4  1  0.77220900  0.54345000  0.50274700  1
  H  H5  1  0.21817300  0.69539500  0.49225600  1
  H  H6  1  0.78183700  0.30453900  0.50573100  1
  H  H7  1  0.94242800  0.26293300  0.50449900  1
  H  H8  1  0.05756200  0.73697900  0.49178100  1
  H  H9  1  0.15926500  0.37792100  0.49792300  1
  H  H10  1  0.84067000  0.62198500  0.49703000  1
  H  H11  1  0.42957100  0.61622700  0.28466800  1
  H  H12  1  0.57036200  0.38374200  0.71591300  1
  H  H13  1  0.42529200  0.61898600  0.15970400  1
  H  H14  1  0.57468500  0.38096100  0.84087400  1
  H  H15  1  0.58523300  0.37711700  0.15452100  1
  H  H16  1  0.41487200  0.62286600  0.84609900  1
  H  H17  1  0.48515100  0.38511700  0.06240600  1
  H  H18  1  0.51492300  0.61483300  0.93820200  1
  H  H19  1  0.48211700  0.38672900  0.93743400  1
  H  H20  1  0.51794300  0.61322400  0.06317100  1
  H  H21  1  0.59998100  0.27802900  0.58040500  1
  H  H22  1  0.39999600  0.72196600  0.42019100  1
  H  H23  1  0.60235300  0.14102600  0.58008700  1
  H  H24  1  0.39761200  0.85897300  0.42052200  1
  H  H25  1  0.40407600  0.19850000  0.42214300  1
  H  H26  1  0.59587300  0.80150100  0.57847800  1
  H  H27  1  0.40674800  0.33352400  0.42383400  1
  H  H28  1  0.59321300  0.66647500  0.57677400  1
  H  H29  1  0.49112700  0.07086600  0.39051600  1
  H  H30  1  0.50882900  0.92913400  0.61009900  1
  H  H31  1  0.48767400  0.93669100  0.38985300  1
  H  H32  1  0.51228300  0.06331200  0.61076200  1
  C  C1  1  0.49381900  0.50413800  0.63310000  1
  C  C2  1  0.50616000  0.49585700  0.36749700  1
  C  C3  1  0.67049000  0.45359900  0.50380200  1
  C  C4  1  0.32948700  0.54639200  0.49672900  1
  C  C5  1  0.76784100  0.42779100  0.50414700  1
  C  C6  1  0.23214900  0.57219300  0.49561100  1
  C  C7  1  0.90590300  0.32517100  0.50400000  1
  C  C8  1  0.09408700  0.67476200  0.49326300  1
  C  C9  1  0.81500400  0.34871200  0.50472400  1
  C  C10  1  0.18499200  0.65123800  0.49356400  1
  C  C11  1  0.81248800  0.48288500  0.50285000  1
  C  C12  1  0.18749800  0.51711300  0.49724600  1
  C  C13  1  0.90510000  0.45986100  0.50147600  1
  C  C14  1  0.09487500  0.54010500  0.49685300  1
  C  C15  1  0.95044000  0.37994800  0.50227300  1
  C  C16  1  0.04953700  0.61999400  0.49504300  1
  C  C17  1  0.95350800  0.51379700  0.49922100  1
  C  C18  1  0.04645700  0.48616100  0.49852000  1
  C  C19  1  0.08870900  0.40506900  0.49922200  1
  C  C20  1  0.91124800  0.59486300  0.49728100  1
  C  C21  1  0.04114400  0.35338500  0.50107600  1
  C  C22  1  0.95881900  0.64653400  0.49508800  1
  C  C23  1  0.46434800  0.56327100  0.25657800  1
  C  C24  1  0.53562300  0.43670200  0.74401200  1
  C  C25  1  0.46212900  0.56495200  0.18543800  1
  C  C26  1  0.53786600  0.43500900  0.81515100  1
  C  C27  1  0.50395500  0.49782700  0.14797100  1
  C  C28  1  0.49608700  0.50213600  0.85263100  1
  C  C29  1  0.54889700  0.42945500  0.18275100  1
  C  C30  1  0.45117300  0.57052300  0.81786200  1
  C  C31  1  0.55157400  0.42719700  0.25394600  1
  C  C32  1  0.44848000  0.57279800  0.74666800  1
  C  C33  1  0.50785200  0.49457100  0.29161200  1
  C  C34  1  0.49214700  0.50541800  0.70898800  1
  C  C35  1  0.49299900  0.43548600  0.03565400  1
  C  C36  1  0.50707200  0.56446300  0.96495000  1
  C  C37  1  0.49131900  0.43637100  0.96446800  1
  C  C38  1  0.50874600  0.56358000  0.03613600  1
  C  C39  1  0.49833000  0.50088200  0.92854300  1
  C  C40  1  0.50173300  0.49907100  0.07206000  1
  C  C41  1  0.55676300  0.26000500  0.54570600  1
  C  C42  1  0.44321000  0.73999200  0.45489300  1
  C  C43  1  0.55750200  0.18267000  0.54580900  1
  C  C44  1  0.44246300  0.81732900  0.45479800  1
  C  C45  1  0.50297900  0.15898100  0.50118100  1
  C  C46  1  0.49697900  0.84101900  0.49943200  1
  C  C47  1  0.44891500  0.21406000  0.45699800  1
  C  C48  1  0.55104100  0.78594000  0.54361500  1
  C  C49  1  0.44963800  0.29079300  0.45842000  1
  C  C50  1  0.55032700  0.70920500  0.54218600  1
  C  C51  1  0.49382200  0.04071400  0.43921700  1
  C  C52  1  0.50613400  0.95928700  0.56139900  1
  C  C53  1  0.49176800  0.96427500  0.43881500  1
  C  C54  1  0.50818800  0.03572600  0.56180100  1
  C  C55  1  0.49793600  0.92292100  0.49990300  1
  C  C56  1  0.50201900  0.07708000  0.50071300  1
  I  I1  1  0.63189700  0.32036100  0.29841900  1
  I  I2  1  0.36822700  0.67968300  0.70223100  1
  N  N1  1  0.50233200  0.31293900  0.50292900  1
  N  N2  1  0.49764400  0.68705700  0.49766800  1
  O  O1  1  0.50040300  0.43763100  0.60169300  1
  O  O2  1  0.49959100  0.56236200  0.39890200  1
  O  O3  1  0.49228500  0.56800800  0.59951700  1
  O  O4  1  0.50766700  0.43199200  0.40107700  1
  O  O5  1  0.62992600  0.40028800  0.50166500  1
  O  O6  1  0.37004600  0.59970600  0.49889800  1
  O  O7  1  0.62761900  0.52924000  0.50447500  1
  O  O8  1  0.37235500  0.47075200  0.49612300  1
