# generated using pymatgen
data_ZnH15C16(NO2)2
_symmetry_space_group_name_H-M   'P 1'
_cell_length_a   8.58351300
_cell_length_b   9.08977600
_cell_length_c   13.09933600
_cell_angle_alpha   90.59220100
_cell_angle_beta   86.45562900
_cell_angle_gamma   93.30907100
_symmetry_Int_Tables_number   1
_chemical_formula_structural   ZnH15C16(NO2)2
_chemical_formula_sum   'Zn2 H30 C32 N4 O8'
_cell_volume   1018.35993379
_cell_formula_units_Z   2
loop_
 _symmetry_equiv_pos_site_id
 _symmetry_equiv_pos_as_xyz
  1  'x, y, z'
loop_
 _atom_site_type_symbol
 _atom_site_label
 _atom_site_symmetry_multiplicity
 _atom_site_fract_x
 _atom_site_fract_y
 _atom_site_fract_z
 _atom_site_occupancy
  Zn  Zn1  1  0.45492700  0.17194400  0.50149300  1
  Zn  Zn2  1  0.44422600  0.84284200  0.50506800  1
  H  H1  1  0.36292100  0.99494400  0.19870800  1
  H  H2  1  0.40081500  0.99931700  0.02138100  1
  H  H3  1  0.97514600  0.04345100  0.57590300  1
  H  H4  1  0.67032200  0.00735700  0.84009200  1
  H  H5  1  0.76372800  0.00450600  0.99871800  1
  H  H6  1  0.73182300  0.03302600  0.15375700  1
  H  H7  1  0.92839400  0.96562000  0.43230500  1
  H  H8  1  0.54071300  0.39305300  0.34612700  1
  H  H9  1  0.68672500  0.40418200  0.43954700  1
  H  H10  1  0.67834800  0.64667300  0.44417500  1
  H  H11  1  0.53325200  0.63555500  0.34935800  1
  H  H12  1  0.27728400  0.37816100  0.39623200  1
  H  H13  1  0.27968900  0.60277700  0.39570300  1
  H  H14  1  0.41516600  0.37589400  0.66080800  1
  H  H15  1  0.61448900  0.40352000  0.61400300  1
  H  H16  1  0.60855800  0.63403600  0.61519700  1
  H  H17  1  0.41178300  0.63234500  0.66565900  1
  H  H18  1  0.20716700  0.35335600  0.52565300  1
  H  H19  1  0.19863000  0.49001600  0.66017900  1
  H  H20  1  0.99989500  0.51873400  0.64035100  1
  H  H21  1  0.12052700  0.66329700  0.69438000  1
  H  H22  1  0.04631800  0.69487400  0.40628100  1
  H  H23  1  0.92702900  0.68182200  0.52298600  1
  H  H24  1  0.98541300  0.51520400  0.45719500  1
  H  H25  1  0.31533100  0.77553600  0.84188900  1
  H  H26  1  0.47997900  0.85584600  0.90428000  1
  H  H27  1  0.48028200  0.85366600  0.76689600  1
  H  H28  1  0.33860000  0.23369100  0.85340400  1
  H  H29  1  0.49451100  0.16476600  0.77319500  1
  H  H30  1  0.49633900  0.15105900  0.91022400  1
  C  C1  1  0.98409500  0.00801100  0.14190500  1
  C  C2  1  0.11337000  0.00055600  0.20118700  1
  C  C3  1  0.26092500  0.99985800  0.15485700  1
  C  C4  1  0.28240400  0.00206400  0.05083600  1
  C  C5  1  0.15705700  0.00397600  0.98931800  1
  C  C6  1  0.00674300  0.00702800  0.03432900  1
  C  C7  1  0.18205600  0.00273100  0.88311300  1
  C  C8  1  0.05933000  0.00529700  0.82009700  1
  C  C9  1  0.91004700  0.00763100  0.86457300  1
  C  C10  1  0.88356200  0.00640100  0.96993400  1
  C  C11  1  0.08124400  0.00925500  0.71324500  1
  C  C12  1  0.95433600  0.02698700  0.65617900  1
  C  C13  1  0.80450800  0.02300500  0.69945300  1
  C  C14  1  0.78419900  0.01101400  0.80413000  1
  C  C15  1  0.83647900  0.01792900  0.19233400  1
  C  C16  1  0.81953300  0.00669500  0.29730500  1
  C  C17  1  0.94683200  0.98476500  0.35217400  1
  C  C18  1  0.09515700  0.99079300  0.30681700  1
  C  C19  1  0.67064600  0.01994700  0.63323400  1
  C  C20  1  0.66826400  0.01021000  0.35505400  1
  C  C21  1  0.22899400  0.99435000  0.37309600  1
  C  C22  1  0.23184200  0.00525200  0.65289800  1
  C  C23  1  0.56685000  0.43323300  0.42379600  1
  C  C24  1  0.56064800  0.60040000  0.42674700  1
  C  C25  1  0.29987300  0.41020400  0.47590900  1
  C  C26  1  0.49290500  0.42659000  0.59888600  1
  C  C27  1  0.29397800  0.57682600  0.47676600  1
  C  C28  1  0.48790600  0.59306200  0.60123700  1
  C  C29  1  0.11938700  0.57246100  0.63733500  1
  C  C30  1  0.02270300  0.63020500  0.47732700  1
  C  C31  1  0.40742600  0.86638200  0.83829000  1
  C  C32  1  0.42164500  0.14473600  0.84446400  1
  N  N1  1  0.45465400  0.36584100  0.49937300  1
  N  N2  1  0.44315300  0.64870300  0.50398500  1
  N  N3  1  0.15943900  0.63095100  0.53602900  1
  N  N4  1  0.33380100  0.00509100  0.83783100  1
  O  O1  1  0.61504600  0.89115300  0.60110500  1
  O  O2  1  0.61920800  0.14473200  0.60240800  1
  O  O3  1  0.62269300  0.13796800  0.39038300  1
  O  O4  1  0.60765000  0.88382600  0.39025700  1
  O  O5  1  0.28510600  0.12325500  0.40473200  1
  O  O6  1  0.28092300  0.86982700  0.40352100  1
  O  O7  1  0.27689700  0.87760900  0.61645600  1
  O  O8  1  0.29171900  0.13122800  0.61653400  1
