# generated using pymatgen
data_ZnH2C23N11O4
_symmetry_space_group_name_H-M   'P 1'
_cell_length_a   11.45301900
_cell_length_b   15.98809000
_cell_length_c   17.23966300
_cell_angle_alpha   89.11296600
_cell_angle_beta   90.75578600
_cell_angle_gamma   105.12662400
_symmetry_Int_Tables_number   1
_chemical_formula_structural   ZnH2C23N11O4
_chemical_formula_sum   'Zn2 H4 C46 N22 O8'
_cell_volume   3046.90726944
_cell_formula_units_Z   2
loop_
 _symmetry_equiv_pos_site_id
 _symmetry_equiv_pos_as_xyz
  1  'x, y, z'
loop_
 _atom_site_type_symbol
 _atom_site_label
 _atom_site_symmetry_multiplicity
 _atom_site_fract_x
 _atom_site_fract_y
 _atom_site_fract_z
 _atom_site_occupancy
  Zn  Zn1  1  0.48914800  0.40321500  0.50096000  1
  Zn  Zn2  1  0.51085200  0.59678500  0.49904000  1
  H  H1  1  0.55009900  0.36657500  0.88312100  1
  H  H2  1  0.44990100  0.63342500  0.11688000  1
  H  H3  1  0.53047600  0.37031900  0.74360200  1
  H  H4  1  0.46952400  0.62968100  0.25639800  1
  C  C1  1  0.49553200  0.49815000  0.65235900  1
  C  C2  1  0.50446800  0.50185000  0.34764200  1
  C  C3  1  0.73682200  0.53187000  0.50290100  1
  C  C4  1  0.26317800  0.46813000  0.49709900  1
  C  C5  1  0.86998000  0.55168400  0.51064600  1
  C  C6  1  0.13002000  0.44831600  0.48935400  1
  C  C7  1  0.93315700  0.49387300  0.49128600  1
  C  C8  1  0.06684400  0.50612700  0.50871400  1
  C  C9  1  0.49886300  0.49699300  0.73818600  1
  C  C10  1  0.50113700  0.50300700  0.26181400  1
  C  C11  1  0.48562900  0.56585500  0.78290000  1
  C  C12  1  0.51437200  0.43414500  0.21710000  1
  C  C13  1  0.49706700  0.56325000  0.86284900  1
  C  C14  1  0.50293300  0.43675000  0.13715100  1
  C  C15  1  0.51947300  0.49068100  0.89967400  1
  C  C16  1  0.48052700  0.50931900  0.10032600  1
  C  C17  1  0.53172400  0.42284800  0.85518300  1
  C  C18  1  0.46827600  0.57715200  0.14481700  1
  C  C19  1  0.52019200  0.42527500  0.77572800  1
  C  C20  1  0.47980800  0.57472500  0.22427200  1
  C  C21  1  0.45416800  0.75822700  0.44997400  1
  C  C22  1  0.54583200  0.24177300  0.55002600  1
  C  C23  1  0.46206900  0.84596000  0.44864500  1
  C  C24  1  0.53793100  0.15403900  0.55135500  1
  C  C25  1  0.54009400  0.90059000  0.49972400  1
  C  C26  1  0.45990600  0.09941000  0.50027600  1
  C  C27  1  0.61407900  0.86515800  0.54618900  1
  C  C28  1  0.38592100  0.13484200  0.45381100  1
  C  C29  1  0.60390300  0.77734000  0.54604900  1
  C  C30  1  0.39609700  0.22266000  0.45395200  1
  C  C31  1  0.13005700  0.57659500  0.55734000  1
  C  C32  1  0.86994300  0.42340500  0.44266000  1
  C  C33  1  0.67813700  0.74381900  0.59942700  1
  C  C34  1  0.32186300  0.25618100  0.40057300  1
  C  C35  1  0.07316300  0.36071500  0.46641500  1
  C  C36  1  0.92683700  0.63928500  0.53358500  1
  C  C37  1  0.54204200  0.35875500  0.25096800  1
  C  C38  1  0.45795800  0.64124500  0.74903200  1
  C  C39  1  0.50656200  0.35997000  0.09571500  1
  C  C40  1  0.49343800  0.64003000  0.90428500  1
  C  C41  1  0.63101700  0.29593800  0.60183600  1
  C  C42  1  0.36898300  0.70406200  0.39816500  1
  C  C43  1  0.60250500  0.12270900  0.61251600  1
  C  C44  1  0.39749500  0.87729100  0.38748400  1
  C  C45  1  0.70368800  0.91917200  0.59546500  1
  C  C46  1  0.29631200  0.08082800  0.40453600  1
  N  N1  1  0.53451700  0.48397200  0.98109400  1
  N  N2  1  0.46548300  0.51602800  0.01890600  1
  N  N3  1  0.52402300  0.72423600  0.49848700  1
  N  N4  1  0.47597700  0.27576400  0.50151300  1
  N  N5  1  0.54921300  0.99074300  0.50500000  1
  N  N6  1  0.45078700  0.00925700  0.49500000  1
  N  N7  1  0.18148200  0.63251200  0.59673400  1
  N  N8  1  0.81851800  0.36748800  0.40326600  1
  N  N9  1  0.73783300  0.71743400  0.64309200  1
  N  N10  1  0.26216700  0.28256600  0.35690800  1
  N  N11  1  0.02858900  0.28998500  0.44851300  1
  N  N12  1  0.97141100  0.71001400  0.55148700  1
  N  N13  1  0.56465200  0.29800800  0.27786700  1
  N  N14  1  0.43534800  0.70199200  0.72213300  1
  N  N15  1  0.50938500  0.29816900  0.06252100  1
  N  N16  1  0.49061600  0.70183100  0.93747900  1
  N  N17  1  0.70055500  0.33903300  0.64353100  1
  N  N18  1  0.29944600  0.66096700  0.35646900  1
  N  N19  1  0.65395500  0.09856500  0.66263000  1
  N  N20  1  0.34604500  0.90143500  0.33737000  1
  N  N21  1  0.77704400  0.96189600  0.63507900  1
  N  N22  1  0.22295600  0.03810400  0.36492100  1
  O  O1  1  0.48853000  0.42514200  0.61640600  1
  O  O2  1  0.51147000  0.57485800  0.38359400  1
  O  O3  1  0.50534800  0.57161700  0.61469800  1
  O  O4  1  0.49465200  0.42838300  0.38530200  1
  O  O5  1  0.67126000  0.45117000  0.50403900  1
  O  O6  1  0.32874000  0.54883000  0.49596100  1
  O  O7  1  0.68816600  0.59769600  0.50181700  1
  O  O8  1  0.31183400  0.40230400  0.49818300  1
