# generated using pymatgen
data_Fe2H19C56Br(NO5)4
_symmetry_space_group_name_H-M   'P 1'
_cell_length_a   14.93156700
_cell_length_b   29.34864900
_cell_length_c   11.52731300
_cell_angle_alpha   50.75080800
_cell_angle_beta   78.88269300
_cell_angle_gamma   96.43805500
_symmetry_Int_Tables_number   1
_chemical_formula_structural   Fe2H19C56Br(NO5)4
_chemical_formula_sum   'Fe2 H19 C56 Br1 N4 O20'
_cell_volume   3651.75081323
_cell_formula_units_Z   1
loop_
 _symmetry_equiv_pos_site_id
 _symmetry_equiv_pos_as_xyz
  1  'x, y, z'
loop_
 _atom_site_type_symbol
 _atom_site_label
 _atom_site_symmetry_multiplicity
 _atom_site_fract_x
 _atom_site_fract_y
 _atom_site_fract_z
 _atom_site_occupancy
  Fe  Fe1  1  0.50126700  0.00021300  0.25374500  1
  Fe  Fe2  1  0.49796300  0.00082100  0.74570800  1
  H  H1  1  0.77292800  0.97168500  0.76405200  1
  H  H2  1  0.92816800  0.96870800  0.80459800  1
  H  H3  1  0.84847600  0.01088100  0.09596900  1
  H  H4  1  0.07050900  0.03126500  0.19591900  1
  H  H5  1  0.22614700  0.02917500  0.23513100  1
  H  H6  1  0.14952200  0.98690800  0.90935000  1
  H  H7  1  0.73070200  0.21877600  0.88391000  1
  H  H8  1  0.80838300  0.30418900  0.85598000  1
  H  H9  1  0.31227800  0.80868200  0.64021500  1
  H  H10  1  0.03788700  0.71346100  0.66318100  1
  H  H11  1  0.94754700  0.63156400  0.69931000  1
  H  H12  1  0.90149800  0.56541500  0.69587600  1
  H  H13  1  0.68240600  0.19295200  0.35865400  1
  H  H14  1  0.93943200  0.28504600  0.36710300  1
  H  H15  1  0.12571100  0.43867600  0.26770600  1
  H  H16  1  0.28033100  0.77938100  0.11749600  1
  H  H17  1  0.21022500  0.52302000  0.22781700  1
  H  H18  1  0.20269700  0.69377200  0.14564000  1
  H  H19  1  0.02585900  0.36657400  0.33576000  1
  C  C1  1  0.78937500  0.97962800  0.83832700  1
  C  C2  1  0.87686100  0.97845000  0.86003400  1
  C  C3  1  0.90037500  0.99131900  0.94841400  1
  C  C4  1  0.83374600  0.00305200  0.02077300  1
  C  C5  1  0.74554400  0.00372300  0.00006300  1
  C  C6  1  0.72470400  0.99386900  0.90447100  1
  C  C7  1  0.12173800  0.02120500  0.14131900  1
  C  C8  1  0.20945800  0.02056100  0.16219500  1
  C  C9  1  0.27410300  0.00607100  0.09680100  1
  C  C10  1  0.25289600  0.99526600  0.00314100  1
  C  C11  1  0.16445700  0.99538200  0.98327800  1
  C  C12  1  0.09795900  0.00754300  0.05456800  1
  C  C13  1  0.39551000  0.91155000  0.56915000  1
  C  C14  1  0.36114400  0.99825600  0.13743000  1
  C  C15  1  0.67254600  0.00994100  0.08993000  1
  C  C16  1  0.61830000  0.10612400  0.15094400  1
  C  C17  1  0.38517900  0.89381800  0.84908400  1
  C  C18  1  0.32599200  0.98886500  0.91391800  1
  C  C19  1  0.63798900  0.00222800  0.86296500  1
  C  C20  1  0.60348100  0.08920200  0.43051900  1
  C  C21  1  0.79732200  0.36277800  0.96867900  1
  C  C22  1  0.84455800  0.29444400  0.18674400  1
  C  C23  1  0.69420900  0.19883000  0.25387500  1
  C  C24  1  0.65392200  0.14935600  0.27070200  1
  C  C25  1  0.72030100  0.21266600  0.98890700  1
  C  C26  1  0.76261800  0.26149100  0.97266900  1
  C  C27  1  0.74975000  0.25489800  0.10497500  1
  C  C28  1  0.89671000  0.40248000  0.04461400  1
  C  C29  1  0.84750700  0.41240200  0.94473600  1
  C  C30  1  0.85008900  0.47194800  0.82067500  1
  C  C31  1  0.89429800  0.34289500  0.16676000  1
  C  C32  1  0.66606600  0.15637000  0.13772800  1
  C  C33  1  0.33772900  0.84343300  0.86252100  1
  C  C34  1  0.99730100  0.56014300  0.88180200  1
  C  C35  1  0.05485000  0.49015000  0.09460400  1
  C  C36  1  0.05179300  0.54946900  0.97685400  1
  C  C37  1  0.99240300  0.61983300  0.77065200  1
  C  C38  1  0.04341600  0.66775000  0.75042200  1
  C  C39  1  0.09978400  0.65741600  0.84090000  1
  C  C40  1  0.10347900  0.59851500  0.95425200  1
  C  C41  1  0.15911100  0.58921400  0.04527200  1
  C  C42  1  0.20924100  0.63823200  0.02304600  1
  C  C43  1  0.15059600  0.70570200  0.82080300  1
  C  C44  1  0.30442300  0.80210500  0.74550000  1
  C  C45  1  0.34612800  0.85125200  0.72896400  1
  C  C46  1  0.28734300  0.78626100  0.01193000  1
  C  C47  1  0.24484200  0.73746300  0.02813600  1
  C  C48  1  0.25267900  0.74525300  0.89495900  1
  C  C49  1  0.94838800  0.51117500  0.90056100  1
  C  C50  1  0.94826900  0.45151500  0.02235700  1
  C  C51  1  0.99957500  0.44050500  0.12176500  1
  C  C52  1  0.90014000  0.52055500  0.79870800  1
  C  C53  1  0.94207000  0.33167500  0.26868600  1
  C  C54  1  0.11423700  0.48203600  0.18175300  1
  C  C55  1  0.16522900  0.53102000  0.15752400  1
  C  C56  1  0.99366700  0.37966600  0.24749500  1
  Br  Br1  1  0.78754500  0.49049400  0.67222500  1
  N  N1  1  0.99210200  0.99178100  0.96368200  1
  N  N2  1  0.00620700  0.00695500  0.03941400  1
  N  N3  1  0.79705600  0.30491300  0.08791100  1
  N  N4  1  0.20425100  0.69555400  0.91187800  1
  O  O1  1  0.46523900  0.91713800  0.46821500  1
  O  O2  1  0.38599300  0.94903800  0.18470500  1
  O  O3  1  0.36347500  0.95858600  0.52087600  1
  O  O4  1  0.40461800  0.03420300  0.15380100  1
  O  O5  1  0.58288900  0.99771700  0.09892900  1
  O  O6  1  0.69430900  0.02057100  0.17742400  1
  O  O7  1  0.55848800  0.05416100  0.28833300  1
  O  O8  1  0.63026500  0.11464600  0.02196700  1
  O  O9  1  0.44070300  0.94712200  0.71032100  1
  O  O10  1  0.37628500  0.88454100  0.97860100  1
  O  O11  1  0.41611100  0.00328000  0.90054400  1
  O  O12  1  0.30370100  0.97614300  0.83059800  1
  O  O13  1  0.63444500  0.04175200  0.47932700  1
  O  O14  1  0.59417400  0.96644400  0.84638300  1
  O  O15  1  0.53440100  0.08405500  0.53127800  1
  O  O16  1  0.61398900  0.05177300  0.81483400  1
  O  O17  1  0.74663600  0.37182600  0.87525900  1
  O  O18  1  0.14351700  0.76262000  0.71411800  1
  O  O19  1  0.84688200  0.23694000  0.30132200  1
  O  O20  1  0.26477300  0.62892100  0.11056100  1
