# generated using pymatgen
data_Fe2H19C48O16F
_symmetry_space_group_name_H-M   'P 1'
_cell_length_a   13.17675000
_cell_length_b   18.18212600
_cell_length_c   12.94108500
_cell_angle_alpha   100.59395000
_cell_angle_beta   100.73928200
_cell_angle_gamma   80.58404200
_symmetry_Int_Tables_number   1
_chemical_formula_structural   Fe2H19C48O16F
_chemical_formula_sum   'Fe2 H19 C48 O16 F1'
_cell_volume   2967.24078828
_cell_formula_units_Z   1
loop_
 _symmetry_equiv_pos_site_id
 _symmetry_equiv_pos_as_xyz
  1  'x, y, z'
loop_
 _atom_site_type_symbol
 _atom_site_label
 _atom_site_symmetry_multiplicity
 _atom_site_fract_x
 _atom_site_fract_y
 _atom_site_fract_z
 _atom_site_occupancy
  Fe  Fe1  1  0.49597000  0.00340600  0.22530400  1
  Fe  Fe2  1  0.49827000  0.99924000  0.77489600  1
  H  H1  1  0.10628000  0.98609900  0.73522600  1
  H  H2  1  0.93149600  0.97028200  0.71951600  1
  H  H3  1  0.78369200  0.96344900  0.79506200  1
  H  H4  1  0.21376700  0.02427400  0.20454100  1
  H  H5  1  0.06739400  0.01950200  0.28018900  1
  H  H6  1  0.48290700  0.10765100  0.51071000  1
  H  H7  1  0.26918400  0.26964100  0.35792800  1
  H  H8  1  0.28446900  0.27188000  0.69034700  1
  H  H9  1  0.00330400  0.59213800  0.65764800  1
  H  H10  1  0.87464100  0.69996400  0.64190500  1
  H  H11  1  0.75960100  0.60439700  0.32210900  1
  H  H12  1  0.89846600  0.50005600  0.33298000  1
  H  H13  1  0.71623700  0.73568700  0.31692600  1
  H  H14  1  0.50324000  0.89276500  0.48669800  1
  H  H15  1  0.70372900  0.72762500  0.64307800  1
  H  H16  1  0.94787100  0.39162400  0.40216100  1
  H  H17  1  0.08162100  0.28365800  0.41439900  1
  H  H18  1  0.28438500  0.42014600  0.63425200  1
  H  H19  1  0.15559100  0.53056800  0.61628000  1
  C  C1  1  0.21338600  0.00245700  0.88110700  1
  C  C2  1  0.11681300  0.99262600  0.82103900  1
  C  C3  1  0.03258000  0.98935600  0.86822300  1
  C  C4  1  0.93873900  0.97772800  0.80527000  1
  C  C5  1  0.85311600  0.97480600  0.85009200  1
  C  C6  1  0.22445300  0.00909300  0.99219500  1
  C  C7  1  0.13756800  0.00642700  0.03957700  1
  C  C8  1  0.04165600  0.99677000  0.97698900  1
  C  C9  1  0.95456600  0.99487200  0.02289200  1
  C  C10  1  0.85864500  0.98531000  0.96016300  1
  C  C11  1  0.77118800  0.98436700  0.00774300  1
  C  C12  1  0.14379000  0.01514200  0.14942500  1
  C  C13  1  0.05829400  0.01281300  0.19441600  1
  C  C14  1  0.96370400  0.00249700  0.13177300  1
  C  C15  1  0.87915300  0.00043800  0.17932100  1
  C  C16  1  0.78211800  0.99146100  0.11900100  1
  C  C17  1  0.69403700  0.99212300  0.17637300  1
  C  C18  1  0.57414200  0.86201700  0.30296100  1
  C  C19  1  0.32565800  0.01982100  0.05991600  1
  C  C20  1  0.40328500  0.14424600  0.32380200  1
  C  C21  1  0.57793000  0.85503200  0.67509000  1
  C  C22  1  0.66890900  0.97632600  0.94026200  1
  C  C23  1  0.41887600  0.14009900  0.69864600  1
  C  C24  1  0.30025800  0.00280600  0.82269200  1
  C  C25  1  0.38360600  0.18777300  0.42628500  1
  C  C26  1  0.30552500  0.24786200  0.43023100  1
  C  C27  1  0.27381000  0.28049200  0.52592800  1
  C  C28  1  0.31504500  0.24927900  0.61735900  1
  C  C29  1  0.38932600  0.18577900  0.61217600  1
  C  C30  1  0.42701700  0.15810300  0.51751500  1
  C  C31  1  0.95277700  0.59449800  0.58207400  1
  C  C32  1  0.87657500  0.65558500  0.57394800  1
  C  C33  1  0.80459200  0.65961100  0.48171100  1
  C  C34  1  0.81444900  0.60314800  0.39529400  1
  C  C35  1  0.89252100  0.54260300  0.40257400  1
  C  C36  1  0.96122700  0.53680200  0.49692100  1
  C  C37  1  0.68010400  0.75468100  0.38727500  1
  C  C38  1  0.60246200  0.81629900  0.38947100  1
  C  C39  1  0.56007400  0.84277700  0.48166000  1
  C  C40  1  0.59877000  0.81183300  0.57266000  1
  C  C41  1  0.67571100  0.75105100  0.57054200  1
  C  C42  1  0.71717000  0.72171200  0.47840900  1
  C  C43  1  0.02184400  0.39971900  0.45202400  1
  C  C44  1  0.09704900  0.33785700  0.46011700  1
  C  C45  1  0.19106400  0.34466600  0.52636700  1
  C  C46  1  0.20978200  0.41391900  0.58439400  1
  C  C47  1  0.13594300  0.47649000  0.57403800  1
  C  C48  1  0.04103500  0.47012200  0.50751800  1
  O  O1  1  0.59690500  0.00805100  0.13174600  1
  O  O2  1  0.61187300  0.84136600  0.21351100  1
  O  O3  1  0.71260300  0.97901500  0.27495400  1
  O  O4  1  0.51978400  0.92878400  0.32403800  1
  O  O5  1  0.36517400  0.97466300  0.13011500  1
  O  O6  1  0.37256100  0.07739900  0.05577500  1
  O  O7  1  0.49581500  0.10541200  0.31665500  1
  O  O8  1  0.32266000  0.12791700  0.25255100  1
  O  O9  1  0.48878900  0.89919500  0.67969900  1
  O  O10  1  0.65790300  0.86603800  0.74993600  1
  O  O11  1  0.63329900  0.02080700  0.86830600  1
  O  O12  1  0.61614200  0.92274800  0.94796600  1
  O  O13  1  0.28007700  0.00594800  0.72027200  1
  O  O14  1  0.47950400  0.07583400  0.67978300  1
  O  O15  1  0.39768200  0.99756100  0.87033600  1
  O  O16  1  0.37402800  0.15669200  0.78395300  1
  F  F1  1  0.89180800  0.01055100  0.28715000  1
