# generated using pymatgen
data_ZnH11C13N5O4
_symmetry_space_group_name_H-M   'P 1'
_cell_length_a   9.21411100
_cell_length_b   8.44857500
_cell_length_c   15.12898200
_cell_angle_alpha   90.00000000
_cell_angle_beta   98.80541300
_cell_angle_gamma   90.00000000
_symmetry_Int_Tables_number   1
_chemical_formula_structural   ZnH11C13N5O4
_chemical_formula_sum   'Zn2 H22 C26 N10 O8'
_cell_volume   1163.85152086
_cell_formula_units_Z   2
loop_
 _symmetry_equiv_pos_site_id
 _symmetry_equiv_pos_as_xyz
  1  'x, y, z'
loop_
 _atom_site_type_symbol
 _atom_site_label
 _atom_site_symmetry_multiplicity
 _atom_site_fract_x
 _atom_site_fract_y
 _atom_site_fract_z
 _atom_site_occupancy
  Zn  Zn1  1  0.16175100  0.49445800  0.49963700  1
  Zn  Zn2  1  0.83820500  0.49470900  0.50060100  1
  H  H1  1  0.92546200  0.99452300  0.43274100  1
  H  H2  1  0.07438300  0.99463900  0.56744100  1
  H  H3  1  0.36551000  0.74295100  0.49781800  1
  H  H4  1  0.63447600  0.24624100  0.50241200  1
  H  H5  1  0.63295100  0.74356000  0.49980500  1
  H  H6  1  0.36702300  0.24559900  0.50042500  1
  H  H7  1  0.99105600  0.27530000  0.12246400  1
  H  H8  1  0.88682000  0.34927800  0.19458200  1
  H  H9  1  0.00903400  0.71394300  0.87779600  1
  H  H10  1  0.11292600  0.63983100  0.80552800  1
  H  H11  1  0.98822100  0.27335500  0.87468800  1
  H  H12  1  0.09548100  0.35516500  0.80574300  1
  H  H13  1  0.01240900  0.71585000  0.12563900  1
  H  H14  1  0.90510000  0.63393200  0.19450400  1
  H  H15  1  0.70688500  0.01078100  0.09617100  1
  H  H16  1  0.75416700  0.81723900  0.10196300  1
  H  H17  1  0.24638900  0.17142600  0.89827400  1
  H  H18  1  0.29329800  0.97776600  0.90420000  1
  H  H19  1  0.76759300  0.91833900  0.81251000  1
  H  H20  1  0.66666667  0.98757900  0.88796900  1
  H  H21  1  0.23139300  0.07612700  0.18758500  1
  H  H22  1  0.27583900  0.19752800  0.10732300  1
  C  C1  1  0.95373200  0.13568700  0.32072400  1
  C  C2  1  0.04618800  0.85348000  0.67949000  1
  C  C3  1  0.04576500  0.13554400  0.67947800  1
  C  C4  1  0.95426900  0.85362200  0.32073700  1
  C  C5  1  0.97267700  0.13769700  0.23209600  1
  C  C6  1  0.02723500  0.85147200  0.76812300  1
  C  C7  1  0.02465200  0.13711800  0.76775600  1
  C  C8  1  0.97563700  0.85206600  0.23250300  1
  C  C9  1  0.97824100  0.99487600  0.18618000  1
  C  C10  1  0.02199200  0.99429600  0.81407300  1
  C  C11  1  0.93800500  0.99460000  0.36303900  1
  C  C12  1  0.06185800  0.99456100  0.63715000  1
  C  C13  1  0.87131900  0.95264400  0.02954900  1
  C  C14  1  0.12886100  0.03646300  0.97069600  1
  C  C15  1  0.87830900  0.95184600  0.93913900  1
  C  C16  1  0.12185100  0.03740700  0.06109000  1
  C  C17  1  0.00812100  0.99438100  0.90939300  1
  C  C18  1  0.99204900  0.99485200  0.09085200  1
  C  C19  1  0.42455800  0.63227000  0.49863400  1
  C  C20  1  0.57539500  0.35690600  0.50156300  1
  C  C21  1  0.57459400  0.63261400  0.50011700  1
  C  C22  1  0.42536000  0.35655700  0.50008000  1
  C  C23  1  0.96793700  0.27902300  0.37523500  1
  C  C24  1  0.03200100  0.71016400  0.62498000  1
  C  C25  1  0.03157000  0.27882800  0.62490700  1
  C  C26  1  0.96840500  0.71032700  0.37531500  1
  N  N1  1  0.64810600  0.49490500  0.50124200  1
  N  N2  1  0.35185400  0.49426900  0.49900400  1
  N  N3  1  0.98367100  0.28780900  0.19006900  1
  N  N4  1  0.01615800  0.70137600  0.81015500  1
  N  N5  1  0.00207400  0.28636600  0.80804100  1
  N  N6  1  0.99845000  0.70284500  0.19226500  1
  N  N7  1  0.73624700  0.91459900  0.05935000  1
  N  N8  1  0.26406600  0.07411500  0.94094600  1
  N  N9  1  0.74989100  0.90823500  0.87862300  1
  N  N10  1  0.25044000  0.08072700  0.12154000  1
  O  O1  1  0.85029800  0.33366100  0.40399100  1
  O  O2  1  0.14965300  0.65546600  0.59626900  1
  O  O3  1  0.14929500  0.33333333  0.59617400  1
  O  O4  1  0.85065400  0.65576800  0.40403500  1
  O  O5  1  0.10129700  0.32751200  0.40642500  1
  O  O6  1  0.89865400  0.66170400  0.59378300  1
  O  O7  1  0.89830500  0.32755400  0.59374800  1
  O  O8  1  0.10166900  0.66165900  0.40651500  1
