# generated using pymatgen
data_CuH24C44(NO2)6
_symmetry_space_group_name_H-M   'P 1'
_cell_length_a   32.89178400
_cell_length_b   32.88939300
_cell_length_c   21.97833600
_cell_angle_alpha   90.00000000
_cell_angle_beta   90.00000000
_cell_angle_gamma   90.00000000
_symmetry_Int_Tables_number   1
_chemical_formula_structural   CuH24C44(NO2)6
_chemical_formula_sum   'Cu4 H96 C176 N24 O48'
_cell_volume   23775.96191372
_cell_formula_units_Z   4
loop_
 _symmetry_equiv_pos_site_id
 _symmetry_equiv_pos_as_xyz
  1  'x, y, z'
loop_
 _atom_site_type_symbol
 _atom_site_label
 _atom_site_symmetry_multiplicity
 _atom_site_fract_x
 _atom_site_fract_y
 _atom_site_fract_z
 _atom_site_occupancy
  Cu  Cu1  1  0.99996400  0.50020000  0.55936800  1
  Cu  Cu2  1  0.00004100  0.50000100  0.44058300  1
  Cu  Cu3  1  0.49995900  0.99994000  0.55942800  1
  Cu  Cu4  1  0.49971200  0.00070500  0.44061300  1
  H  H1  1  0.29588600  0.65252300  0.50466300  1
  H  H2  1  0.70428400  0.34739000  0.50271300  1
  H  H3  1  0.70406400  0.65258000  0.49506800  1
  H  H4  1  0.29567200  0.34746600  0.49749900  1
  H  H5  1  0.79595200  0.15241800  0.50429300  1
  H  H6  1  0.20422800  0.84749400  0.50329700  1
  H  H7  1  0.20410400  0.15245500  0.49590200  1
  H  H8  1  0.79580900  0.84751500  0.49652700  1
  H  H9  1  0.84776200  0.20440300  0.50371000  1
  H  H10  1  0.15244500  0.79552100  0.50266400  1
  H  H11  1  0.15224800  0.20440200  0.49648400  1
  H  H12  1  0.84755100  0.79550800  0.49708100  1
  H  H13  1  0.34769500  0.70449400  0.50402300  1
  H  H14  1  0.65250300  0.29540100  0.50222500  1
  H  H15  1  0.65227700  0.70456700  0.49567700  1
  H  H16  1  0.34747900  0.29549900  0.49807500  1
  H  H17  1  0.88240000  0.33475600  0.58503500  1
  H  H18  1  0.11729100  0.66580400  0.58446300  1
  H  H19  1  0.11760200  0.33466300  0.41526500  1
  H  H20  1  0.88269300  0.66569100  0.41516800  1
  H  H21  1  0.38259000  0.83479300  0.58504400  1
  H  H22  1  0.61762400  0.16573500  0.58448000  1
  H  H23  1  0.61737100  0.83464500  0.41532500  1
  H  H24  1  0.38236700  0.16561500  0.41519100  1
  H  H25  1  0.93544600  0.38604400  0.58283900  1
  H  H26  1  0.06392900  0.61471400  0.58191400  1
  H  H27  1  0.06437000  0.38578200  0.41749700  1
  H  H28  1  0.93585300  0.61441600  0.41764500  1
  H  H29  1  0.43574900  0.88596600  0.58237700  1
  H  H30  1  0.56431800  0.11459800  0.58243900  1
  H  H31  1  0.56419600  0.88571100  0.41771800  1
  H  H32  1  0.43565500  0.11437100  0.41751700  1
  H  H33  1  0.88523000  0.43442500  0.41868000  1
  H  H34  1  0.11528600  0.56524700  0.41934000  1
  H  H35  1  0.11470900  0.43457300  0.58125800  1
  H  H36  1  0.88462400  0.56535400  0.58062700  1
  H  H37  1  0.38501000  0.93447000  0.41870400  1
  H  H38  1  0.61507900  0.06515800  0.41938200  1
  H  H39  1  0.61485300  0.93448900  0.58141000  1
  H  H40  1  0.38483200  0.06524400  0.58060200  1
  H  H41  1  0.83369700  0.38157200  0.41928900  1
  H  H42  1  0.16710200  0.61789400  0.42028700  1
  H  H43  1  0.16636900  0.38188200  0.58074900  1
  H  H44  1  0.83295900  0.61818700  0.57962500  1
  H  H45  1  0.33345100  0.88161900  0.41960400  1
  H  H46  1  0.66693400  0.11774800  0.41999500  1
  H  H47  1  0.66632900  0.88176000  0.58076800  1
  H  H48  1  0.33289500  0.11796100  0.57971300  1
  H  H49  1  0.89915200  0.50259800  0.94520700  1
  H  H50  1  0.10136500  0.50276700  0.05470000  1
  H  H51  1  0.10135100  0.49749500  0.94513500  1
  H  H52  1  0.89916100  0.49775000  0.05484700  1
  H  H53  1  0.39878600  0.00261500  0.94518600  1
  H  H54  1  0.60096800  0.00239100  0.05490000  1
  H  H55  1  0.60099600  0.99758400  0.94526100  1
  H  H56  1  0.39875700  0.99735500  0.05473900  1
  H  H57  1  0.05243900  0.46173900  0.23191500  1
  H  H58  1  0.94828800  0.46112500  0.76799100  1
  H  H59  1  0.94815600  0.53859700  0.23183800  1
  H  H60  1  0.05258600  0.53797800  0.76811200  1
  H  H61  1  0.55181800  0.96130000  0.23176700  1
  H  H62  1  0.44803300  0.96111600  0.76809200  1
  H  H63  1  0.44762700  0.03828300  0.23204200  1
  H  H64  1  0.55220500  0.03812400  0.76818700  1
  H  H65  1  0.07126900  0.43639100  0.33919900  1
  H  H66  1  0.14122600  0.46187700  0.39971800  1
  H  H67  1  0.16281400  0.49697400  0.34510800  1
  H  H68  1  0.14541700  0.44743200  0.32043600  1
  H  H69  1  0.92879600  0.43645400  0.66106700  1
  H  H70  1  0.85914600  0.46237600  0.60024300  1
  H  H71  1  0.83763800  0.49765900  0.65468100  1
  H  H72  1  0.85477100  0.44805000  0.67954200  1
  H  H73  1  0.92906300  0.56379900  0.33962900  1
  H  H74  1  0.85916100  0.53776900  0.39949700  1
  H  H75  1  0.83767300  0.50268700  0.34475500  1
  H  H76  1  0.85476900  0.55239900  0.32026100  1
  H  H77  1  0.07098700  0.56383300  0.65974300  1
  H  H78  1  0.14120100  0.53818300  0.60029500  1
  H  H79  1  0.16281100  0.50333500  0.65522900  1
  H  H80  1  0.14548600  0.55300600  0.67947000  1
  H  H81  1  0.57098200  0.93611600  0.33978800  1
  H  H82  1  0.64103900  0.96210400  0.39950600  1
  H  H83  1  0.66232600  0.99730000  0.34471700  1
  H  H84  1  0.64518500  0.94762200  0.32016000  1
  H  H85  1  0.42878500  0.93615700  0.66071300  1
  H  H86  1  0.35885400  0.96195000  0.60069300  1
  H  H87  1  0.33762000  0.99760300  0.65481600  1
  H  H88  1  0.35440500  0.94800600  0.68021800  1
  H  H89  1  0.42891200  0.06366000  0.33913100  1
  H  H90  1  0.35909000  0.03811700  0.40007800  1
  H  H91  1  0.33716600  0.00329300  0.34543400  1
  H  H92  1  0.35453900  0.05289400  0.32099900  1
  H  H93  1  0.57087600  0.06371100  0.66052400  1
  H  H94  1  0.64084200  0.03803500  0.59994000  1
  H  H95  1  0.66277600  0.00364900  0.65525000  1
  H  H96  1  0.64498500  0.05329600  0.67886500  1
  C  C1  1  0.03093800  0.48249300  0.31737900  1
  C  C2  1  0.96958000  0.48216600  0.68257400  1
  C  C3  1  0.96965800  0.51795800  0.31734900  1
  C  C4  1  0.03087200  0.51761300  0.68257500  1
  C  C5  1  0.53041700  0.98195700  0.31738200  1
  C  C6  1  0.46945600  0.98192700  0.68263400  1
  C  C7  1  0.46916300  0.01746500  0.31739700  1
  C  C8  1  0.53070500  0.01745200  0.68267100  1
  C  C9  1  0.05431000  0.44563500  0.50023500  1
  C  C10  1  0.94563200  0.55449300  0.49986600  1
  C  C11  1  0.94567400  0.44566100  0.50009200  1
  C  C12  1  0.05434000  0.55453400  0.49971700  1
  C  C13  1  0.55427000  0.94573400  0.50018700  1
  C  C14  1  0.44560200  0.05461300  0.50000000  1
  C  C15  1  0.44560400  0.94572300  0.49977400  1
  C  C16  1  0.55430200  0.05457000  0.50011900  1
  C  C17  1  0.16549500  0.71562300  0.50270000  1
  C  C18  1  0.83472500  0.28430100  0.50257100  1
  C  C19  1  0.83448800  0.71565800  0.49722500  1
  C  C20  1  0.16526900  0.28435200  0.49744900  1
  C  C21  1  0.66555800  0.21553300  0.50226300  1
  C  C22  1  0.33465600  0.78441000  0.50297500  1
  C  C23  1  0.33445700  0.21558900  0.49775800  1
  C  C24  1  0.66534200  0.78443800  0.49701400  1
  C  C25  1  0.21596200  0.66529900  0.50444700  1
  C  C26  1  0.78423200  0.33462600  0.50319400  1
  C  C27  1  0.78401300  0.66534300  0.49547700  1
  C  C28  1  0.21575200  0.33468500  0.49683500  1
  C  C29  1  0.71602100  0.16520000  0.50394100  1
  C  C30  1  0.28416600  0.83473000  0.50377500  1
  C  C31  1  0.28398900  0.16526500  0.49597200  1
  C  C32  1  0.71582300  0.83477200  0.49635200  1
  C  C33  1  0.24597400  0.69473200  0.50423400  1
  C  C34  1  0.75422600  0.30518800  0.50296300  1
  C  C35  1  0.75400300  0.69477100  0.49564700  1
  C  C36  1  0.24576100  0.30524400  0.49712900  1
  C  C37  1  0.74603500  0.19462900  0.50365600  1
  C  C38  1  0.25415900  0.80529100  0.50361900  1
  C  C39  1  0.25397800  0.19468900  0.49647600  1
  C  C40  1  0.74583700  0.80533200  0.49627700  1
  C  C41  1  0.23527100  0.73515800  0.50384900  1
  C  C42  1  0.76493700  0.26476300  0.50317400  1
  C  C43  1  0.76471400  0.73519300  0.49597700  1
  C  C44  1  0.23506000  0.26481500  0.49699300  1
  C  C45  1  0.73533500  0.23505500  0.50325100  1
  C  C46  1  0.26487100  0.76486600  0.50378000  1
  C  C47  1  0.26467100  0.23511600  0.49696100  1
  C  C48  1  0.73512000  0.76490700  0.49602100  1
  C  C49  1  0.19481800  0.74573000  0.50339200  1
  C  C50  1  0.80539300  0.25418900  0.50320500  1
  C  C51  1  0.80516600  0.74575700  0.49650100  1
  C  C52  1  0.19460400  0.25423200  0.49687500  1
  C  C53  1  0.69488400  0.24563100  0.50281600  1
  C  C54  1  0.30532700  0.75429400  0.50374200  1
  C  C55  1  0.30512400  0.24569700  0.49737900  1
  C  C56  1  0.69466600  0.75433800  0.49607500  1
  C  C57  1  0.28660000  0.68402700  0.50446400  1
  C  C58  1  0.71359600  0.31589300  0.50283800  1
  C  C59  1  0.71337200  0.68407400  0.49529900  1
  C  C60  1  0.28638500  0.31595900  0.49737300  1
  C  C61  1  0.78666200  0.18392200  0.50400200  1
  C  C62  1  0.21353100  0.81599500  0.50343800  1
  C  C63  1  0.21336000  0.18396700  0.49622400  1
  C  C64  1  0.78647300  0.81602300  0.49635100  1
  C  C65  1  0.81623100  0.21359200  0.50356800  1
  C  C66  1  0.18397200  0.78632500  0.50307600  1
  C  C67  1  0.18377600  0.21362300  0.49661300  1
  C  C68  1  0.81602100  0.78634200  0.49671900  1
  C  C69  1  0.31616800  0.71369500  0.50399400  1
  C  C70  1  0.68403600  0.28622100  0.50254600  1
  C  C71  1  0.68381300  0.71374900  0.49570400  1
  C  C72  1  0.31595600  0.28629700  0.49775300  1
  C  C73  1  0.88316700  0.35639200  0.54802700  1
  C  C74  1  0.11667000  0.64392700  0.54777600  1
  C  C75  1  0.11677300  0.35633300  0.45222200  1
  C  C76  1  0.88325200  0.64384700  0.45190300  1
  C  C77  1  0.38326500  0.85643900  0.54803500  1
  C  C78  1  0.61689200  0.14385200  0.54781700  1
  C  C79  1  0.61671200  0.85636700  0.45221500  1
  C  C80  1  0.38311000  0.14380400  0.45197200  1
  C  C81  1  0.91296000  0.38584000  0.54706500  1
  C  C82  1  0.08674900  0.61461600  0.54660300  1
  C  C83  1  0.08689700  0.38569200  0.45322600  1
  C  C84  1  0.91308700  0.61444500  0.45302200  1
  C  C85  1  0.41310100  0.88583500  0.54681800  1
  C  C86  1  0.58697900  0.11453300  0.54691700  1
  C  C87  1  0.58684000  0.88572100  0.45327700  1
  C  C88  1  0.41298900  0.11444800  0.45304100  1
  C  C89  1  0.91416400  0.41414300  0.50062300  1
  C  C90  1  0.08584500  0.58606600  0.50043600  1
  C  C91  1  0.08574700  0.41406500  0.49962600  1
  C  C92  1  0.91405000  0.58596600  0.49923200  1
  C  C93  1  0.41414700  0.91416200  0.50037700  1
  C  C94  1  0.58588800  0.08600800  0.50075800  1
  C  C95  1  0.58577400  0.91416200  0.49960400  1
  C  C96  1  0.41406800  0.08604800  0.49933200  1
  C  C97  1  0.88530000  0.41247800  0.45503500  1
  C  C98  1  0.11503400  0.58742200  0.45536700  1
  C  C99  1  0.11464800  0.41252000  0.54508000  1
  C  C100  1  0.88489700  0.58743700  0.54444100  1
  C  C101  1  0.38517300  0.91248800  0.45497900  1
  C  C102  1  0.61495500  0.08730700  0.45547900  1
  C  C103  1  0.61471000  0.91252800  0.54506800  1
  C  C104  1  0.38496400  0.08739800  0.54454900  1
  C  C105  1  0.85574500  0.38279200  0.45572400  1
  C  C106  1  0.14472700  0.61696400  0.45627200  1
  C  C107  1  0.14425800  0.38290900  0.54439700  1
  C  C108  1  0.85526600  0.61706200  0.54354500  1
  C  C109  1  0.35559400  0.88283300  0.45588100  1
  C  C110  1  0.64466300  0.11683600  0.45615700  1
  C  C111  1  0.64428000  0.88287600  0.54433800  1
  C  C112  1  0.35524800  0.11692900  0.54368800  1
  C  C113  1  0.85448500  0.35462700  0.50224500  1
  C  C114  1  0.14573500  0.64531900  0.50254200  1
  C  C115  1  0.14551000  0.35468600  0.49792200  1
  C  C116  1  0.85425000  0.64536100  0.49722900  1
  C  C117  1  0.35441100  0.85472800  0.50248300  1
  C  C118  1  0.64578400  0.14524400  0.50235000  1
  C  C119  1  0.64554600  0.85472800  0.49779000  1
  C  C120  1  0.35419600  0.14527500  0.49741400  1
  C  C121  1  0.00030100  0.50015300  0.22222900  1
  C  C122  1  0.00026400  0.49978700  0.77771200  1
  C  C123  1  0.49978800  0.99988100  0.22226000  1
  C  C124  1  0.50000900  0.99978500  0.77777900  1
  C  C125  1  0.03558400  0.49556200  0.87432300  1
  C  C126  1  0.96494000  0.49577200  0.12566500  1
  C  C127  1  0.96486700  0.50417500  0.87429900  1
  C  C128  1  0.03566100  0.50435900  0.12559600  1
  C  C129  1  0.53529600  0.99567200  0.87441900  1
  C  C130  1  0.46447200  0.99565700  0.12564200  1
  C  C131  1  0.46456800  0.00421600  0.87431600  1
  C  C132  1  0.53519900  0.00420600  0.12570300  1
  C  C133  1  0.96429700  0.50173500  0.93710900  1
  C  C134  1  0.03621300  0.50182900  0.06280900  1
  C  C135  1  0.03618200  0.49823900  0.93709500  1
  C  C136  1  0.96432600  0.49836500  0.06287300  1
  C  C137  1  0.46395600  0.00172500  0.93712200  1
  C  C138  1  0.53580200  0.00167000  0.06291400  1
  C  C139  1  0.53584400  0.99826800  0.93718900  1
  C  C140  1  0.46391400  0.99821200  0.06285600  1
  C  C141  1  0.00024700  0.50002400  0.96861900  1
  C  C142  1  0.00026000  0.50007700  0.03132400  1
  C  C143  1  0.49988700  0.99999000  0.96867000  1
  C  C144  1  0.49986500  0.99998900  0.03137100  1
  C  C145  1  0.92797100  0.50159900  0.96873100  1
  C  C146  1  0.07254300  0.50165400  0.03119700  1
  C  C147  1  0.07253200  0.49851400  0.96866200  1
  C  C148  1  0.92797900  0.49863400  0.03129900  1
  C  C149  1  0.42760600  0.00152600  0.96870100  1
  C  C150  1  0.57215500  0.00145500  0.03135300  1
  C  C151  1  0.57217400  0.99849200  0.96878900  1
  C  C152  1  0.42758700  0.99842000  0.03123900  1
  C  C153  1  0.02938700  0.47942100  0.25482200  1
  C  C154  1  0.97121600  0.47899700  0.74512300  1
  C  C155  1  0.97127300  0.52099800  0.25477000  1
  C  C156  1  0.02934200  0.52056600  0.74516200  1
  C  C157  1  0.52880300  0.97897600  0.25477600  1
  C  C158  1  0.47106100  0.97884900  0.74520300  1
  C  C159  1  0.47073500  0.02061600  0.25487200  1
  C  C160  1  0.52911800  0.02050500  0.74523000  1
  C  C161  1  0.09846500  0.49020800  0.34048600  1
  C  C162  1  0.13959300  0.47300400  0.35214500  1
  C  C163  1  0.90200500  0.49047200  0.65961600  1
  C  C164  1  0.86076600  0.47355900  0.64779900  1
  C  C165  1  0.90198100  0.50982800  0.33990600  1
  C  C166  1  0.86078200  0.52678600  0.35183100  1
  C  C167  1  0.09852100  0.51006700  0.65989700  1
  C  C168  1  0.13960300  0.52730200  0.64800400  1
  C  C169  1  0.59803500  0.99011400  0.34018900  1
  C  C170  1  0.63926000  0.97316300  0.35188500  1
  C  C171  1  0.40187200  0.99017700  0.65979700  1
  C  C172  1  0.36058600  0.97331100  0.64815900  1
  C  C173  1  0.40154000  0.00992200  0.34026500  1
  C  C174  1  0.36048000  0.02717500  0.35239900  1
  C  C175  1  0.59835800  0.00999900  0.65982900  1
  C  C176  1  0.63936000  0.02736200  0.64775000  1
  N  N1  1  0.00001700  0.49976700  0.34922800  1
  N  N2  1  0.99992900  0.50042500  0.65072200  1
  N  N3  1  0.50029100  0.00000400  0.34925600  1
  N  N4  1  0.49977500  0.00021600  0.65078500  1
  N  N5  1  0.17637300  0.67605100  0.50332400  1
  N  N6  1  0.82384100  0.32387500  0.50283800  1
  N  N7  1  0.82361000  0.67609500  0.49649000  1
  N  N8  1  0.17615000  0.32393500  0.49729400  1
  N  N9  1  0.67643300  0.17596200  0.50291400  1
  N  N10  1  0.32377100  0.82398200  0.50326100  1
  N  N11  1  0.32357700  0.17602200  0.49684200  1
  N  N12  1  0.67621800  0.82401200  0.49700900  1
  N  N13  1  0.00022800  0.49981100  0.84320800  1
  N  N14  1  0.00030700  0.50008400  0.15673400  1
  N  N15  1  0.49994800  0.99987300  0.84326900  1
  N  N16  1  0.49981300  0.99997600  0.15677100  1
  N  N17  1  0.06531200  0.46663000  0.34703200  1
  N  N18  1  0.93499300  0.46662500  0.65310400  1
  N  N19  1  0.93507500  0.53348900  0.34684900  1
  N  N20  1  0.06524900  0.53343300  0.65286300  1
  N  N21  1  0.56496900  0.96641000  0.34692600  1
  N  N22  1  0.43488800  0.96638600  0.65311800  1
  N  N23  1  0.43478200  0.03338100  0.34699100  1
  N  N24  1  0.56507300  0.03337900  0.65305800  1
  O  O1  1  0.04930500  0.46767400  0.55011700  1
  O  O2  1  0.96768200  0.54937900  0.45016200  1
  O  O3  1  0.95064900  0.53267700  0.54983800  1
  O  O4  1  0.03240400  0.45066200  0.45047500  1
  O  O5  1  0.95072900  0.46751400  0.45011900  1
  O  O6  1  0.03233600  0.54954300  0.54942000  1
  O  O7  1  0.04937400  0.53253500  0.44983100  1
  O  O8  1  0.96763100  0.45081500  0.54984600  1
  O  O9  1  0.54915500  0.96760900  0.55016100  1
  O  O10  1  0.46760100  0.04955300  0.45029900  1
  O  O11  1  0.45055900  0.03270100  0.54992100  1
  O  O12  1  0.53236500  0.95086400  0.45039400  1
  O  O13  1  0.45067300  0.96766500  0.44984600  1
  O  O14  1  0.53225800  0.04948500  0.54975800  1
  O  O15  1  0.54928900  0.03272600  0.45015400  1
  O  O16  1  0.46746400  0.95081600  0.54963000  1
  O  O17  1  0.12597400  0.72580100  0.49986600  1
  O  O18  1  0.87426700  0.27414200  0.50018600  1
  O  O19  1  0.87400900  0.72582300  0.50019800  1
  O  O20  1  0.12572600  0.27417900  0.49967800  1
  O  O21  1  0.62603000  0.22571400  0.49959600  1
  O  O22  1  0.37419200  0.77425400  0.50037400  1
  O  O23  1  0.37398800  0.22574900  0.50053600  1
  O  O24  1  0.62581000  0.77425800  0.49947500  1
  O  O25  1  0.22622300  0.62578900  0.50704000  1
  O  O26  1  0.77393300  0.37414800  0.50509400  1
  O  O27  1  0.77373800  0.62583200  0.49302900  1
  O  O28  1  0.22603700  0.37420800  0.49478400  1
  O  O29  1  0.72628100  0.12568800  0.50658300  1
  O  O30  1  0.27387600  0.87425300  0.50567200  1
  O  O31  1  0.27372300  0.12575700  0.49331600  1
  O  O32  1  0.72610300  0.87429900  0.49448300  1
  O  O33  1  0.07040000  0.48748000  0.84468500  1
  O  O34  1  0.93013300  0.48775200  0.15537400  1
  O  O35  1  0.93001300  0.51198000  0.84458800  1
  O  O36  1  0.07053000  0.51220700  0.15523200  1
  O  O37  1  0.57015300  0.98770400  0.84481500  1
  O  O38  1  0.42962600  0.98773400  0.15529400  1
  O  O39  1  0.42973600  0.01203800  0.84456400  1
  O  O40  1  0.57004100  0.01208000  0.15540700  1
  O  O41  1  0.09486200  0.52557900  0.32481700  1
  O  O42  1  0.90582800  0.52580500  0.67538600  1
  O  O43  1  0.90570700  0.47453500  0.32391400  1
  O  O44  1  0.09503300  0.47475500  0.67588200  1
  O  O45  1  0.59429000  0.02543600  0.32438800  1
  O  O46  1  0.40570400  0.02551000  0.67552400  1
  O  O47  1  0.40503200  0.97459700  0.32428800  1
  O  O48  1  0.59494900  0.97467400  0.67582800  1
