# generated using pymatgen
data_ZnH13C20NO6
_symmetry_space_group_name_H-M   'P 1'
_cell_length_a   9.37743000
_cell_length_b   8.62230900
_cell_length_c   15.10296800
_cell_angle_alpha   90.00000000
_cell_angle_beta   91.01980200
_cell_angle_gamma   90.00000000
_symmetry_Int_Tables_number   1
_chemical_formula_structural   ZnH13C20NO6
_chemical_formula_sum   'Zn2 H26 C40 N2 O12'
_cell_volume   1220.95854819
_cell_formula_units_Z   2
loop_
 _symmetry_equiv_pos_site_id
 _symmetry_equiv_pos_as_xyz
  1  'x, y, z'
loop_
 _atom_site_type_symbol
 _atom_site_label
 _atom_site_symmetry_multiplicity
 _atom_site_fract_x
 _atom_site_fract_y
 _atom_site_fract_z
 _atom_site_occupancy
  Zn  Zn1  1  0.83986300  0.49997800  0.49882100  1
  Zn  Zn2  1  0.16013600  0.49674900  0.50118000  1
  H  H1  1  0.95569600  0.99557600  0.56168500  1
  H  H2  1  0.04428300  0.00114700  0.43831800  1
  H  H3  1  0.01466600  0.24619500  0.79958600  1
  H  H4  1  0.98534700  0.75053600  0.20041200  1
  H  H5  1  0.95996300  0.24381100  0.20038400  1
  H  H6  1  0.04004700  0.75292000  0.79961800  1
  H  H7  1  0.84147200  0.16484500  0.91066100  1
  H  H8  1  0.15854100  0.83188800  0.08933900  1
  H  H9  1  0.82489500  0.16605800  0.07246400  1
  H  H10  1  0.17511800  0.83067500  0.92753600  1
  H  H11  1  0.64246800  0.48237400  0.79901100  1
  H  H12  1  0.35753000  0.51434100  0.20098800  1
  H  H13  1  0.74967100  0.50419200  0.33143700  1
  H  H14  1  0.25032800  0.49253400  0.66856200  1
  H  H15  1  0.23947300  0.49689200  0.32939000  1
  H  H16  1  0.76052600  0.49983300  0.67061000  1
  H  H17  1  0.83098200  0.64481100  0.06895500  1
  H  H18  1  0.80052700  0.44146100  0.04596300  1
  H  H19  1  0.06549700  0.58684100  0.07393000  1
  H  H20  1  0.03266500  0.38083300  0.07590000  1
  H  H21  1  0.03403900  0.49239300  0.17766700  1
  H  H22  1  0.19947200  0.55524800  0.95404100  1
  H  H23  1  0.16900800  0.35190400  0.93103300  1
  H  H24  1  0.96595500  0.50433500  0.82233200  1
  H  H25  1  0.96734100  0.61590400  0.92409500  1
  H  H26  1  0.93449600  0.40989900  0.92607200  1
  C  C1  1  0.99807200  0.13654600  0.67341400  1
  C  C2  1  0.00192700  0.86018100  0.32658500  1
  C  C3  1  0.99523100  0.13778800  0.32593200  1
  C  C4  1  0.00476700  0.85893800  0.67406900  1
  C  C5  1  0.01041200  0.13775600  0.76459200  1
  C  C6  1  0.98959700  0.85897300  0.23540700  1
  C  C7  1  0.97404000  0.13639100  0.23520200  1
  C  C8  1  0.02596800  0.86033900  0.76479900  1
  C  C9  1  0.01784000  0.99913900  0.81096000  1
  C  C10  1  0.98217100  0.99759200  0.18904000  1
  C  C11  1  0.98256000  0.99693600  0.63059900  1
  C  C12  1  0.01743000  0.99978900  0.36940300  1
  C  C13  1  0.91381900  0.09427100  0.94984300  1
  C  C14  1  0.08619500  0.90246200  0.05015600  1
  C  C15  1  0.90334300  0.09376600  0.04111200  1
  C  C16  1  0.09667100  0.90296800  0.95888700  1
  C  C17  1  0.98891500  0.99694700  0.09177600  1
  C  C18  1  0.01109900  0.99978700  0.90822400  1
  C  C19  1  0.00449700  0.71583500  0.62107400  1
  C  C20  1  0.99550200  0.28089100  0.37892800  1
  C  C21  1  0.99953400  0.71812600  0.38037000  1
  C  C22  1  0.00046400  0.27860000  0.61963000  1
  C  C23  1  0.63867900  0.50595800  0.33978300  1
  C  C24  1  0.36132100  0.49076600  0.66021700  1
  C  C25  1  0.56382900  0.51315800  0.26114000  1
  C  C26  1  0.43616900  0.48356100  0.73885900  1
  C  C27  1  0.41950500  0.51128300  0.26197900  1
  C  C28  1  0.58049400  0.48543500  0.73802100  1
  C  C29  1  0.35038200  0.50201000  0.34041700  1
  C  C30  1  0.64961700  0.49471300  0.65958300  1
  C  C31  1  0.42209200  0.49982900  0.42272400  1
  C  C32  1  0.57790700  0.49689600  0.57727600  1
  C  C33  1  0.57213200  0.50251600  0.42213500  1
  C  C34  1  0.42786700  0.49420900  0.57786400  1
  C  C35  1  0.63726600  0.52266900  0.17641600  1
  C  C36  1  0.84697700  0.52505100  0.09399900  1
  C  C37  1  0.00501200  0.49370000  0.10620500  1
  C  C38  1  0.36273100  0.47404800  0.82358200  1
  C  C39  1  0.15301900  0.47167100  0.90599800  1
  C  C40  1  0.99498600  0.50303200  0.89379300  1
  N  N1  1  0.34907100  0.49520200  0.50067200  1
  N  N2  1  0.65092700  0.50152400  0.49932800  1
  O  O1  1  0.12697000  0.66414600  0.59192400  1
  O  O2  1  0.87302900  0.33258100  0.40807600  1
  O  O3  1  0.87595200  0.66893800  0.40944600  1
  O  O4  1  0.12404700  0.32778800  0.59055500  1
  O  O5  1  0.88107100  0.66264700  0.59193100  1
  O  O6  1  0.11892700  0.33407800  0.40806900  1
  O  O7  1  0.12177600  0.66169200  0.40898800  1
  O  O8  1  0.87822300  0.33503400  0.59101200  1
  O  O9  1  0.56850100  0.54298000  0.10810900  1
  O  O10  1  0.78010000  0.50913000  0.17326300  1
  O  O11  1  0.43149400  0.45371600  0.89188900  1
  O  O12  1  0.21989800  0.48760500  0.82673600  1
