# generated using pymatgen
data_Fe2H24(C3O)17
_symmetry_space_group_name_H-M   'P 1'
_cell_length_a   15.80075300
_cell_length_b   16.46669300
_cell_length_c   13.20643900
_cell_angle_alpha   91.72378000
_cell_angle_beta   88.19587700
_cell_angle_gamma   112.44259900
_symmetry_Int_Tables_number   1
_chemical_formula_structural   Fe2H24(C3O)17
_chemical_formula_sum   'Fe2 H24 C51 O17'
_cell_volume   3173.70716154
_cell_formula_units_Z   1
loop_
 _symmetry_equiv_pos_site_id
 _symmetry_equiv_pos_as_xyz
  1  'x, y, z'
loop_
 _atom_site_type_symbol
 _atom_site_label
 _atom_site_symmetry_multiplicity
 _atom_site_fract_x
 _atom_site_fract_y
 _atom_site_fract_z
 _atom_site_occupancy
  Fe  Fe1  1  0.50793900  0.00609400  0.22346000  1
  Fe  Fe2  1  0.50327200  0.00437900  0.77222200  1
  H  H1  1  0.18168700  0.00538800  0.83762200  1
  H  H2  1  0.22937700  0.98160400  0.19715200  1
  H  H3  1  0.06091700  0.01186000  0.79855900  1
  H  H4  1  0.91794100  0.01128700  0.75792200  1
  H  H5  1  0.07951500  0.96297100  0.23831100  1
  H  H6  1  0.93473900  0.95939100  0.19697700  1
  H  H7  1  0.77183800  0.00097300  0.79955400  1
  H  H8  1  0.81708800  0.97516900  0.15955200  1
  H  H9  1  0.53432300  0.11274500  0.48421900  1
  H  H10  1  0.49271100  0.31777600  0.33687500  1
  H  H11  1  0.51023900  0.32543100  0.65992400  1
  H  H12  1  0.59890800  0.47247100  0.38634800  1
  H  H13  1  0.58021700  0.61224900  0.38149900  1
  H  H14  1  0.37015700  0.52605300  0.60917100  1
  H  H15  1  0.46682000  0.67591300  0.33618600  1
  H  H16  1  0.45598100  0.89276400  0.51433900  1
  H  H17  1  0.47650900  0.67614100  0.65946000  1
  H  H18  1  0.25574700  0.39600600  0.60008200  1
  H  H19  1  0.27135400  0.35738300  0.72203900  1
  H  H20  1  0.28934800  0.19916800  0.69784600  1
  H  H21  1  0.19477600  0.04876500  0.64274200  1
  H  H22  1  0.07169700  0.02300300  0.52174100  1
  H  H23  1  0.04344000  0.14801600  0.45514900  1
  H  H24  1  0.13776800  0.29826900  0.50854400  1
  C  C1  1  0.28974700  0.00012300  0.04930800  1
  C  C2  1  0.27507900  0.00547500  0.94655400  1
  C  C3  1  0.18994100  0.00167200  0.91718900  1
  C  C4  1  0.21829300  0.98630100  0.11758400  1
  C  C5  1  0.13449600  0.98323100  0.08763100  1
  C  C6  1  0.11877600  0.99266300  0.98740200  1
  C  C7  1  0.03277000  0.99248400  0.96082500  1
  C  C8  1  0.01357900  0.00304700  0.86113400  1
  C  C9  1  0.93038000  0.00316600  0.83627200  1
  C  C10  1  0.06704500  0.97145000  0.16007400  1
  C  C11  1  0.98321200  0.97036300  0.13506300  1
  C  C12  1  0.96453400  0.98246800  0.03567600  1
  C  C13  1  0.87927000  0.98433100  0.00932500  1
  C  C14  1  0.86403500  0.99431800  0.90905800  1
  C  C15  1  0.78206900  0.99553700  0.87917200  1
  C  C16  1  0.80890800  0.97823700  0.07969700  1
  C  C17  1  0.72587000  0.97988600  0.05018100  1
  C  C18  1  0.71201100  0.98670800  0.94767300  1
  C  C19  1  0.65749400  0.97987600  0.12952700  1
  C  C20  1  0.46992800  0.84289400  0.32419900  1
  C  C21  1  0.37861900  0.01205100  0.09141700  1
  C  C22  1  0.50133500  0.15859600  0.31077200  1
  C  C23  1  0.48049600  0.83955900  0.68898200  1
  C  C24  1  0.62556900  0.98287400  0.90604900  1
  C  C25  1  0.52099400  0.16381900  0.67441000  1
  C  C26  1  0.34452300  0.00948800  0.86636300  1
  C  C27  1  0.51816000  0.21321300  0.40240800  1
  C  C28  1  0.50519200  0.29115500  0.40611200  1
  C  C29  1  0.50475000  0.33319500  0.49825800  1
  C  C30  1  0.51281400  0.29401100  0.58750700  1
  C  C31  1  0.52378700  0.21436700  0.58346000  1
  C  C32  1  0.52940700  0.17635100  0.49017800  1
  C  C33  1  0.54697800  0.48267900  0.43428700  1
  C  C34  1  0.53613800  0.56167900  0.43106400  1
  C  C35  1  0.47305800  0.57751900  0.49472000  1
  C  C36  1  0.41864300  0.51243800  0.55901800  1
  C  C37  1  0.42599800  0.43105500  0.55870500  1
  C  C38  1  0.49349000  0.41777000  0.49921800  1
  C  C39  1  0.46409900  0.70661000  0.40904200  1
  C  C40  1  0.46053300  0.78942300  0.41427600  1
  C  C41  1  0.45633400  0.82735900  0.50805400  1
  C  C42  1  0.46200700  0.78690100  0.59556000  1
  C  C43  1  0.46779800  0.70566800  0.59057900  1
  C  C44  1  0.46623500  0.66398400  0.49771000  1
  C  C45  1  0.27885300  0.34981200  0.63890500  1
  C  C46  1  0.21988100  0.25858000  0.60701700  1
  C  C47  1  0.23536100  0.18824800  0.64453100  1
  C  C48  1  0.18229900  0.10374800  0.61368600  1
  C  C49  1  0.11332000  0.08927800  0.54578100  1
  C  C50  1  0.09748500  0.15935700  0.50848800  1
  C  C51  1  0.15071900  0.24394700  0.53884000  1
  O  O1  1  0.59382400  0.00975900  0.10972000  1
  O  O2  1  0.46691900  0.80980700  0.23211500  1
  O  O3  1  0.66392700  0.95582700  0.22185200  1
  O  O4  1  0.48829800  0.92709600  0.33951900  1
  O  O5  1  0.38187000  0.96245900  0.16616700  1
  O  O6  1  0.45118100  0.08230800  0.06934800  1
  O  O7  1  0.56442100  0.12927900  0.27940800  1
  O  O8  1  0.41570800  0.11397100  0.28778100  1
  O  O9  1  0.43040900  0.88599200  0.71092400  1
  O  O10  1  0.56247700  0.86349700  0.72632800  1
  O  O11  1  0.62838900  0.02911600  0.82571300  1
  O  O12  1  0.54722400  0.92340200  0.93690200  1
  O  O13  1  0.32505000  0.00909500  0.77042500  1
  O  O14  1  0.53309800  0.08953000  0.66104300  1
  O  O15  1  0.42395500  0.00812300  0.88986300  1
  O  O16  1  0.49597100  0.18592400  0.76328100  1
  O  O17  1  0.36868900  0.36399700  0.61455800  1
