# generated using pymatgen
data_CuH26C52N2O9
_symmetry_space_group_name_H-M   'P 1'
_cell_length_a   27.54417700
_cell_length_b   15.94527700
_cell_length_c   14.50650000
_cell_angle_alpha   90.00706000
_cell_angle_beta   90.01086000
_cell_angle_gamma   89.99004900
_symmetry_Int_Tables_number   1
_chemical_formula_structural   CuH26C52N2O9
_chemical_formula_sum   'Cu2 H52 C104 N4 O18'
_cell_volume   6371.24775211
_cell_formula_units_Z   2
loop_
 _symmetry_equiv_pos_site_id
 _symmetry_equiv_pos_as_xyz
  1  'x, y, z'
loop_
 _atom_site_type_symbol
 _atom_site_label
 _atom_site_symmetry_multiplicity
 _atom_site_fract_x
 _atom_site_fract_y
 _atom_site_fract_z
 _atom_site_occupancy
  Cu  Cu1  1  0.49436200  0.50561600  0.60030700  1
  Cu  Cu2  1  0.49576600  0.50688700  0.41579000  1
  H  H1  1  0.34288300  0.51206700  0.35636600  1
  H  H2  1  0.64711700  0.48162700  0.65810100  1
  H  H3  1  0.25450800  0.51312800  0.35521100  1
  H  H4  1  0.73552800  0.48047300  0.65927300  1
  H  H5  1  0.11631900  0.32585400  0.39417100  1
  H  H6  1  0.87437000  0.66594300  0.65436700  1
  H  H7  1  0.64892000  0.52282200  0.36646800  1
  H  H8  1  0.34117300  0.50711700  0.65153600  1
  H  H9  1  0.73727300  0.52305400  0.36924300  1
  H  H10  1  0.25285600  0.50723900  0.64889000  1
  H  H11  1  0.87419900  0.33882400  0.37134900  1
  H  H12  1  0.11540800  0.69170000  0.61254000  1
  H  H13  1  0.95915700  0.33876500  0.36606900  1
  H  H14  1  0.03039000  0.69224500  0.61676400  1
  H  H15  1  0.03136300  0.32094800  0.39621300  1
  H  H16  1  0.95938600  0.67012200  0.65340300  1
  H  H17  1  0.56784700  0.95755500  0.58216700  1
  H  H18  1  0.41911800  0.05493600  0.43458100  1
  H  H19  1  0.43095500  0.59655500  0.06746400  1
  H  H20  1  0.56032900  0.41768600  0.94916000  1
  H  H21  1  0.50726500  0.64839000  0.94942600  1
  H  H22  1  0.48362800  0.36540300  0.06637900  1
  H  H23  1  0.49085400  0.89867300  0.14872000  1
  H  H24  1  0.55439400  0.82149100  0.06903000  1
  H  H25  1  0.62789200  0.77692400  0.15185000  1
  H  H26  1  0.63694600  0.80918400  0.31640600  1
  H  H27  1  0.57439500  0.88541700  0.39792700  1
  H  H28  1  0.47373700  0.16553800  0.82686100  1
  H  H29  1  0.51168400  0.29817600  0.87128900  1
  H  H30  1  0.58342700  0.34990600  0.78757300  1
  H  H31  1  0.61783800  0.26675400  0.66072100  1
  H  H32  1  0.58065900  0.13342800  0.61661700  1
  H  H33  1  0.31426200  0.39732600  0.91311900  1
  H  H34  1  0.25025600  0.48004700  0.84174000  1
  H  H35  1  0.26599500  0.62473700  0.79172200  1
  H  H36  1  0.34700400  0.68618300  0.81283400  1
  H  H37  1  0.41154500  0.60564400  0.88335100  1
  H  H38  1  0.67581600  0.62236900  0.10136600  1
  H  H39  1  0.74025000  0.54403600  0.17704400  1
  H  H40  1  0.72574000  0.40050600  0.23212300  1
  H  H41  1  0.64562400  0.33591400  0.21162300  1
  H  H42  1  0.58074900  0.41149100  0.13530900  1
  H  H43  1  0.65060900  0.10082900  0.30233900  1
  H  H44  1  0.64950600  0.17156900  0.15378300  1
  H  H45  1  0.57274000  0.22289500  0.08839800  1
  H  H46  1  0.49646500  0.20206600  0.17308100  1
  H  H47  1  0.49621400  0.13128000  0.32072900  1
  H  H48  1  0.35245400  0.84694700  0.70193400  1
  H  H49  1  0.30051900  0.73388000  0.64634000  1
  H  H50  1  0.29828000  0.69872400  0.48151200  1
  H  H51  1  0.34821400  0.77835400  0.37180100  1
  H  H52  1  0.39961900  0.89208200  0.42514300  1
  C  C1  1  0.49300800  0.34536300  0.50665100  1
  C  C2  1  0.49647200  0.66716300  0.50941500  1
  C  C3  1  0.40175200  0.50871600  0.50545500  1
  C  C4  1  0.58837200  0.50301800  0.51067100  1
  C  C5  1  0.17194900  0.44583900  0.46274200  1
  C  C6  1  0.81835500  0.55949000  0.56346800  1
  C  C7  1  0.17164400  0.57397100  0.54100200  1
  C  C8  1  0.81835100  0.44332400  0.46519900  1
  C  C9  1  0.27268600  0.50900400  0.58466900  1
  C  C10  1  0.71743900  0.51295400  0.43252200  1
  C  C11  1  0.32271100  0.50856300  0.58585300  1
  C  C12  1  0.66741500  0.51295500  0.43125200  1
  C  C13  1  0.32364600  0.51100900  0.42125400  1
  C  C14  1  0.66642100  0.49068900  0.59403200  1
  C  C15  1  0.27357400  0.51138000  0.42032300  1
  C  C16  1  0.71650100  0.49022300  0.59497700  1
  C  C17  1  0.24791400  0.51040800  0.50203800  1
  C  C18  1  0.74220300  0.50132100  0.51419500  1
  C  C19  1  0.09600200  0.50826000  0.50410700  1
  C  C20  1  0.89415000  0.50288800  0.51211200  1
  C  C21  1  0.12172000  0.44424500  0.46334400  1
  C  C22  1  0.86859200  0.56106400  0.56263900  1
  C  C23  1  0.09717300  0.37795600  0.42490400  1
  C  C24  1  0.89333500  0.62054500  0.61242500  1
  C  C25  1  0.12142000  0.57351700  0.54311200  1
  C  C26  1  0.86857000  0.44354900  0.46332800  1
  C  C27  1  0.34851400  0.50948400  0.50410700  1
  C  C28  1  0.64159700  0.50185800  0.51203600  1
  C  C29  1  0.96972400  0.44300500  0.46136000  1
  C  C30  1  0.02035300  0.57067400  0.55054800  1
  C  C31  1  0.96966500  0.56666800  0.55699700  1
  C  C32  1  0.02056300  0.44181800  0.46358700  1
  C  C33  1  0.94466900  0.50416200  0.51019300  1
  C  C34  1  0.04548300  0.50693400  0.50604500  1
  C  C35  1  0.94304400  0.38480800  0.41061700  1
  C  C36  1  0.04677900  0.63752600  0.58681200  1
  C  C37  1  0.89324500  0.38514000  0.41192000  1
  C  C38  1  0.09654700  0.63863900  0.58319300  1
  C  C39  1  0.04737400  0.37648500  0.42503700  1
  C  C40  1  0.94310500  0.62334600  0.61000300  1
  C  C41  1  0.53417900  0.97998500  0.54826900  1
  C  C42  1  0.45294600  0.03230000  0.46773900  1
  C  C43  1  0.53094400  0.03490100  0.46221900  1
  C  C44  1  0.45578400  0.97766200  0.55363400  1
  C  C45  1  0.49174600  0.25540400  0.50597600  1
  C  C46  1  0.49613400  0.75708900  0.51004900  1
  C  C47  1  0.49530200  0.03385300  0.59324100  1
  C  C48  1  0.49224100  0.97795200  0.42336800  1
  C  C49  1  0.49253500  0.08798100  0.50789300  1
  C  C50  1  0.49444500  0.92436800  0.50898200  1
  C  C51  1  0.49149400  0.17982700  0.50635400  1
  C  C52  1  0.49554800  0.83261600  0.50998700  1
  C  C53  1  0.50182600  0.58420800  0.97698600  1
  C  C54  1  0.48913600  0.42963200  0.03898300  1
  C  C55  1  0.46036800  0.55621100  0.03993500  1
  C  C56  1  0.53065400  0.45771400  0.97615600  1
  C  C57  1  0.53734200  0.53488400  0.03571400  1
  C  C58  1  0.45365600  0.47908900  0.98028800  1
  C  C59  1  0.49646500  0.50746600  0.09725300  1
  C  C60  1  0.49454300  0.50639900  0.91881800  1
  C  C61  1  0.49690000  0.50783600  0.19816100  1
  C  C62  1  0.49365800  0.50530500  0.81793000  1
  C  C63  1  0.48852200  0.94679100  0.32605500  1
  C  C64  1  0.52744600  0.89863600  0.27980100  1
  C  C65  1  0.52258100  0.87944100  0.18709400  1
  C  C66  1  0.55850000  0.83583000  0.14144200  1
  C  C67  1  0.59963600  0.81079100  0.18771500  1
  C  C68  1  0.60471300  0.82899700  0.27989700  1
  C  C69  1  0.56891400  0.87257600  0.32587100  1
  C  C70  1  0.50019800  0.06213200  0.69171100  1
  C  C71  1  0.52367500  0.14160900  0.71696000  1
  C  C72  1  0.50543600  0.18729200  0.79003200  1
  C  C73  1  0.52668700  0.26214800  0.81502300  1
  C  C74  1  0.56682400  0.29108600  0.76813000  1
  C  C75  1  0.58601800  0.24457400  0.69686200  1
  C  C76  1  0.56472500  0.16973900  0.67163200  1
  C  C77  1  0.40593200  0.44372300  0.94986900  1
  C  C78  1  0.36801500  0.49488000  0.90463100  1
  C  C79  1  0.32231500  0.46064200  0.89145300  1
  C  C80  1  0.28583700  0.50726300  0.85133400  1
  C  C81  1  0.29459100  0.58834100  0.82342800  1
  C  C82  1  0.33998500  0.62269100  0.83527400  1
  C  C83  1  0.37655000  0.57646100  0.87569500  1
  C  C84  1  0.58502300  0.57170400  0.06405500  1
  C  C85  1  0.62314500  0.52316200  0.11184000  1
  C  C86  1  0.66834100  0.55940300  0.12493200  1
  C  C87  1  0.70506200  0.51530700  0.16754700  1
  C  C88  1  0.69699300  0.43489700  0.19827800  1
  C  C89  1  0.65207600  0.39869200  0.18662300  1
  C  C90  1  0.61531500  0.44219000  0.14328600  1
  C  C91  1  0.57530800  0.06628400  0.41328500  1
  C  C92  1  0.57352500  0.11036700  0.32365400  1
  C  C93  1  0.61631500  0.12278300  0.27539000  1
  C  C94  1  0.61592200  0.16254800  0.19101700  1
  C  C95  1  0.57295200  0.19123200  0.15429500  1
  C  C96  1  0.53025600  0.17956800  0.20181200  1
  C  C97  1  0.53039200  0.13918600  0.28586300  1
  C  C98  1  0.41162400  0.94573900  0.60389600  1
  C  C99  1  0.38063500  0.87754500  0.56801000  1
  C  C100  1  0.35184400  0.83299500  0.62903800  1
  C  C101  1  0.32255000  0.76877600  0.59806200  1
  C  C102  1  0.32134800  0.74891000  0.50577100  1
  C  C103  1  0.34939100  0.79348700  0.44440000  1
  C  C104  1  0.37881200  0.85763500  0.47514300  1
  N  N1  1  0.19611000  0.51032600  0.50136800  1
  N  N2  1  0.79402200  0.50106800  0.51482400  1
  N  N3  1  0.49683300  0.50780800  0.27792900  1
  N  N4  1  0.49332700  0.50472200  0.73816800  1
  O  O1  1  0.49153200  0.38389700  0.58634000  1
  O  O2  1  0.49525400  0.62868100  0.42984600  1
  O  O3  1  0.49295200  0.38497500  0.42757500  1
  O  O4  1  0.49425300  0.62759400  0.58825300  1
  O  O5  1  0.42390000  0.50543400  0.58536500  1
  O  O6  1  0.56616700  0.50218900  0.43089000  1
  O  O7  1  0.42510000  0.50619000  0.42676600  1
  O  O8  1  0.56495900  0.50065500  0.58911900  1
  O  O9  1  0.19691000  0.38182300  0.42551300  1
  O  O10  1  0.79357300  0.61789900  0.61087400  1
  O  O11  1  0.79358600  0.38429500  0.41869000  1
  O  O12  1  0.19628300  0.63876200  0.57738700  1
  O  O13  1  0.45203900  0.96436300  0.28256100  1
  O  O14  1  0.48617300  0.01617800  0.75332100  1
  O  O15  1  0.39748700  0.37030400  0.96693500  1
  O  O16  1  0.59334500  0.64415900  0.04252600  1
  O  O17  1  0.61475900  0.05128200  0.44764100  1
  O  O18  1  0.40078800  0.97740900  0.67750000  1
