# generated using pymatgen
data_ZnH5C11(NO2)3
_symmetry_space_group_name_H-M   'P 1'
_cell_length_a   9.22541600
_cell_length_b   8.54507500
_cell_length_c   15.01154200
_cell_angle_alpha   90.00000000
_cell_angle_beta   91.02318900
_cell_angle_gamma   90.00000000
_symmetry_Int_Tables_number   1
_chemical_formula_structural   ZnH5C11(NO2)3
_chemical_formula_sum   'Zn2 H10 C22 N6 O12'
_cell_volume   1183.19926047
_cell_formula_units_Z   2
loop_
 _symmetry_equiv_pos_site_id
 _symmetry_equiv_pos_as_xyz
  1  'x, y, z'
loop_
 _atom_site_type_symbol
 _atom_site_label
 _atom_site_symmetry_multiplicity
 _atom_site_fract_x
 _atom_site_fract_y
 _atom_site_fract_z
 _atom_site_occupancy
  Zn  Zn1  1  0.83843800  0.49993200  0.50182300  1
  Zn  Zn2  1  0.16154000  0.49957300  0.49817400  1
  H  H1  1  0.05034900  0.99966000  0.56324500  1
  H  H2  1  0.94937300  0.99987700  0.43674800  1
  H  H3  1  0.98162400  0.25092600  0.80135900  1
  H  H4  1  0.01832000  0.74851800  0.19870400  1
  H  H5  1  0.01707900  0.25109300  0.19854200  1
  H  H6  1  0.98309700  0.74836400  0.80148800  1
  H  H7  1  0.63603200  0.60329400  0.32091300  1
  H  H8  1  0.36697200  0.39605300  0.67977900  1
  H  H9  1  0.36125400  0.60447000  0.31863600  1
  H  H10  1  0.63437400  0.61004700  0.68149600  1
  C  C1  1  0.00837800  0.13926100  0.67601200  1
  C  C2  1  0.99155100  0.86025300  0.32402700  1
  C  C3  1  0.99091200  0.13944100  0.32393500  1
  C  C4  1  0.00908500  0.86004200  0.67609100  1
  C  C5  1  0.99038900  0.14030200  0.76700000  1
  C  C6  1  0.00956000  0.85916400  0.23305000  1
  C  C7  1  0.00886500  0.14046200  0.23295800  1
  C  C8  1  0.99121300  0.85900100  0.76707700  1
  C  C9  1  0.98947900  0.99967000  0.81338800  1
  C  C10  1  0.01055400  0.99977900  0.18665200  1
  C  C11  1  0.57498200  0.49823500  0.42354500  1
  C  C12  1  0.42500300  0.50078800  0.57641800  1
  C  C13  1  0.02732000  0.99966800  0.63288600  1
  C  C14  1  0.97254900  0.99984300  0.36713200  1
  C  C15  1  0.00886200  0.99973700  0.08902800  1
  C  C16  1  0.99122200  0.99968800  0.91100300  1
  C  C17  1  0.42542400  0.49788500  0.42141300  1
  C  C18  1  0.57453700  0.50140700  0.57855000  1
  C  C19  1  0.00559800  0.71787200  0.62202100  1
  C  C20  1  0.99441300  0.28160500  0.37800000  1
  C  C21  1  0.99500000  0.71812000  0.37812400  1
  C  C22  1  0.00494900  0.28141900  0.62190200  1
  N  N1  1  0.99628400  0.86359900  0.95601400  1
  N  N2  1  0.00382700  0.13582200  0.04400900  1
  N  N3  1  0.00430500  0.86361800  0.04403200  1
  N  N4  1  0.99580400  0.13580300  0.95599200  1
  N  N5  1  0.35170900  0.49924500  0.49789800  1
  N  N6  1  0.64827000  0.50032400  0.50207300  1
  O  O1  1  0.12810000  0.66875800  0.58903400  1
  O  O2  1  0.87189100  0.33068400  0.41100200  1
  O  O3  1  0.87245400  0.66916600  0.41109000  1
  O  O4  1  0.12754200  0.33029800  0.58889400  1
  O  O5  1  0.87854900  0.66331900  0.59605200  1
  O  O6  1  0.12147600  0.33626800  0.40388900  1
  O  O7  1  0.12195500  0.66324300  0.40402800  1
  O  O8  1  0.87794200  0.33636900  0.59605000  1
  O  O9  1  0.64839800  0.49640400  0.34532900  1
  O  O10  1  0.35163100  0.50200600  0.65464400  1
  O  O11  1  0.35267000  0.49614700  0.34135100  1
  O  O12  1  0.64725100  0.50236200  0.65861800  1
