# generated using pymatgen
data_Zn2H9C20Cl5O8
_symmetry_space_group_name_H-M   'P 1'
_cell_length_a   18.90758000
_cell_length_b   18.92693400
_cell_length_c   18.96796700
_cell_angle_alpha   109.36393200
_cell_angle_beta   109.76210200
_cell_angle_gamma   109.16318600
_symmetry_Int_Tables_number   1
_chemical_formula_structural   Zn2H9C20Cl5O8
_chemical_formula_sum   'Zn6 H27 C60 Cl15 O24'
_cell_volume   5233.24503080
_cell_formula_units_Z   3
loop_
 _symmetry_equiv_pos_site_id
 _symmetry_equiv_pos_as_xyz
  1  'x, y, z'
loop_
 _atom_site_type_symbol
 _atom_site_label
 _atom_site_symmetry_multiplicity
 _atom_site_fract_x
 _atom_site_fract_y
 _atom_site_fract_z
 _atom_site_occupancy
  Zn  Zn1  1  0.49112100  0.42493400  0.41818000  1
  Zn  Zn2  1  0.49229600  0.56291700  0.55750400  1
  Zn  Zn3  1  0.92454500  0.43014500  0.98439500  1
  Zn  Zn4  1  0.06148400  0.56771300  0.98302100  1
  Zn  Zn5  1  0.05271200  0.98887400  0.54692200  1
  Zn  Zn6  1  0.91794600  0.99928500  0.41477600  1
  H  H1  1  0.67233300  0.37529900  0.58732800  1
  H  H2  1  0.77130000  0.37553700  0.69027600  1
  H  H3  1  0.85384300  0.46808600  0.70383000  1
  H  H4  1  0.61001300  0.47491100  0.73883500  1
  H  H5  1  0.59820200  0.37716600  0.66481700  1
  H  H6  1  0.69972100  0.38668100  0.77656700  1
  H  H7  1  0.72225200  0.49167900  0.84946200  1
  H  H8  1  0.71904600  0.60959800  0.78171400  1
  H  H9  1  0.83959500  0.62632300  0.87551200  1
  H  H10  1  0.09454900  0.22919500  0.43295300  1
  H  H11  1  0.29102200  0.09077300  0.50018100  1
  H  H12  1  0.43940300  0.27963600  0.61011800  1
  H  H13  1  0.35688500  0.63604200  0.37653100  1
  H  H14  1  0.06928000  0.30041600  0.09440000  1
  H  H15  1  0.17983300  0.29857400  0.20714200  1
  H  H16  1  0.25005100  0.31700000  0.15696000  1
  H  H17  1  0.87449000  0.68821800  0.44427100  1
  H  H18  1  0.92688500  0.75425500  0.56519300  1
  H  H19  1  0.81807000  0.63865100  0.56240200  1
  H  H20  1  0.09186800  0.39941700  0.79017800  1
  H  H21  1  0.08894500  0.28605300  0.67688400  1
  H  H22  1  0.81569000  0.05455000  0.63992500  1
  H  H23  1  0.90144300  0.05291900  0.72579500  1
  H  H24  1  0.97946400  0.87223600  0.21397000  1
  H  H25  1  0.03796900  0.72858000  0.40581300  1
  H  H26  1  0.91583000  0.66861300  0.34032100  1
  H  H27  1  0.91960400  0.55985300  0.23073500  1
  C  C1  1  0.37291800  0.37334600  0.48688600  1
  C  C2  1  0.61313500  0.49166200  0.60489700  1
  C  C3  1  0.60957300  0.61470600  0.48779100  1
  C  C4  1  0.37101600  0.49663400  0.37096600  1
  C  C5  1  0.72339200  0.44346100  0.63456800  1
  C  C6  1  0.79227400  0.44299400  0.70425600  1
  C  C7  1  0.74937300  0.58505800  0.74609700  1
  C  C8  1  0.64477000  0.44605300  0.71384300  1
  C  C9  1  0.68318000  0.49241700  0.67334600  1
  C  C10  1  0.80326700  0.49546600  0.79114500  1
  C  C11  1  0.82582200  0.58741600  0.80924200  1
  C  C12  1  0.71709200  0.45284900  0.78759200  1
  C  C13  1  0.31739800  0.25066600  0.51066100  1
  C  C14  1  0.30442200  0.30728700  0.48522900  1
  C  C15  1  0.22273300  0.29898700  0.45771000  1
  C  C16  1  0.15786800  0.23480400  0.45572700  1
  C  C17  1  0.17445300  0.17982300  0.48377700  1
  C  C18  1  0.25666000  0.19157100  0.51195400  1
  C  C19  1  0.31284700  0.15806000  0.54631500  1
  C  C20  1  0.38413300  0.22777800  0.54509600  1
  C  C21  1  0.24168100  0.42741300  0.22714600  1
  C  C22  1  0.30603400  0.49964500  0.30465000  1
  C  C23  1  0.30718800  0.57669700  0.31702400  1
  C  C24  1  0.24643100  0.57928000  0.25225500  1
  C  C25  1  0.18064600  0.50360600  0.17557700  1
  C  C26  1  0.18132400  0.42910100  0.16733600  1
  C  C27  1  0.13567200  0.33527500  0.10618800  1
  C  C28  1  0.20603600  0.33304800  0.17685900  1
  C  C29  1  0.74630700  0.68281500  0.48876700  1
  C  C30  1  0.67170000  0.68123600  0.48333800  1
  C  C31  1  0.65865300  0.74672500  0.47430700  1
  C  C32  1  0.71946200  0.81014500  0.47131700  1
  C  C33  1  0.79590200  0.81049100  0.48015600  1
  C  C34  1  0.80585000  0.74526400  0.48994000  1
  C  C35  1  0.86669900  0.71124600  0.50138300  1
  C  C36  1  0.79679000  0.63787800  0.50005500  1
  C  C37  1  0.99502600  0.37794600  0.86774700  1
  C  C38  1  0.87275300  0.49650200  0.86067200  1
  C  C39  1  0.99015200  0.61976000  0.09875000  1
  C  C40  1  0.11301900  0.50206500  0.10716000  1
  C  C41  1  0.98976500  0.11415700  0.60369200  1
  C  C42  1  0.10640700  0.11244800  0.48165500  1
  C  C43  1  0.98109000  0.87407100  0.35802800  1
  C  C44  1  0.86412400  0.87643200  0.48079400  1
  C  C45  1  0.94472300  0.22500400  0.77013200  1
  C  C46  1  0.99653100  0.31140400  0.80220500  1
  C  C47  1  0.04962200  0.33273300  0.76806600  1
  C  C48  1  0.04826200  0.26846300  0.70365500  1
  C  C49  1  0.99458700  0.18222600  0.67318500  1
  C  C50  1  0.94442400  0.16420600  0.70937300  1
  C  C51  1  0.87637300  0.09115700  0.70299600  1
  C  C52  1  0.87641100  0.16224900  0.77417200  1
  C  C53  1  0.98244000  0.67890100  0.23074900  1
  C  C54  1  0.98652800  0.68581100  0.16244400  1
  C  C55  1  0.98529500  0.75715900  0.15692600  1
  C  C56  1  0.98058700  0.81744100  0.21927100  1
  C  C57  1  0.98016100  0.80907100  0.28906700  1
  C  C58  1  0.98162300  0.73813700  0.29160900  1
  C  C59  1  0.97843700  0.69273200  0.34180200  1
  C  C60  1  0.97994500  0.62325900  0.27051100  1
  Cl  Cl1  1  0.76849800  0.48432100  0.57871100  1
  Cl  Cl2  1  0.19883200  0.36639300  0.42100700  1
  Cl  Cl3  1  0.33820100  0.18181200  0.65356800  1
  Cl  Cl4  1  0.41059500  0.18120300  0.46671400  1
  Cl  Cl5  1  0.25279600  0.67887700  0.27089300  1
  Cl  Cl6  1  0.14684400  0.31411100  0.01308800  1
  Cl  Cl7  1  0.56343100  0.74912700  0.46200200  1
  Cl  Cl8  1  0.69853500  0.89109400  0.46143700  1
  Cl  Cl9  1  0.74798600  0.53683700  0.40582500  1
  Cl  Cl10  1  0.77801500  0.16505300  0.73699800  1
  Cl  Cl11  1  0.91363500  0.16281100  0.87400900  1
  Cl  Cl12  1  0.98428700  0.77095400  0.06967400  1
  Cl  Cl13  1  0.07826800  0.62098900  0.31081900  1
  Cl  Cl14  1  0.78518400  0.65676700  0.70852500  1
  Cl  Cl15  1  0.91708000  0.64072600  0.80029800  1
  O  O1  1  0.40292700  0.34861800  0.43597400  1
  O  O2  1  0.39964900  0.45446100  0.53762000  1
  O  O3  1  0.58237500  0.43771400  0.52355200  1
  O  O4  1  0.58505400  0.54517500  0.62904800  1
  O  O5  1  0.58281400  0.53347700  0.43702600  1
  O  O6  1  0.58125800  0.63919000  0.54048600  1
  O  O7  1  0.39729500  0.44147700  0.34645700  1
  O  O8  1  0.40202100  0.55116400  0.45220800  1
  O  O9  1  0.94291800  0.35379200  0.89668300  1
  O  O10  1  0.04540500  0.45904300  0.89425300  1
  O  O11  1  0.85002500  0.44385100  0.88980700  1
  O  O12  1  0.95388000  0.55018200  0.89006600  1
  O  O13  1  0.94190000  0.53881700  0.07451300  1
  O  O14  1  0.04174400  0.64398600  0.06929200  1
  O  O15  1  0.03209800  0.44606100  0.07598200  1
  O  O16  1  0.13595200  0.55537000  0.07884500  1
  O  O17  1  0.03821100  0.08002500  0.62422600  1
  O  O18  1  0.93838400  0.09149000  0.52393400  1
  O  O19  1  0.12816900  0.07783000  0.52911100  1
  O  O20  1  0.02609900  0.09054500  0.43283400  1
  O  O21  1  0.03147700  0.89601500  0.43772900  1
  O  O22  1  0.93341300  0.90897800  0.33759800  1
  O  O23  1  0.94450300  0.89827100  0.52958600  1
  O  O24  1  0.84255700  0.90970000  0.43192300  1
