# generated using pymatgen
data_Fe2H27C46NO18
_symmetry_space_group_name_H-M   'P 1'
_cell_length_a   14.68667000
_cell_length_b   9.35429100
_cell_length_c   15.17703600
_cell_angle_alpha   94.26516000
_cell_angle_beta   91.83296900
_cell_angle_gamma   113.21207500
_symmetry_Int_Tables_number   1
_chemical_formula_structural   Fe2H27C46NO18
_chemical_formula_sum   'Fe2 H27 C46 N1 O18'
_cell_volume   1906.70463683
_cell_formula_units_Z   1
loop_
 _symmetry_equiv_pos_site_id
 _symmetry_equiv_pos_as_xyz
  1  'x, y, z'
loop_
 _atom_site_type_symbol
 _atom_site_label
 _atom_site_symmetry_multiplicity
 _atom_site_fract_x
 _atom_site_fract_y
 _atom_site_fract_z
 _atom_site_occupancy
  Fe  Fe1  1  0.52540500  0.07668900  0.14166800  1
  Fe  Fe2  1  0.48869300  0.96105100  0.81881900  1
  H  H1  1  0.88449700  0.14780400  0.13951100  1
  H  H2  1  0.96353700  0.89515600  0.82918100  1
  H  H3  1  0.21041900  0.11447100  0.13090700  1
  H  H4  1  0.17520500  0.36559300  0.14163500  1
  H  H5  1  0.18237200  0.42289300  0.31071500  1
  H  H6  1  0.04113200  0.18244800  0.37486000  1
  H  H7  1  0.94756300  0.97547600  0.23670700  1
  H  H8  1  0.54383000  0.54949100  0.17533100  1
  H  H9  1  0.50719600  0.84140400  0.38811200  1
  H  H10  1  0.46793700  0.48783100  0.78527200  1
  H  H11  1  0.50506600  0.19590900  0.57267800  1
  H  H12  1  0.52426100  0.27627000  0.43063200  1
  H  H13  1  0.48685300  0.76021200  0.52990100  1
  H  H14  1  0.66982800  0.66352900  0.79142600  1
  H  H15  1  0.72459500  0.69778600  0.90393800  1
  H  H16  1  0.83271400  0.65142000  0.74247100  1
  H  H17  1  0.86133700  0.64085400  0.85881800  1
  H  H18  1  0.69873400  0.41195100  0.86035800  1
  H  H19  1  0.78231700  0.37729500  0.78482200  1
  H  H20  1  0.67927400  0.41702500  0.74225600  1
  H  H21  1  0.99975600  0.66371200  0.76993200  1
  H  H22  1  0.05692400  0.68527600  0.88014700  1
  H  H23  1  0.15920300  0.66541900  0.70895100  1
  H  H24  1  0.20156800  0.65676800  0.82107800  1
  H  H25  1  0.05064000  0.41390500  0.83204700  1
  H  H26  1  0.12530100  0.39305300  0.74343600  1
  H  H27  1  0.01224900  0.41985400  0.71819200  1
  C  C1  1  0.86760200  0.09089100  0.07314900  1
  C  C2  1  0.77583900  0.06285200  0.03288300  1
  C  C3  1  0.75148700  0.99198500  0.94694600  1
  C  C4  1  0.81824000  0.94519300  0.90376600  1
  C  C5  1  0.91163100  0.97868200  0.94353100  1
  C  C6  1  0.93594700  0.04903400  0.02911500  1
  C  C7  1  0.98098800  0.94325300  0.89739400  1
  C  C8  1  0.07328300  0.97198600  0.93728300  1
  C  C9  1  0.09697800  0.03906800  0.02351900  1
  C  C10  1  0.02863900  0.07852400  0.06960000  1
  C  C11  1  0.14212400  0.93471300  0.89064400  1
  C  C12  1  0.23561100  0.96665400  0.92966000  1
  C  C13  1  0.25748900  0.02898300  0.01730200  1
  C  C14  1  0.18893100  0.06505000  0.06323100  1
  C  C15  1  0.13050700  0.31856900  0.27263600  1
  C  C16  1  0.05729100  0.19407100  0.30613100  1
  C  C17  1  0.00888300  0.08723700  0.23484900  1
  C  C18  1  0.05458700  0.15123900  0.16084500  1
  C  C19  1  0.70219900  0.09021400  0.08702400  1
  C  C20  1  0.53128400  0.82457000  0.21445500  1
  C  C21  1  0.35591000  0.07502700  0.06119700  1
  C  C22  1  0.52155800  0.30716400  0.26236300  1
  C  C23  1  0.48957800  0.72956700  0.69770000  1
  C  C24  1  0.65297600  0.95274900  0.90348500  1
  C  C25  1  0.48248300  0.21386200  0.74657300  1
  C  C26  1  0.31287200  0.95095100  0.87488900  1
  C  C27  1  0.52780200  0.45930900  0.30132700  1
  C  C28  1  0.53621200  0.57246400  0.24493500  1
  C  C29  1  0.52798100  0.70918600  0.27562000  1
  C  C30  1  0.51379700  0.73463100  0.36371800  1
  C  C31  1  0.50931400  0.62518900  0.42137100  1
  C  C32  1  0.51647300  0.48734500  0.39083700  1
  C  C33  1  0.49695900  0.65482900  0.50970200  1
  C  C34  1  0.49421800  0.54881800  0.56956600  1
  C  C35  1  0.50166400  0.41118100  0.53911300  1
  C  C36  1  0.51386600  0.38142100  0.45074400  1
  C  C37  1  0.48285800  0.57698700  0.65902600  1
  C  C38  1  0.47520900  0.46442200  0.71563900  1
  C  C39  1  0.48426400  0.32819500  0.68514100  1
  C  C40  1  0.49798200  0.30236000  0.59695000  1
  C  C41  1  0.74039300  0.71049200  0.83333400  1
  C  C42  1  0.80121400  0.61768000  0.80689400  1
  C  C43  1  0.73589300  0.44459600  0.79805300  1
  C  C44  1  0.07119900  0.70903200  0.81030300  1
  C  C45  1  0.13541600  0.62738600  0.77496500  1
  C  C46  1  0.07689700  0.45201700  0.76664300  1
  N  N1  1  0.12843100  0.29151800  0.18414800  1
  O  O1  1  0.62151000  0.09465400  0.05042000  1
  O  O2  1  0.54993000  0.80431200  0.13154000  1
  O  O3  1  0.71173700  0.09307500  0.17348700  1
  O  O4  1  0.51434800  0.94782300  0.24165300  1
  O  O5  1  0.38934700  0.96935200  0.08052900  1
  O  O6  1  0.40610800  0.22171400  0.09096700  1
  O  O7  1  0.57205600  0.29943600  0.19350700  1
  O  O8  1  0.45237400  0.17856100  0.28529100  1
  O  O9  1  0.43842200  0.73836900  0.76589000  1
  O  O10  1  0.56013400  0.85739600  0.67553400  1
  O  O11  1  0.62559200  0.06261500  0.87912200  1
  O  O12  1  0.59186800  0.80592300  0.88679200  1
  O  O13  1  0.30476800  0.95409900  0.78875500  1
  O  O14  1  0.50126700  0.09213700  0.71966200  1
  O  O15  1  0.39375100  0.94557200  0.91097800  1
  O  O16  1  0.46330700  0.23360200  0.82938200  1
  O  O17  1  0.79222700  0.86813700  0.82057300  1
  O  O18  1  0.11870800  0.86982100  0.80479900  1
