# generated using pymatgen
data_CuH13C22N3O7
_symmetry_space_group_name_H-M   'P 1'
_cell_length_a   10.86044200
_cell_length_b   9.40277500
_cell_length_c   23.32485100
_cell_angle_alpha   90.00000000
_cell_angle_beta   90.01461800
_cell_angle_gamma   90.00000000
_symmetry_Int_Tables_number   1
_chemical_formula_structural   CuH13C22N3O7
_chemical_formula_sum   'Cu2 H26 C44 N6 O14'
_cell_volume   2381.89388003
_cell_formula_units_Z   2
loop_
 _symmetry_equiv_pos_site_id
 _symmetry_equiv_pos_as_xyz
  1  'x, y, z'
loop_
 _atom_site_type_symbol
 _atom_site_label
 _atom_site_symmetry_multiplicity
 _atom_site_fract_x
 _atom_site_fract_y
 _atom_site_fract_z
 _atom_site_occupancy
  Cu  Cu1  1  0.49986700  0.64796200  0.49992300  1
  Cu  Cu2  1  0.50009100  0.36356900  0.50010000  1
  H  H1  1  0.19401600  0.49922000  0.05187400  1
  H  H2  1  0.80618300  0.50953500  0.94815100  1
  H  H3  1  0.43581600  0.29066600  0.21492700  1
  H  H4  1  0.57571700  0.29596400  0.78516300  1
  H  H5  1  0.43848100  0.28873300  0.31968600  1
  H  H6  1  0.57316900  0.29357200  0.68045800  1
  H  H7  1  0.55521900  0.72339500  0.31960200  1
  H  H8  1  0.43258800  0.71879300  0.68034200  1
  H  H9  1  0.55587900  0.72200100  0.21495200  1
  H  H10  1  0.43228900  0.71768900  0.78498000  1
  H  H11  1  0.11149400  0.27845900  0.50442900  1
  H  H12  1  0.88850500  0.73304200  0.49571200  1
  H  H13  1  0.88875000  0.27826100  0.50376300  1
  H  H14  1  0.11124400  0.73326100  0.49633400  1
  H  H15  1  0.36560700  0.13652600  0.43523900  1
  H  H16  1  0.64011700  0.87499200  0.56209800  1
  H  H17  1  0.64018300  0.13568100  0.56234300  1
  H  H18  1  0.36528200  0.87584400  0.43512200  1
  H  H19  1  0.13989000  0.58572900  0.91614300  1
  H  H20  1  0.98512400  0.45756800  0.87287300  1
  H  H21  1  0.93967100  0.29806500  0.91065200  1
  H  H22  1  0.05025500  0.28771400  0.85294500  1
  H  H23  1  0.85997000  0.59499400  0.08325900  1
  H  H24  1  0.01247800  0.46806400  0.12884100  1
  H  H25  1  0.05601900  0.30377100  0.09399500  1
  H  H26  1  0.94324600  0.30201800  0.15090000  1
  C  C1  1  0.26315500  0.50602200  0.50060100  1
  C  C2  1  0.73686900  0.50549300  0.49946600  1
  C  C3  1  0.49838700  0.50594600  0.38981100  1
  C  C4  1  0.50146400  0.50565200  0.61018600  1
  C  C5  1  0.60959500  0.50630300  0.88164300  1
  C  C6  1  0.39056300  0.50125100  0.11837600  1
  C  C7  1  0.39386800  0.50657900  0.88012200  1
  C  C8  1  0.60610900  0.51083700  0.11994100  1
  C  C9  1  0.38950200  0.50722600  0.93999800  1
  C  C10  1  0.61053800  0.51085900  0.06004800  1
  C  C11  1  0.49961000  0.50803500  0.97028500  1
  C  C12  1  0.50047200  0.50782600  0.02975200  1
  C  C13  1  0.60949700  0.50786800  0.94081600  1
  C  C14  1  0.39064500  0.50339200  0.05920900  1
  C  C15  1  0.27897900  0.50461300  0.97056900  1
  C  C16  1  0.72108800  0.51172900  0.02946600  1
  C  C17  1  0.28098100  0.50140000  0.02950500  1
  C  C18  1  0.71918200  0.50921100  0.97052100  1
  C  C19  1  0.46195000  0.38564500  0.23804100  1
  C  C20  1  0.54447000  0.38882300  0.76202900  1
  C  C21  1  0.46431300  0.38464900  0.29717500  1
  C  C22  1  0.54216600  0.38752600  0.70290000  1
  C  C23  1  0.49709800  0.50597800  0.32700400  1
  C  C24  1  0.50273500  0.50610700  0.67300200  1
  C  C25  1  0.52860600  0.62766100  0.29715300  1
  C  C26  1  0.46447400  0.62526500  0.70280900  1
  C  C27  1  0.52955200  0.62708800  0.23805400  1
  C  C28  1  0.46369200  0.62479500  0.76191300  1
  C  C29  1  0.49562500  0.50642800  0.20841400  1
  C  C30  1  0.50427500  0.50697800  0.79161100  1
  C  C31  1  0.06359600  0.37907000  0.50252300  1
  C  C32  1  0.93641500  0.63244200  0.49763100  1
  C  C33  1  0.93655700  0.37895600  0.50209500  1
  C  C34  1  0.06345500  0.63255500  0.49800200  1
  C  C35  1  0.87210000  0.50563800  0.49964500  1
  C  C36  1  0.12791600  0.50587200  0.50046400  1
  C  C37  1  0.42626700  0.07930300  0.46383200  1
  C  C38  1  0.57825100  0.93222600  0.53407400  1
  C  C39  1  0.57824100  0.07889300  0.53421800  1
  C  C40  1  0.42606600  0.93264000  0.46378800  1
  C  C41  1  0.11968000  0.37298100  0.93127500  1
  C  C42  1  0.01733200  0.35340900  0.88933200  1
  C  C43  1  0.87835200  0.38122500  0.07073800  1
  C  C44  1  0.97878000  0.36322700  0.11378300  1
  N  N1  1  0.50277000  0.50674900  0.85264700  1
  N  N2  1  0.49725800  0.50610000  0.14738500  1
  N  N3  1  0.49985100  0.86071600  0.49995900  1
  N  N4  1  0.49999800  0.15081400  0.50014000  1
  N  N5  1  0.16275500  0.50406400  0.94351400  1
  N  N6  1  0.83726500  0.51194400  0.05654500  1
  O  O1  1  0.32091100  0.62814400  0.49785200  1
  O  O2  1  0.67909700  0.38327400  0.50107600  1
  O  O3  1  0.67880100  0.62759000  0.49802800  1
  O  O4  1  0.32123600  0.38402100  0.50314000  1
  O  O5  1  0.49578900  0.62827800  0.41660100  1
  O  O6  1  0.50672200  0.38340000  0.58339000  1
  O  O7  1  0.49530300  0.62764400  0.58322300  1
  O  O8  1  0.50199100  0.38377200  0.41676400  1
  O  O9  1  0.71634100  0.50655100  0.85253600  1
  O  O10  1  0.28389600  0.49670300  0.14747900  1
  O  O11  1  0.29089100  0.50192500  0.84835100  1
  O  O12  1  0.70904400  0.51256500  0.15178300  1
  O  O13  1  0.16546900  0.26921100  0.95424000  1
  O  O14  1  0.83197400  0.27648100  0.04877500  1
