# generated using pymatgen
data_Cu3H52(C21O10)2
_symmetry_space_group_name_H-M   'P 1'
_cell_length_a   22.05841000
_cell_length_b   21.90869600
_cell_length_c   22.13562900
_cell_angle_alpha   119.64822200
_cell_angle_beta   119.86984200
_cell_angle_gamma   90.01320100
_symmetry_Int_Tables_number   1
_chemical_formula_structural   Cu3H52(C21O10)2
_chemical_formula_sum   'Cu6 H104 C84 O40'
_cell_volume   7618.16759253
_cell_formula_units_Z   2
loop_
 _symmetry_equiv_pos_site_id
 _symmetry_equiv_pos_as_xyz
  1  'x, y, z'
loop_
 _atom_site_type_symbol
 _atom_site_label
 _atom_site_symmetry_multiplicity
 _atom_site_fract_x
 _atom_site_fract_y
 _atom_site_fract_z
 _atom_site_occupancy
  Cu  Cu1  1  0.02749000  0.49378900  0.49561200  1
  Cu  Cu2  1  0.90557800  0.49285400  0.48826000  1
  Cu  Cu3  1  0.50542700  0.92851900  0.48782600  1
  Cu  Cu4  1  0.49769100  0.05369000  0.49652100  1
  Cu  Cu5  1  0.05442300  0.04124600  0.58585400  1
  Cu  Cu6  1  0.95933500  0.95703000  0.41767900  1
  H  H1  1  0.31194400  0.69718200  0.04814800  1
  H  H2  1  0.65047700  0.27328200  0.92225200  1
  H  H3  1  0.23489500  0.63284700  0.90666900  1
  H  H4  1  0.70760500  0.33695800  0.06370000  1
  H  H5  1  0.09336200  0.70707500  0.92993000  1
  H  H6  1  0.87369400  0.29646300  0.07966500  1
  H  H7  1  0.14054900  0.64028200  0.93094900  1
  H  H8  1  0.81412500  0.35080100  0.06279500  1
  H  H9  1  0.17617500  0.79202000  0.07178800  1
  H  H10  1  0.81136100  0.20738500  0.93875000  1
  H  H11  1  0.21886800  0.80635100  0.91382600  1
  H  H12  1  0.74202800  0.17014100  0.06465800  1
  H  H13  1  0.35810900  0.76554900  0.04928600  1
  H  H14  1  0.60344300  0.19621600  0.90897400  1
  H  H15  1  0.23708400  0.88366600  0.07310200  1
  H  H16  1  0.75025300  0.10524300  0.92239100  1
  H  H17  1  0.91986600  0.28474900  0.48510100  1
  H  H18  1  0.91182300  0.68436700  0.46620300  1
  H  H19  1  0.75710700  0.91797100  0.39541800  1
  H  H20  1  0.25918500  0.07200800  0.60713500  1
  H  H21  1  0.84790500  0.03335200  0.58723100  1
  H  H22  1  0.16351800  0.96341200  0.41414800  1
  H  H23  1  0.66959500  0.89836500  0.43359500  1
  H  H24  1  0.34463700  0.08885200  0.56494700  1
  H  H25  1  0.25375400  0.59936200  0.80571100  1
  H  H26  1  0.33811000  0.63471900  0.91012700  1
  H  H27  1  0.39925200  0.71589000  0.89585200  1
  H  H28  1  0.36600000  0.61907500  0.80952800  1
  H  H29  1  0.31583600  0.68071400  0.79239600  1
  H  H30  1  0.56079000  0.25183500  0.04080100  1
  H  H31  1  0.59410900  0.31063200  0.02249600  1
  H  H32  1  0.69547300  0.39457500  0.17848500  1
  H  H33  1  0.60567900  0.38050700  0.16029100  1
  H  H34  1  0.66442900  0.33080700  0.19437000  1
  H  H35  1  0.97553000  0.20876900  0.63275900  1
  H  H36  1  0.97410300  0.29521800  0.64175000  1
  H  H37  1  0.08020900  0.36461400  0.79270500  1
  H  H38  1  0.00307900  0.30826000  0.77172800  1
  H  H39  1  0.08231300  0.27795500  0.78360300  1
  H  H40  1  0.85807300  0.74160400  0.37443900  1
  H  H41  1  0.84914700  0.64860600  0.29867800  1
  H  H42  1  0.82742600  0.68432200  0.20097400  1
  H  H43  1  0.75963600  0.69599300  0.22572600  1
  H  H44  1  0.83408100  0.77624800  0.27581000  1
  H  H45  1  0.00564800  0.10360000  0.35823100  1
  H  H46  1  0.07575200  0.18456300  0.46314400  1
  H  H47  1  0.03855900  0.26625900  0.41584300  1
  H  H48  1  0.05555600  0.19260200  0.34529500  1
  H  H49  1  0.96154600  0.18908300  0.31279700  1
  H  H50  1  0.95695700  0.81854200  0.56596200  1
  H  H51  1  0.02993200  0.90654900  0.65464800  1
  H  H52  1  0.09659300  0.85100300  0.72916000  1
  H  H53  1  0.00240900  0.83169000  0.69908900  1
  H  H54  1  0.02925200  0.75985400  0.64012600  1
  H  H55  1  0.06554200  0.40775300  0.69626800  1
  H  H56  1  0.10927600  0.47779300  0.69705300  1
  H  H57  1  0.22969600  0.46015700  0.76753800  1
  H  H58  1  0.19102200  0.48417000  0.82860700  1
  H  H59  1  0.18683600  0.38906200  0.76671500  1
  H  H60  1  0.95746000  0.59781900  0.31319200  1
  H  H61  1  0.02308200  0.55152200  0.34113600  1
  H  H62  1  0.11726600  0.63928500  0.36595700  1
  H  H63  1  0.03406300  0.59208900  0.25936300  1
  H  H64  1  0.05273600  0.68741300  0.33905500  1
  H  H65  1  0.77638200  0.09343400  0.63939100  1
  H  H66  1  0.71982900  0.15172400  0.62632500  1
  H  H67  1  0.80719600  0.22219000  0.62698700  1
  H  H68  1  0.85329500  0.22373400  0.72225300  1
  H  H69  1  0.86449700  0.16432200  0.63830700  1
  H  H70  1  0.27840500  0.83354900  0.35974600  1
  H  H71  1  0.22672000  0.89685700  0.35331600  1
  H  H72  1  0.13974100  0.83034100  0.36054600  1
  H  H73  1  0.14169800  0.77128800  0.26910700  1
  H  H74  1  0.19044000  0.76540700  0.35934400  1
  H  H75  1  0.11025400  0.69883400  0.05546000  1
  H  H76  1  0.18714200  0.76891800  0.16513100  1
  H  H77  1  0.22662200  0.67104700  0.18245900  1
  H  H78  1  0.13053000  0.65668900  0.14562900  1
  H  H79  1  0.15394300  0.60038800  0.07234500  1
  H  H80  1  0.80323100  0.22448700  0.84414600  1
  H  H81  1  0.87193600  0.30254500  0.95403900  1
  H  H82  1  0.82011900  0.38914200  0.91883000  1
  H  H83  1  0.85064700  0.33287300  0.85329900  1
  H  H84  1  0.75296000  0.31151000  0.80998800  1
  H  H85  1  0.11236100  0.81445500  0.82815300  1
  H  H86  1  0.17646400  0.90130800  0.93218600  1
  H  H87  1  0.07360400  0.92016100  0.94875300  1
  H  H88  1  0.05701700  0.91568800  0.85770900  1
  H  H89  1  0.01045400  0.83650700  0.84313700  1
  H  H90  1  0.80062100  0.08731600  0.06146100  1
  H  H91  1  0.84833500  0.17561400  0.16590800  1
  H  H92  1  0.96513300  0.17744000  0.17800000  1
  H  H93  1  0.92428400  0.09229600  0.15824200  1
  H  H94  1  0.91811500  0.09158600  0.07320400  1
  H  H95  1  0.34776000  0.97194300  0.16843000  1
  H  H96  1  0.29035100  0.96973100  0.07239200  1
  H  H97  1  0.39612700  0.97634700  0.06247200  1
  H  H98  1  0.41765300  0.05442000  0.16294200  1
  H  H99  1  0.45296900  0.97856300  0.15764000  1
  H  H100  1  0.69802800  0.01064700  0.91268200  1
  H  H101  1  0.64875200  0.00605100  0.81451400  1
  H  H102  1  0.53160100  0.97888100  0.79875100  1
  H  H103  1  0.57719200  0.91133300  0.80476500  1
  H  H104  1  0.58036500  0.98345600  0.89598500  1
  C  C1  1  0.97132700  0.38670500  0.50872200  1
  C  C2  1  0.96098300  0.59995400  0.47507600  1
  C  C3  1  0.04183900  0.58404400  0.65172300  1
  C  C4  1  0.89174500  0.40250500  0.33231800  1
  C  C5  1  0.25021200  0.69300400  0.93357300  1
  C  C6  1  0.69927000  0.27698400  0.03629500  1
  C  C7  1  0.14802800  0.69874500  0.95095300  1
  C  C8  1  0.81517300  0.29427800  0.04641000  1
  C  C9  1  0.20073800  0.75043600  0.04681900  1
  C  C10  1  0.77652100  0.24120600  0.95150000  1
  C  C11  1  0.36919000  0.87238400  0.23880300  1
  C  C12  1  0.62633400  0.10861200  0.74538600  1
  C  C13  1  0.18041000  0.71432200  0.91156500  1
  C  C14  1  0.77519400  0.26827900  0.07315300  1
  C  C15  1  0.30376300  0.73629900  0.02903900  1
  C  C16  1  0.65868600  0.23384500  0.94091800  1
  C  C17  1  0.27269300  0.79161100  0.07050500  1
  C  C18  1  0.70369400  0.18924000  0.91399900  1
  C  C19  1  0.25763600  0.84237900  0.04033300  1
  C  C20  1  0.71972000  0.13919600  0.94516400  1
  C  C21  1  0.19814000  0.79637500  0.94568600  1
  C  C22  1  0.76817700  0.18736200  0.04140700  1
  C  C23  1  0.32604500  0.83597100  0.16273000  1
  C  C24  1  0.66172600  0.14450500  0.82157400  1
  C  C25  1  0.12781500  0.66917500  0.81915300  1
  C  C26  1  0.81666100  0.31470000  0.16557900  1
  C  C27  1  0.08703300  0.63100500  0.74277600  1
  C  C28  1  0.85067300  0.35411700  0.24170800  1
  C  C29  1  0.03080600  0.25245900  0.57229800  1
  C  C30  1  0.98021700  0.74617900  0.43390400  1
  C  C31  1  0.00021900  0.18336800  0.50081800  1
  C  C32  1  0.01431800  0.81575100  0.50436800  1
  C  C33  1  0.03458000  0.31814600  0.56928800  1
  C  C34  1  0.99162400  0.68355900  0.44177800  1
  C  C35  1  0.97255700  0.32508000  0.51857300  1
  C  C36  1  0.95257000  0.65902300  0.46072600  1
  C  C37  1  0.61818600  0.00369600  0.49392200  1
  C  C38  1  0.38586900  0.97942800  0.49217300  1
  C  C39  1  0.41905700  0.91521900  0.32954600  1
  C  C40  1  0.58299000  0.06679200  0.65469700  1
  C  C41  1  0.89805500  0.00066900  0.51591100  1
  C  C42  1  0.11556200  0.99700000  0.48743600  1
  C  C43  1  0.00161100  0.11651500  0.50179400  1
  C  C44  1  0.01157700  0.88189200  0.50207600  1
  C  C45  1  0.76744700  0.95697300  0.45687500  1
  C  C46  1  0.24647800  0.03414500  0.54423600  1
  C  C47  1  0.83633900  0.00053000  0.52449200  1
  C  C48  1  0.17652300  0.99492900  0.47757200  1
  C  C49  1  0.70553700  0.95300100  0.46487200  1
  C  C50  1  0.30645400  0.03515800  0.53277800  1
  C  C51  1  0.68620500  0.01271300  0.49760600  1
  C  C52  1  0.32047600  0.97324900  0.49365700  1
  C  C53  1  0.30357400  0.64799000  0.86382300  1
  C  C54  1  0.34923400  0.66719100  0.83870900  1
  C  C55  1  0.61156200  0.28970600  0.06313300  1
  C  C56  1  0.64673200  0.35310400  0.15507700  1
  C  C57  1  0.00998800  0.26596200  0.66523100  1
  C  C58  1  0.04634100  0.30696900  0.75963900  1
  C  C59  1  0.86618200  0.70809600  0.32335200  1
  C  C60  1  0.81869900  0.71678500  0.25172000  1
  C  C61  1  0.01962200  0.16361200  0.40491000  1
  C  C62  1  0.01878900  0.20569300  0.36720700  1
  C  C63  1  0.01702000  0.84542300  0.61691100  1
  C  C64  1  0.03763600  0.82021700  0.67508300  1
  C  C65  1  0.11067600  0.42573000  0.69378100  1
  C  C66  1  0.18444200  0.44070800  0.76914800  1
  C  C67  1  0.01707100  0.60574900  0.35254100  1
  C  C68  1  0.05794700  0.63299100  0.32758500  1
  C  C69  1  0.75848700  0.12630300  0.61218700  1
  C  C70  1  0.82532400  0.18814500  0.65257400  1
  C  C71  1  0.24290100  0.86193900  0.37796100  1
  C  C72  1  0.17413000  0.80342500  0.33920000  1
  C  C73  1  0.16804700  0.71279000  0.10733500  1
  C  C74  1  0.16991400  0.65648800  0.12839000  1
  C  C75  1  0.81503700  0.28125700  0.89662600  1
  C  C76  1  0.80932300  0.33211900  0.86776600  1
  C  C77  1  0.12586500  0.85347700  0.89276000  1
  C  C78  1  0.06245900  0.88343800  0.88501500  1
  C  C79  1  0.84626100  0.14107300  0.10716500  1
  C  C80  1  0.91828300  0.12449900  0.13076300  1
  C  C81  1  0.33691700  0.95394300  0.10646700  1
  C  C82  1  0.40551700  0.99349000  0.12353500  1
  C  C83  1  0.65035800  0.02039600  0.87103700  1
  C  C84  1  0.58017500  0.97012600  0.84058400  1
  O  O1  1  0.03244500  0.42640100  0.53027100  1
  O  O2  1  0.92255300  0.58696000  0.50040500  1
  O  O3  1  0.90755300  0.39884300  0.47716300  1
  O  O4  1  0.00341100  0.56102400  0.45978200  1
  O  O5  1  0.07384600  0.57809800  0.61301600  1
  O  O6  1  0.85788200  0.43998400  0.36625500  1
  O  O7  1  0.97228900  0.54586200  0.61144900  1
  O  O8  1  0.96225400  0.40930700  0.37706900  1
  O  O9  1  0.59115400  0.94449500  0.48550800  1
  O  O10  1  0.41227100  0.03807200  0.49938900  1
  O  O11  1  0.58744600  0.05577400  0.49975500  1
  O  O12  1  0.41561400  0.92644500  0.48451800  1
  O  O13  1  0.44550200  0.87971200  0.36519100  1
  O  O14  1  0.55767000  0.10256800  0.61915800  1
  O  O15  1  0.43355200  0.98748500  0.37279200  1
  O  O16  1  0.56919500  0.99465500  0.61155400  1
  O  O17  1  0.96571800  0.03461900  0.58514200  1
  O  O18  1  0.04799900  0.96370100  0.41841200  1
  O  O19  1  0.88322300  0.96666300  0.43964900  1
  O  O20  1  0.13055800  0.03144000  0.56386600  1
  O  O21  1  0.04641700  0.12386800  0.57377400  1
  O  O22  1  0.96738200  0.87435000  0.42975500  1
  O  O23  1  0.95952600  0.05138200  0.42915100  1
  O  O24  1  0.05409600  0.94694600  0.57437300  1
  O  O25  1  0.28278300  0.70908900  0.90042300  1
  O  O26  1  0.66004200  0.24957900  0.05662200  1
  O  O27  1  0.06467500  0.26350000  0.64999600  1
  O  O28  1  0.94045100  0.73259400  0.35468300  1
  O  O29  1  0.96728400  0.17386400  0.42397900  1
  O  O30  1  0.05774600  0.82628700  0.58187400  1
  O  O31  1  0.10227900  0.37108000  0.61861100  1
  O  O32  1  0.04711800  0.65711400  0.43856900  1
  O  O33  1  0.72394800  0.08054200  0.52442200  1
  O  O34  1  0.28092200  0.90602600  0.46627100  1
  O  O35  1  0.21519300  0.70913500  0.08163000  1
  O  O36  1  0.76309600  0.28131000  0.91533500  1
  O  O37  1  0.13432100  0.81619700  0.93118000  1
  O  O38  1  0.83851000  0.17968800  0.07027100  1
  O  O39  1  0.32239000  0.87721700  0.05674500  1
  O  O40  1  0.65327700  0.09427800  0.91604600  1
