# generated using pymatgen
data_Zn2H44C59(NO4)2
_symmetry_space_group_name_H-M   'P 1'
_cell_length_a   13.62017700
_cell_length_b   16.60285800
_cell_length_c   17.77640300
_cell_angle_alpha   90.00031100
_cell_angle_beta   89.98855200
_cell_angle_gamma   73.86876400
_symmetry_Int_Tables_number   1
_chemical_formula_structural   Zn2H44C59(NO4)2
_chemical_formula_sum   'Zn2 H44 C59 N2 O8'
_cell_volume   3861.57652717
_cell_formula_units_Z   1
loop_
 _symmetry_equiv_pos_site_id
 _symmetry_equiv_pos_as_xyz
  1  'x, y, z'
loop_
 _atom_site_type_symbol
 _atom_site_label
 _atom_site_symmetry_multiplicity
 _atom_site_fract_x
 _atom_site_fract_y
 _atom_site_fract_z
 _atom_site_occupancy
  Zn  Zn1  1  0.50398500  0.40722500  0.50615100  1
  Zn  Zn2  1  0.49836300  0.59152900  0.50976400  1
  H  H1  1  0.17841900  0.68830400  0.45173300  1
  H  H2  1  0.00244000  0.71816000  0.42062300  1
  H  H3  1  0.18213600  0.44837900  0.53122700  1
  H  H4  1  0.81764300  0.31512100  0.56711800  1
  H  H5  1  0.09953000  0.36971100  0.56476600  1
  H  H6  1  0.75733300  0.56539400  0.42388200  1
  H  H7  1  0.51348100  0.37194200  0.13191100  1
  H  H8  1  0.51639600  0.37159700  0.26873200  1
  H  H9  1  0.49931300  0.63329300  0.26744200  1
  H  H10  1  0.49645000  0.63179900  0.12993700  1
  H  H11  1  0.52026300  0.36308900  0.74715300  1
  H  H12  1  0.46408600  0.62951900  0.74748400  1
  H  H13  1  0.46851400  0.62888500  0.88422700  1
  H  H14  1  0.60809500  0.10235000  0.58621700  1
  H  H15  1  0.61360800  0.24917900  0.58897200  1
  H  H16  1  0.39443500  0.31010100  0.41624400  1
  H  H17  1  0.38614200  0.16424400  0.41145100  1
  H  H18  1  0.60143300  0.85548800  0.58672200  1
  H  H19  1  0.38707900  0.73474400  0.42771100  1
  H  H20  1  0.52251000  0.29012300  0.85693100  1
  H  H21  1  0.47008100  0.34579500  0.94082800  1
  H  H22  1  0.68401500  0.35496800  0.92154000  1
  H  H23  1  0.61329900  0.20670700  0.97896300  1
  H  H24  1  0.73982700  0.22835300  0.99475900  1
  H  H25  1  0.75944100  0.68032000  0.36343100  1
  H  H26  1  0.87837200  0.70019600  0.34270100  1
  H  H27  1  0.81483100  0.75851100  0.49904800  1
  H  H28  1  0.73274700  0.84521700  0.35108000  1
  H  H29  1  0.72695600  0.89329900  0.44709300  1
  H  H30  1  0.70712600  0.70016400  0.60269500  1
  H  H31  1  0.63065800  0.62933800  0.61480900  1
  H  H32  1  0.52980400  0.77958400  0.70098500  1
  H  H33  1  0.72655100  0.64636400  0.74303100  1
  H  H34  1  0.63526600  0.72106700  0.80705600  1
  H  H35  1  0.36729300  0.86350500  0.34516800  1
  H  H36  1  0.36615400  0.95972800  0.39122100  1
  H  H37  1  0.23245100  0.88200800  0.47856700  1
  H  H38  1  0.18459400  0.97394200  0.32822200  1
  H  H39  1  0.09207800  0.95601200  0.40021600  1
  H  H40  1  0.95733400  0.22165700  0.61890100  1
  H  H41  1  0.05505400  0.26634800  0.65356700  1
  H  H42  1  0.09936800  0.21937200  0.49347200  1
  H  H43  1  0.13618900  0.10244600  0.62968800  1
  H  H44  1  0.19962000  0.08334200  0.53506600  1
  C  C1  1  0.49428400  0.49632500  0.65516700  1
  C  C2  1  0.70178900  0.45538700  0.51109900  1
  C  C3  1  0.50728100  0.50243700  0.36074900  1
  C  C4  1  0.30120100  0.54323100  0.50286500  1
  C  C5  1  0.03740100  0.65807900  0.44591600  1
  C  C6  1  0.19000800  0.56514300  0.49323600  1
  C  C7  1  0.86185400  0.35666700  0.54956000  1
  C  C8  1  0.96465600  0.33516800  0.56440400  1
  C  C9  1  0.02099700  0.38991100  0.54762700  1
  C  C10  1  0.97695000  0.46585000  0.51116300  1
  C  C11  1  0.87360600  0.48503300  0.49263700  1
  C  C12  1  0.03305900  0.52318300  0.49319000  1
  C  C13  1  0.98412300  0.59893800  0.45848000  1
  C  C14  1  0.88377700  0.61337800  0.43407200  1
  C  C15  1  0.83163300  0.55516200  0.44886900  1
  C  C16  1  0.13756000  0.50672600  0.50827900  1
  C  C17  1  0.13879300  0.64182300  0.46427600  1
  C  C18  1  0.81458600  0.43215800  0.51571100  1
  C  C19  1  0.51059900  0.42919000  0.16191500  1
  C  C20  1  0.51227200  0.42941600  0.23936800  1
  C  C21  1  0.50810700  0.50256600  0.27821000  1
  C  C22  1  0.50284000  0.57532800  0.23848800  1
  C  C23  1  0.50109700  0.57478100  0.16082800  1
  C  C24  1  0.50465800  0.50176300  0.12260300  1
  C  C25  1  0.50172900  0.50077700  0.04193400  1
  C  C26  1  0.49935200  0.49883500  0.97420500  1
  C  C27  1  0.51085700  0.42144800  0.85492500  1
  C  C28  1  0.50816300  0.42166200  0.77709700  1
  C  C29  1  0.49264400  0.49601100  0.73770500  1
  C  C30  1  0.47772200  0.57044100  0.77673500  1
  C  C31  1  0.47988000  0.57043000  0.85413500  1
  C  C32  1  0.49689700  0.49639500  0.89343900  1
  C  C33  1  0.56090200  0.14765300  0.54814600  1
  C  C34  1  0.56401100  0.23000400  0.54955200  1
  C  C35  1  0.44197800  0.26387800  0.45338300  1
  C  C36  1  0.43706900  0.18210900  0.45062400  1
  C  C37  1  0.49671100  0.12356500  0.49850600  1
  C  C38  1  0.49142800  0.03842900  0.49744000  1
  C  C39  1  0.48849300  0.96653800  0.49795200  1
  C  C40  1  0.55295900  0.82923500  0.55191200  1
  C  C41  1  0.55668700  0.74576000  0.55853300  1
  C  C42  1  0.43369700  0.76169200  0.46357100  1
  C  C43  1  0.42721100  0.84605100  0.45655100  1
  C  C44  1  0.48869000  0.88000200  0.50128200  1
  C  C45  1  0.52863500  0.34028200  0.89629000  1
  C  C46  1  0.63299500  0.31596200  0.93005700  1
  C  C47  1  0.66389900  0.24605500  0.97038300  1
  C  C48  1  0.82950900  0.68945700  0.38940300  1
  C  C49  1  0.79817700  0.76450100  0.43935200  1
  C  C50  1  0.74967500  0.83886800  0.41072500  1
  C  C51  1  0.62910800  0.69562800  0.61536100  1
  C  C52  1  0.59922100  0.72932400  0.69235500  1
  C  C53  1  0.65731900  0.69697200  0.75103900  1
  C  C54  1  0.35481000  0.89692300  0.39987800  1
  C  C55  1  0.24755200  0.90731400  0.42494900  1
  C  C56  1  0.17003000  0.94825600  0.38179700  1
  C  C57  1  0.01502700  0.25406700  0.60233400  1
  C  C58  1  0.09005400  0.19874600  0.55022400  1
  C  C59  1  0.14531900  0.12358600  0.57308800  1
  N  N1  1  0.50471500  0.28664500  0.50252800  1
  N  N2  1  0.49776700  0.71223500  0.51343500  1
  O  O1  1  0.49980900  0.42642200  0.61883000  1
  O  O2  1  0.49194500  0.56673300  0.62095600  1
  O  O3  1  0.65610500  0.39532900  0.50991800  1
  O  O4  1  0.65054900  0.53482200  0.51273200  1
  O  O5  1  0.50845200  0.43215600  0.39489000  1
  O  O6  1  0.50317200  0.57229100  0.39704700  1
  O  O7  1  0.35165600  0.46345300  0.50364000  1
  O  O8  1  0.34628800  0.60366300  0.50471100  1
