# generated using pymatgen
data_V2H12C19O11
_symmetry_space_group_name_H-M   'P 1'
_cell_length_a   13.34850400
_cell_length_b   15.50945500
_cell_length_c   6.31048900
_cell_angle_alpha   90.00000000
_cell_angle_beta   99.74779000
_cell_angle_gamma   90.00000000
_symmetry_Int_Tables_number   1
_chemical_formula_structural   V2H12C19O11
_chemical_formula_sum   'V4 H24 C38 O22'
_cell_volume   1287.58633053
_cell_formula_units_Z   2
loop_
 _symmetry_equiv_pos_site_id
 _symmetry_equiv_pos_as_xyz
  1  'x, y, z'
loop_
 _atom_site_type_symbol
 _atom_site_label
 _atom_site_symmetry_multiplicity
 _atom_site_fract_x
 _atom_site_fract_y
 _atom_site_fract_z
 _atom_site_occupancy
  V  V1  1  0.50585400  0.49418700  0.06603200  1
  V  V2  1  0.48062600  0.49404700  0.55714800  1
  V  V3  1  0.99561300  0.00398000  0.89849100  1
  V  V4  1  0.02120800  0.00597800  0.40719800  1
  H  H1  1  0.15993000  0.79004100  0.83317600  1
  H  H2  1  0.22166800  0.15855700  0.88701700  1
  H  H3  1  0.36343800  0.72471600  0.11750800  1
  H  H4  1  0.26965700  0.34657900  0.07418000  1
  H  H5  1  0.27171300  0.83441700  0.28452200  1
  H  H6  1  0.15033000  0.26350900  0.24335200  1
  H  H7  1  0.24567800  0.67695300  0.67411200  1
  H  H8  1  0.33668100  0.24156200  0.71306000  1
  H  H9  1  0.90475900  0.74392500  0.31770500  1
  H  H10  1  0.79952700  0.15164000  0.22173800  1
  H  H11  1  0.75627800  0.82898900  0.57313600  1
  H  H12  1  0.80893500  0.23392500  0.66391600  1
  H  H13  1  0.75205100  0.64590100  0.19130400  1
  H  H14  1  0.69142100  0.28820700  0.11707500  1
  H  H15  1  0.76243200  0.83977600  0.95921000  1
  H  H16  1  0.93889400  0.86688500  0.12623700  1
  H  H17  1  0.07556700  0.76970400  0.05863700  1
  H  H18  1  0.03710200  0.65261200  0.79433900  1
  H  H19  1  0.86142500  0.63052900  0.60947700  1
  H  H20  1  0.67875500  0.16987300  0.00146500  1
  H  H21  1  0.68442000  0.01210000  0.03868100  1
  H  H22  1  0.66863200  0.92057000  0.71634200  1
  H  H23  1  0.64489400  0.98706100  0.35749100  1
  H  H24  1  0.63793700  0.14451500  0.32083100  1
  C  C1  1  0.60059500  0.61239500  0.40574500  1
  C  C2  1  0.59164200  0.37389400  0.36472700  1
  C  C3  1  0.39401400  0.37331300  0.79244100  1
  C  C4  1  0.38718800  0.61207300  0.82666500  1
  C  C5  1  0.30647700  0.67583000  0.81181900  1
  C  C6  1  0.33271500  0.29654200  0.81740800  1
  C  C7  1  0.30409600  0.72806900  0.97733800  1
  C  C8  1  0.27400500  0.29223700  0.96805100  1
  C  C9  1  0.21239100  0.83580600  0.14408700  1
  C  C10  1  0.15629500  0.20845900  0.14034900  1
  C  C11  1  0.21861600  0.78669900  0.97457000  1
  C  C12  1  0.21593500  0.21318200  0.99149700  1
  C  C13  1  0.83666100  0.74990200  0.38890500  1
  C  C14  1  0.77746700  0.19438300  0.34164200  1
  C  C15  1  0.82701000  0.81784800  0.51504400  1
  C  C16  1  0.82293500  0.18738300  0.54449800  1
  C  C17  1  0.75467400  0.68515300  0.33428500  1
  C  C18  1  0.70359200  0.26324800  0.27987000  1
  C  C19  1  0.68389800  0.67482300  0.45811600  1
  C  C20  1  0.65720500  0.30026400  0.42663400  1
  C  C21  1  0.89630900  0.11881200  0.60386900  1
  C  C22  1  0.90807500  0.88306500  0.56284000  1
  C  C23  1  0.12626600  0.89401800  0.13336800  1
  C  C24  1  0.09757800  0.13018000  0.16557400  1
  C  C25  1  0.69764400  0.71895900  0.66479100  1
  C  C26  1  0.80117500  0.73258800  0.77713500  1
  C  C27  1  0.82254500  0.79814000  0.92444300  1
  C  C28  1  0.92158300  0.81286200  0.02009500  1
  C  C29  1  0.99842700  0.75956600  0.97765000  1
  C  C30  1  0.97686500  0.69381600  0.83035400  1
  C  C31  1  0.87843200  0.68140800  0.72718100  1
  C  C32  1  0.66078600  0.26126300  0.63890000  1
  C  C33  1  0.66458000  0.16727900  0.66024100  1
  C  C34  1  0.67412200  0.12980600  0.86064500  1
  C  C35  1  0.67630900  0.04127800  0.88111000  1
  C  C36  1  0.66730200  0.98998200  0.70049900  1
  C  C37  1  0.65440500  0.02727000  0.49942600  1
  C  C38  1  0.65231700  0.11582300  0.47914600  1
  O  O1  1  0.60497000  0.44456000  0.47811400  1
  O  O2  1  0.53402200  0.61128600  0.53821600  1
  O  O3  1  0.61466800  0.54475200  0.28374700  1
  O  O4  1  0.54489600  0.37634900  0.16706300  1
  O  O5  1  0.45182600  0.61113800  0.00946000  1
  O  O6  1  0.38181800  0.44387900  0.89849000  1
  O  O7  1  0.41444300  0.49534500  0.30742000  1
  O  O8  1  0.44337600  0.37560900  0.63134000  1
  O  O9  1  0.37155300  0.54387900  0.69757300  1
  O  O10  1  0.57206000  0.49601700  0.86395100  1
  O  O11  1  0.97803800  0.88431500  0.43895200  1
  O  O12  1  0.89122000  0.05039100  0.48199800  1
  O  O13  1  0.94582400  0.11788100  0.79991800  1
  O  O14  1  0.89148100  0.95097200  0.68137400  1
  O  O15  1  0.11504800  0.05929600  0.06630600  1
  O  O16  1  0.06013100  0.89151900  0.95230400  1
  O  O17  1  0.08653100  0.01136900  0.65668700  1
  O  O18  1  0.13484600  0.96016000  0.27064100  1
  O  O19  1  0.04622700  0.12685200  0.32308700  1
  O  O20  1  0.93023300  0.99552300  0.10105800  1
  O  O21  1  0.62478900  0.74079900  0.74530800  1
  O  O22  1  0.65063700  0.30603900  0.79261300  1
