# generated using pymatgen
data_ZnH5C11N3O4
_symmetry_space_group_name_H-M   'P 1'
_cell_length_a   8.50267600
_cell_length_b   11.24121900
_cell_length_c   12.83223000
_cell_angle_alpha   90.57641300
_cell_angle_beta   92.85047200
_cell_angle_gamma   80.80124500
_symmetry_Int_Tables_number   1
_chemical_formula_structural   ZnH5C11N3O4
_chemical_formula_sum   'Zn2 H10 C22 N6 O8'
_cell_volume   1209.23619297
_cell_formula_units_Z   2
loop_
 _symmetry_equiv_pos_site_id
 _symmetry_equiv_pos_as_xyz
  1  'x, y, z'
loop_
 _atom_site_type_symbol
 _atom_site_label
 _atom_site_symmetry_multiplicity
 _atom_site_fract_x
 _atom_site_fract_y
 _atom_site_fract_z
 _atom_site_occupancy
  Zn  Zn1  1  0.50100300  0.50152600  0.88398100  1
  Zn  Zn2  1  0.49899600  0.49847400  0.11601800  1
  H  H1  1  0.00156700  0.58742100  0.96756500  1
  H  H2  1  0.99843300  0.41258000  0.03243500  1
  H  H3  1  0.57392300  0.82510100  0.10675700  1
  H  H4  1  0.69114000  0.89927300  0.18354800  1
  H  H5  1  0.42607600  0.17489900  0.89324300  1
  H  H6  1  0.30885900  0.10072700  0.81645100  1
  H  H7  1  0.32503300  0.90342900  0.86840700  1
  H  H8  1  0.39297600  0.93367700  0.99464600  1
  H  H9  1  0.60702300  0.06632300  0.00535400  1
  H  H10  1  0.67496600  0.09657200  0.13159300  1
  C  C1  1  0.09326500  0.74937000  0.99137500  1
  C  C2  1  0.90673400  0.25063100  0.00862500  1
  C  C3  1  0.97375100  0.68118100  0.98739800  1
  C  C4  1  0.02624800  0.31882000  0.01260200  1
  C  C5  1  0.82372500  0.72792000  0.01678600  1
  C  C6  1  0.17627500  0.27208000  0.98321400  1
  C  C7  1  0.78972000  0.84638800  0.04869400  1
  C  C8  1  0.21027900  0.15361200  0.95130600  1
  C  C9  1  0.89458500  0.92417400  0.02544900  1
  C  C10  1  0.10541400  0.07582700  0.97455000  1
  C  C11  1  0.04848700  0.87493600  0.99801400  1
  C  C12  1  0.95151300  0.12506400  0.00198600  1
  C  C13  1  0.84703600  0.04947500  0.02700600  1
  C  C14  1  0.15296300  0.95052600  0.97299400  1
  C  C15  1  0.50334300  0.50165500  0.65708300  1
  C  C16  1  0.49665700  0.49834500  0.34291700  1
  C  C17  1  0.29569900  0.35071900  0.98819300  1
  C  C18  1  0.70430000  0.64928100  0.01180700  1
  C  C19  1  0.25792300  0.67897900  0.99299800  1
  C  C20  1  0.74207600  0.32102100  0.00700100  1
  C  C21  1  0.50110500  0.50053300  0.54698300  1
  C  C22  1  0.49889400  0.49946800  0.45301700  1
  N  N1  1  0.50447600  0.50232700  0.74728600  1
  N  N2  1  0.49552400  0.49767400  0.25271400  1
  N  N3  1  0.65171300  0.88743300  0.10632800  1
  N  N4  1  0.34828600  0.11256700  0.89367200  1
  N  N5  1  0.30967100  0.89629800  0.94813000  1
  N  N6  1  0.69032800  0.10370200  0.05186900  1
  O  O1  1  0.34108500  0.38683300  0.08047000  1
  O  O2  1  0.65891500  0.61316700  0.91953000  1
  O  O3  1  0.34820200  0.38440600  0.90096300  1
  O  O4  1  0.65179700  0.61559400  0.09903700  1
  O  O5  1  0.31483300  0.63422500  0.90458300  1
  O  O6  1  0.68516600  0.36577500  0.09541700  1
  O  O7  1  0.31960400  0.63583600  0.08402300  1
  O  O8  1  0.68039500  0.36416500  0.91597700  1
