# generated using pymatgen
data_VH8(C8O3)2
_symmetry_space_group_name_H-M   'P 1'
_cell_length_a   19.46240800
_cell_length_b   6.76553700
_cell_length_c   16.70270000
_cell_angle_alpha   90.00000000
_cell_angle_beta   108.79569700
_cell_angle_gamma   90.00000000
_symmetry_Int_Tables_number   1
_chemical_formula_structural   VH8(C8O3)2
_chemical_formula_sum   'V4 H32 C64 O24'
_cell_volume   2082.02398727
_cell_formula_units_Z   4
loop_
 _symmetry_equiv_pos_site_id
 _symmetry_equiv_pos_as_xyz
  1  'x, y, z'
loop_
 _atom_site_type_symbol
 _atom_site_label
 _atom_site_symmetry_multiplicity
 _atom_site_fract_x
 _atom_site_fract_y
 _atom_site_fract_z
 _atom_site_occupancy
  V  V1  1  0.49564200  0.97216900  0.48583900  1
  V  V2  1  0.50436000  0.47216900  0.51417000  1
  V  V3  1  0.00042100  0.34028000  0.00988400  1
  V  V4  1  0.99958200  0.84028100  0.99012300  1
  H  H1  1  0.68351100  0.44233200  0.72347400  1
  H  H2  1  0.31650100  0.94231200  0.27652400  1
  H  H3  1  0.67717000  0.88835400  0.54825500  1
  H  H4  1  0.32282700  0.38838500  0.45175800  1
  H  H5  1  0.75622700  0.60955200  0.55388300  1
  H  H6  1  0.24375900  0.10961100  0.44614400  1
  H  H7  1  0.87035500  0.57589300  0.67113100  1
  H  H8  1  0.12963200  0.07594600  0.32889700  1
  H  H9  1  0.90499500  0.82113600  0.78190200  1
  H  H10  1  0.09500200  0.32115600  0.21811100  1
  H  H11  1  0.79824600  0.41221400  0.83920400  1
  H  H12  1  0.20176700  0.91219400  0.16079300  1
  H  H13  1  0.35182800  0.47503900  0.63145200  1
  H  H14  1  0.64817000  0.97504700  0.36855200  1
  H  H15  1  0.35796100  0.69443100  0.79036100  1
  H  H16  1  0.64203000  0.19444100  0.20963700  1
  H  H17  1  0.27114600  0.68444600  0.86521100  1
  H  H18  1  0.72884600  0.18446100  0.13478600  1
  H  H19  1  0.17815100  0.83596000  0.90770500  1
  H  H20  1  0.82184400  0.33596900  0.09229600  1
  H  H21  1  0.12573100  0.44202500  0.85053700  1
  H  H22  1  0.87426700  0.94203000  0.14946500  1
  H  H23  1  0.18161200  0.62054200  0.76526600  1
  H  H24  1  0.81838000  0.12055200  0.23473000  1
  H  H25  1  0.26706200  0.63284400  0.68440000  1
  H  H26  1  0.73292900  0.13285500  0.31559700  1
  H  H27  1  0.58727600  0.78054000  0.66770400  1
  H  H28  1  0.51927800  0.59280500  0.66315700  1
  H  H29  1  0.56834400  0.70698600  0.76269000  1
  H  H30  1  0.41272600  0.28055300  0.33230700  1
  H  H31  1  0.48072400  0.09281500  0.33685500  1
  H  H32  1  0.43165400  0.20699300  0.23732200  1
  C  C1  1  0.56858900  0.68927300  0.39792000  1
  C  C2  1  0.43141300  0.18926400  0.60208900  1
  C  C3  1  0.37572200  0.68835400  0.39734600  1
  C  C4  1  0.62428100  0.18835800  0.60266200  1
  C  C5  1  0.72454300  0.87247400  0.60311600  1
  C  C6  1  0.27545200  0.37250300  0.39690100  1
  C  C7  1  0.77001800  0.71557000  0.60502400  1
  C  C8  1  0.22997200  0.21561600  0.39500000  1
  C  C9  1  0.83392500  0.69683700  0.67062700  1
  C  C10  1  0.16606500  0.19688100  0.32939700  1
  C  C11  1  0.85271300  0.83538300  0.73433700  1
  C  C12  1  0.14728200  0.33541300  0.26568000  1
  C  C13  1  0.80671200  0.99195400  0.73416900  1
  C  C14  1  0.19328800  0.49196900  0.26584300  1
  C  C15  1  0.74182600  0.01011100  0.66803500  1
  C  C16  1  0.25817400  0.51012400  0.33197600  1
  C  C17  1  0.69633500  0.16983800  0.66590800  1
  C  C18  1  0.30366900  0.66983700  0.33410000  1
  C  C19  1  0.71827600  0.31629500  0.72591300  1
  C  C20  1  0.28173300  0.81628300  0.27408900  1
  C  C21  1  0.78265600  0.29913900  0.79098700  1
  C  C22  1  0.21735400  0.79912900  0.20901600  1
  C  C23  1  0.82590900  0.13497200  0.79733500  1
  C  C24  1  0.17409500  0.63497400  0.20267200  1
  C  C25  1  0.34763700  0.34102100  0.66475900  1
  C  C26  1  0.65236200  0.84102900  0.33524500  1
  C  C27  1  0.38708800  0.17706300  0.65776900  1
  C  C28  1  0.61291300  0.67707200  0.34223800  1
  C  C29  1  0.38171100  0.00385600  0.69946200  1
  C  C30  1  0.61828900  0.50386600  0.30054400  1
  C  C31  1  0.33363200  0.99456600  0.74592200  1
  C  C32  1  0.66636500  0.49457800  0.25408000  1
  C  C33  1  0.29294600  0.15982200  0.75071000  1
  C  C34  1  0.70705100  0.65983300  0.24929100  1
  C  C35  1  0.30072900  0.33287800  0.71093400  1
  C  C36  1  0.69926700  0.83288700  0.28906700  1
  C  C37  1  0.32627100  0.82489500  0.78914200  1
  C  C38  1  0.67372200  0.32490700  0.21085700  1
  C  C39  1  0.27697500  0.81819600  0.83258000  1
  C  C40  1  0.72301900  0.31821000  0.16741800  1
  C  C41  1  0.23572700  0.98134500  0.83533000  1
  C  C42  1  0.76426900  0.48135700  0.16466900  1
  C  C43  1  0.24465600  0.15338800  0.79585800  1
  C  C44  1  0.75534100  0.65340000  0.20414100  1
  C  C45  1  0.20501400  0.31903100  0.80142700  1
  C  C46  1  0.79498300  0.81903900  0.19857400  1
  C  C47  1  0.21313500  0.49136300  0.76154800  1
  C  C48  1  0.78686000  0.99137200  0.23845200  1
  C  C49  1  0.26088500  0.49802400  0.71613100  1
  C  C50  1  0.73911000  0.99803500  0.28386800  1
  C  C51  1  0.18577900  0.97232700  0.87789800  1
  C  C52  1  0.81421700  0.47233600  0.12210200  1
  C  C53  1  0.14638300  0.13787500  0.88361500  1
  C  C54  1  0.85361600  0.63787900  0.11638900  1
  C  C55  1  0.15680100  0.31219200  0.84643900  1
  C  C56  1  0.84319800  0.81219800  0.15356400  1
  C  C57  1  0.10900900  0.62122000  0.12818100  1
  C  C58  1  0.89099500  0.12121700  0.87182600  1
  C  C59  1  0.90713900  0.62678100  0.07237500  1
  C  C60  1  0.09286300  0.12677900  0.92763400  1
  C  C61  1  0.43075200  0.83984600  0.69759900  1
  C  C62  1  0.54422900  0.73248500  0.69368100  1
  C  C63  1  0.56924900  0.33985300  0.30241000  1
  C  C64  1  0.45577300  0.23249500  0.30633100  1
  O  O1  1  0.40748100  0.52031500  0.43164700  1
  O  O2  1  0.59252000  0.02032000  0.56836000  1
  O  O3  1  0.54434500  0.86973200  0.40626100  1
  O  O4  1  0.45565700  0.36972300  0.59374600  1
  O  O5  1  0.40419100  0.86945300  0.40569000  1
  O  O6  1  0.59581100  0.36945900  0.59432000  1
  O  O7  1  0.44321400  0.01984700  0.56774800  1
  O  O8  1  0.55679000  0.51985600  0.43226300  1
  O  O9  1  0.51484000  0.70725300  0.54915200  1
  O  O10  1  0.48515700  0.20725400  0.45085700  1
  O  O11  1  0.92899300  0.79378700  0.04963400  1
  O  O12  1  0.07101500  0.29378800  0.95037800  1
  O  O13  1  0.07999900  0.44770600  0.10595900  1
  O  O14  1  0.92000100  0.94770200  0.89405100  1
  O  O15  1  0.93004400  0.45011400  0.06184600  1
  O  O16  1  0.06995500  0.95011600  0.93815400  1
  O  O17  1  0.91581100  0.28748100  0.90937000  1
  O  O18  1  0.08419500  0.78748200  0.09063400  1
  O  O19  1  0.99575400  0.61284200  0.94939500  1
  O  O20  1  0.00424900  0.11284200  0.05061500  1
  O  O21  1  0.41780400  0.67162100  0.71419100  1
  O  O22  1  0.49213200  0.87641200  0.67964100  1
  O  O23  1  0.58219600  0.17163000  0.28581400  1
  O  O24  1  0.50787000  0.37642100  0.32037000  1
