# generated using pymatgen
data_ZnH4C15N3O4
_symmetry_space_group_name_H-M   'P 1'
_cell_length_a   11.34758900
_cell_length_b   14.46376900
_cell_length_c   8.51846900
_cell_angle_alpha   90.00000000
_cell_angle_beta   107.52686100
_cell_angle_gamma   90.00000000
_symmetry_Int_Tables_number   1
_chemical_formula_structural   ZnH4C15N3O4
_chemical_formula_sum   'Zn2 H8 C30 N6 O8'
_cell_volume   1333.22016995
_cell_formula_units_Z   2
loop_
 _symmetry_equiv_pos_site_id
 _symmetry_equiv_pos_as_xyz
  1  'x, y, z'
loop_
 _atom_site_type_symbol
 _atom_site_label
 _atom_site_symmetry_multiplicity
 _atom_site_fract_x
 _atom_site_fract_y
 _atom_site_fract_z
 _atom_site_occupancy
  Zn  Zn1  1  0.51017600  0.10482400  0.99881500  1
  Zn  Zn2  1  0.48982500  0.89517600  0.00118600  1
  H  H1  1  0.01920400  0.05743200  0.71339900  1
  H  H2  1  0.98079700  0.94256800  0.28660200  1
  H  H3  1  0.88670200  0.01470200  0.05926500  1
  H  H4  1  0.11329900  0.98529800  0.94073600  1
  H  H5  1  0.58821200  0.95306400  0.54237400  1
  H  H6  1  0.41178900  0.04693700  0.45762700  1
  H  H7  1  0.90106300  0.05343400  0.42156900  1
  H  H8  1  0.09893800  0.94656600  0.57843200  1
  C  C1  1  0.68495300  0.97135400  0.58020900  1
  C  C2  1  0.31504700  0.02864700  0.41979200  1
  C  C3  1  0.74643300  0.98265200  0.74470100  1
  C  C4  1  0.25356700  0.01734800  0.25529900  1
  C  C5  1  0.87029600  0.00609400  0.79553500  1
  C  C6  1  0.12970400  0.99390600  0.20446600  1
  C  C7  1  0.92630200  0.03035600  0.67763000  1
  C  C8  1  0.07369800  0.96964300  0.32237100  1
  C  C9  1  0.85955200  0.02857900  0.51218600  1
  C  C10  1  0.14044800  0.97142100  0.48781500  1
  C  C11  1  0.74016200  0.99510000  0.46320800  1
  C  C12  1  0.25983900  0.00490100  0.53679300  1
  C  C13  1  0.93873100  0.00655600  0.97264000  1
  C  C14  1  0.06127000  0.99344300  0.02736100  1
  C  C15  1  0.49201000  0.59509000  0.00315600  1
  C  C16  1  0.50799000  0.40491000  0.99684500  1
  C  C17  1  0.48433900  0.69411400  0.00436200  1
  C  C18  1  0.51566100  0.30588700  0.99563800  1
  C  C19  1  0.67094600  0.98757000  0.85533900  1
  C  C20  1  0.32905500  0.01243000  0.14466200  1
  C  C21  1  0.33654600  0.00309100  0.70862000  1
  C  C22  1  0.66345500  0.99690900  0.29138100  1
  C  C23  1  0.38613700  0.54226500  0.96763900  1
  C  C24  1  0.61386300  0.45773500  0.03236200  1
  C  C25  1  0.60582700  0.55282000  0.03537200  1
  C  C26  1  0.39417300  0.44718100  0.96462800  1
  C  C27  1  0.28400900  0.39213500  0.92816400  1
  C  C28  1  0.71599200  0.60786500  0.07183700  1
  C  C29  1  0.73231000  0.41383300  0.06634800  1
  C  C30  1  0.26769000  0.58616700  0.93365200  1
  N  N1  1  0.51951900  0.22595100  0.99530800  1
  N  N2  1  0.48048100  0.77404900  0.00469300  1
  N  N3  1  0.19517800  0.34776300  0.89875500  1
  N  N4  1  0.80482200  0.65223700  0.10124500  1
  N  N5  1  0.82780600  0.37843100  0.09373900  1
  N  N6  1  0.17219400  0.62157000  0.90626200  1
  O  O1  1  0.62115600  0.91064900  0.88848200  1
  O  O2  1  0.37884500  0.08935100  0.11151900  1
  O  O3  1  0.36110700  0.92912300  0.11003500  1
  O  O4  1  0.63889400  0.07087700  0.88996500  1
  O  O5  1  0.38482300  0.08073900  0.77727600  1
  O  O6  1  0.61517700  0.91926100  0.22272500  1
  O  O7  1  0.63312200  0.07720400  0.22057100  1
  O  O8  1  0.36687900  0.92279600  0.77943000  1
