# generated using pymatgen
data_Cu3H28(C23O6)2
_symmetry_space_group_name_H-M   'P 1'
_cell_length_a   29.95591100
_cell_length_b   30.45188400
_cell_length_c   21.42012900
_cell_angle_alpha   90.00000000
_cell_angle_beta   134.33426000
_cell_angle_gamma   90.00000000
_symmetry_Int_Tables_number   1
_chemical_formula_structural   Cu3H28(C23O6)2
_chemical_formula_sum   'Cu12 H112 C184 O48'
_cell_volume   13976.28729631
_cell_formula_units_Z   4
loop_
 _symmetry_equiv_pos_site_id
 _symmetry_equiv_pos_as_xyz
  1  'x, y, z'
loop_
 _atom_site_type_symbol
 _atom_site_label
 _atom_site_symmetry_multiplicity
 _atom_site_fract_x
 _atom_site_fract_y
 _atom_site_fract_z
 _atom_site_occupancy
  Cu  Cu1  1  0.28042300  0.71352800  0.06085200  1
  Cu  Cu2  1  0.71957800  0.71352800  0.93914800  1
  Cu  Cu3  1  0.78042300  0.21352800  0.06085200  1
  Cu  Cu4  1  0.21957800  0.21352800  0.93914800  1
  Cu  Cu5  1  0.22048100  0.77635200  0.93979500  1
  Cu  Cu6  1  0.77951900  0.77635200  0.06020500  1
  Cu  Cu7  1  0.72048100  0.27635200  0.93979500  1
  Cu  Cu8  1  0.27951900  0.27635200  0.06020500  1
  Cu  Cu9  1  0.54055100  0.99466400  0.49420700  1
  Cu  Cu10  1  0.45944900  0.99466400  0.50579400  1
  Cu  Cu11  1  0.04055100  0.49466400  0.49420700  1
  Cu  Cu12  1  0.95944900  0.49466400  0.50579400  1
  H  H1  1  0.61077100  0.81555300  0.00248400  1
  H  H2  1  0.38923000  0.81555300  0.99751700  1
  H  H3  1  0.11077100  0.31555300  0.00248400  1
  H  H4  1  0.88923000  0.31555300  0.99751700  1
  H  H5  1  0.60705600  0.67696600  0.98912800  1
  H  H6  1  0.39294400  0.67696600  0.01087200  1
  H  H7  1  0.10705600  0.17696600  0.98912800  1
  H  H8  1  0.89294400  0.17696600  0.01087200  1
  H  H9  1  0.45879200  0.85402100  0.99901100  1
  H  H10  1  0.54120900  0.85402100  0.00098900  1
  H  H11  1  0.95879200  0.35402100  0.99901100  1
  H  H12  1  0.04120900  0.35402100  0.00098900  1
  H  H13  1  0.42686300  0.82117200  0.23761200  1
  H  H14  1  0.57313800  0.82117200  0.76238900  1
  H  H15  1  0.92686300  0.32117200  0.23761200  1
  H  H16  1  0.07313800  0.32117200  0.76238900  1
  H  H17  1  0.21636200  0.83133800  0.09809600  1
  H  H18  1  0.78363900  0.83133800  0.90190400  1
  H  H19  1  0.71636200  0.33133800  0.09809600  1
  H  H20  1  0.28363900  0.33133800  0.90190400  1
  H  H21  1  0.21113600  0.94403500  0.20830400  1
  H  H22  1  0.78886400  0.94403500  0.79169600  1
  H  H23  1  0.71113600  0.44403500  0.20830400  1
  H  H24  1  0.28886400  0.44403500  0.79169600  1
  H  H25  1  0.32092100  0.95595800  0.30062700  1
  H  H26  1  0.67908000  0.95595800  0.69937300  1
  H  H27  1  0.82092100  0.45595800  0.30062700  1
  H  H28  1  0.17908000  0.45595900  0.69937300  1
  H  H29  1  0.48162800  0.87893300  0.34787600  1
  H  H30  1  0.51837200  0.87893300  0.65212400  1
  H  H31  1  0.98162800  0.37893300  0.34787600  1
  H  H32  1  0.01837200  0.37893300  0.65212400  1
  H  H33  1  0.82235200  0.74246100  0.86992200  1
  H  H34  1  0.17764800  0.74246100  0.13007800  1
  H  H35  1  0.32235200  0.24246100  0.86992200  1
  H  H36  1  0.67764800  0.24246100  0.13007800  1
  H  H37  1  0.07773400  0.74388100  0.22248000  1
  H  H38  1  0.92226700  0.74388100  0.77752100  1
  H  H39  1  0.57773400  0.24388100  0.22248000  1
  H  H40  1  0.42226700  0.24388100  0.77752100  1
  H  H41  1  0.15235900  0.74329300  0.21257300  1
  H  H42  1  0.84764100  0.74329300  0.78742800  1
  H  H43  1  0.65235900  0.24329300  0.21257300  1
  H  H44  1  0.34764100  0.24329300  0.78742800  1
  H  H45  1  0.24186600  0.69937300  0.82187800  1
  H  H46  1  0.75813400  0.69937300  0.17812200  1
  H  H47  1  0.74186600  0.19937300  0.82187800  1
  H  H48  1  0.25813400  0.19937300  0.17812200  1
  H  H49  1  0.25281900  0.69617400  0.72115900  1
  H  H50  1  0.74718200  0.69617400  0.27884100  1
  H  H51  1  0.75281900  0.19617400  0.72115900  1
  H  H52  1  0.24718200  0.19617400  0.27884100  1
  H  H53  1  0.18821600  0.64614400  0.59586700  1
  H  H54  1  0.81178400  0.64614400  0.40413300  1
  H  H55  1  0.68821600  0.14614400  0.59586700  1
  H  H56  1  0.31178400  0.14614400  0.40413300  1
  H  H57  1  0.11426500  0.59827000  0.57321600  1
  H  H58  1  0.88573500  0.59827000  0.42678500  1
  H  H59  1  0.61426500  0.09827000  0.57321600  1
  H  H60  1  0.38573500  0.09827000  0.42678500  1
  H  H61  1  0.05651700  0.57083500  0.72854900  1
  H  H62  1  0.94348300  0.57083500  0.27145100  1
  H  H63  1  0.55651700  0.07083500  0.72854900  1
  H  H64  1  0.44348300  0.07083500  0.27145100  1
  H  H65  1  0.00431800  0.70673500  0.20792400  1
  H  H66  1  0.99618400  0.76546400  0.21248300  1
  H  H67  1  0.93370800  0.72787200  0.16783100  1
  H  H68  1  0.99568200  0.70673500  0.79207600  1
  H  H69  1  0.00381600  0.76546400  0.78751800  1
  H  H70  1  0.06629200  0.72787200  0.83217000  1
  H  H71  1  0.50431800  0.20673500  0.20792400  1
  H  H72  1  0.49618400  0.26546400  0.21248300  1
  H  H73  1  0.43370800  0.22787200  0.16783100  1
  H  H74  1  0.49568200  0.20673500  0.79207600  1
  H  H75  1  0.50381600  0.26546400  0.78751800  1
  H  H76  1  0.56629200  0.22787200  0.83217000  1
  H  H77  1  0.05241700  0.62770000  0.80926000  1
  H  H78  1  0.12135700  0.59617300  0.89415100  1
  H  H79  1  0.12334700  0.65533000  0.89704600  1
  H  H80  1  0.94758300  0.62770000  0.19074100  1
  H  H81  1  0.87864300  0.59617300  0.10585000  1
  H  H82  1  0.87665300  0.65533000  0.10295400  1
  H  H83  1  0.55241700  0.12770000  0.80926000  1
  H  H84  1  0.62135700  0.09617300  0.89415100  1
  H  H85  1  0.62334700  0.15533000  0.89704600  1
  H  H86  1  0.44758300  0.12770000  0.19074100  1
  H  H87  1  0.37864300  0.09617300  0.10585000  1
  H  H88  1  0.37665300  0.15533000  0.10295400  1
  H  H89  1  0.60941600  0.62914700  0.07099500  1
  H  H90  1  0.55041000  0.59751600  0.04674200  1
  H  H91  1  0.54404300  0.61218300  0.95862300  1
  H  H92  1  0.39058400  0.62914700  0.92900500  1
  H  H93  1  0.44959000  0.59751600  0.95325800  1
  H  H94  1  0.45595700  0.61218300  0.04137700  1
  H  H95  1  0.10941600  0.12914700  0.07099500  1
  H  H96  1  0.05041000  0.09751600  0.04674200  1
  H  H97  1  0.04404300  0.11218300  0.95862300  1
  H  H98  1  0.89058400  0.12914700  0.92900500  1
  H  H99  1  0.94959000  0.09751600  0.95325800  1
  H  H100  1  0.95595700  0.11218300  0.04137700  1
  H  H101  1  0.12293500  0.85041700  0.05065100  1
  H  H102  1  0.13117400  0.87495200  0.13501300  1
  H  H103  1  0.11377100  0.90903700  0.05107000  1
  H  H104  1  0.87706500  0.85041700  0.94934900  1
  H  H105  1  0.86882600  0.87495200  0.86498800  1
  H  H106  1  0.88622900  0.90903700  0.94893100  1
  H  H107  1  0.62293500  0.35041700  0.05065100  1
  H  H108  1  0.63117400  0.37495200  0.13501300  1
  H  H109  1  0.61377100  0.40903700  0.05107000  1
  H  H110  1  0.37706500  0.35041700  0.94934900  1
  H  H111  1  0.36882600  0.37495200  0.86498800  1
  H  H112  1  0.38622900  0.40903700  0.94893100  1
  C  C1  1  0.30686700  0.80388400  0.11994400  1
  C  C2  1  0.69313300  0.80388400  0.88005700  1
  C  C3  1  0.80686700  0.30388400  0.11994400  1
  C  C4  1  0.19313300  0.30388400  0.88005700  1
  C  C5  1  0.33825600  0.74631000  0.00463400  1
  C  C6  1  0.66174400  0.74631000  0.99536600  1
  C  C7  1  0.83825600  0.24631000  0.00463400  1
  C  C8  1  0.16174400  0.24631000  0.99536600  1
  C  C9  1  0.19390000  0.68594900  0.88073000  1
  C  C10  1  0.80610000  0.68594900  0.11927000  1
  C  C11  1  0.69390000  0.18594900  0.88073000  1
  C  C12  1  0.30610000  0.18594900  0.11927000  1
  C  C13  1  0.16153500  0.74257100  0.99385500  1
  C  C14  1  0.83846500  0.74257100  0.00614500  1
  C  C15  1  0.66153500  0.24257100  0.99385500  1
  C  C16  1  0.33846500  0.24257100  0.00614500  1
  C  C17  1  0.59241300  0.78460400  0.00106600  1
  C  C18  1  0.40758700  0.78460400  0.99893400  1
  C  C19  1  0.09241300  0.28460400  0.00106600  1
  C  C20  1  0.90758800  0.28460400  0.99893400  1
  C  C21  1  0.61333200  0.74588400  0.99608300  1
  C  C22  1  0.38666800  0.74588400  0.00391700  1
  C  C23  1  0.11333200  0.24588400  0.99608300  1
  C  C24  1  0.88666800  0.24588400  0.00391700  1
  C  C25  1  0.58968100  0.70646700  0.99386500  1
  C  C26  1  0.41032000  0.70646700  0.00613500  1
  C  C27  1  0.08968100  0.20646700  0.99386500  1
  C  C28  1  0.91032000  0.20646700  0.00613500  1
  C  C29  1  0.54582500  0.70529800  0.99887800  1
  C  C30  1  0.45417500  0.70529800  0.00112300  1
  C  C31  1  0.04582500  0.20529800  0.99887800  1
  C  C32  1  0.95417500  0.20529800  0.00112300  1
  C  C33  1  0.52271200  0.74449100  0.99931400  1
  C  C34  1  0.47728800  0.74449100  0.00068600  1
  C  C35  1  0.02271200  0.24449100  0.99931400  1
  C  C36  1  0.97728800  0.24449100  0.00068600  1
  C  C37  1  0.54602300  0.78397800  0.00020500  1
  C  C38  1  0.45397700  0.78397800  0.99979600  1
  C  C39  1  0.04602300  0.28397800  0.00020500  1
  C  C40  1  0.95397700  0.28397800  0.99979600  1
  C  C41  1  0.52461800  0.66559800  0.00269700  1
  C  C42  1  0.47538200  0.66559800  0.99730300  1
  C  C43  1  0.02461800  0.16559800  0.00269700  1
  C  C44  1  0.97538200  0.16559800  0.99730300  1
  C  C45  1  0.47681300  0.82314500  0.99946400  1
  C  C46  1  0.52318800  0.82314500  0.00053700  1
  C  C47  1  0.97681300  0.32314500  0.99946400  1
  C  C48  1  0.02318800  0.32314500  0.00053700  1
  C  C49  1  0.24099500  0.85845900  0.14313000  1
  C  C50  1  0.75900500  0.85845900  0.85687000  1
  C  C51  1  0.74099500  0.35845900  0.14313000  1
  C  C52  1  0.25900500  0.35845900  0.85687000  1
  C  C53  1  0.20777300  0.88651400  0.14859900  1
  C  C54  1  0.79222800  0.88651400  0.85140100  1
  C  C55  1  0.70777300  0.38651400  0.14859900  1
  C  C56  1  0.29222800  0.38651400  0.85140100  1
  C  C57  1  0.23738800  0.92139300  0.20530900  1
  C  C58  1  0.76261300  0.92139300  0.79469100  1
  C  C59  1  0.73738800  0.42139300  0.20530900  1
  C  C60  1  0.26261300  0.42139300  0.79469100  1
  C  C61  1  0.30048100  0.92751900  0.25883900  1
  C  C62  1  0.69951900  0.92751900  0.74116200  1
  C  C63  1  0.80048100  0.42751900  0.25883900  1
  C  C64  1  0.19951900  0.42751900  0.74116200  1
  C  C65  1  0.33521800  0.89844000  0.25681000  1
  C  C66  1  0.66478200  0.89844000  0.74319100  1
  C  C67  1  0.83521800  0.39844000  0.25681000  1
  C  C68  1  0.16478200  0.39844000  0.74319100  1
  C  C69  1  0.30450900  0.86475700  0.19555200  1
  C  C70  1  0.69549100  0.86475700  0.80444800  1
  C  C71  1  0.80450900  0.36475700  0.19555200  1
  C  C72  1  0.19549100  0.36475700  0.80444800  1
  C  C73  1  0.33775300  0.83727100  0.18823200  1
  C  C74  1  0.66224700  0.83727100  0.81176900  1
  C  C75  1  0.83775300  0.33727100  0.18823200  1
  C  C76  1  0.16224700  0.33727100  0.81176900  1
  C  C77  1  0.40114900  0.84249500  0.24356400  1
  C  C78  1  0.59885100  0.84249500  0.75643600  1
  C  C79  1  0.90114900  0.34249500  0.24356400  1
  C  C80  1  0.09885200  0.34249500  0.75643600  1
  C  C81  1  0.43175900  0.87541500  0.30485200  1
  C  C82  1  0.56824100  0.87541500  0.69514800  1
  C  C83  1  0.93175900  0.37541500  0.30485200  1
  C  C84  1  0.06824100  0.37541500  0.69514800  1
  C  C85  1  0.39963800  0.90330100  0.31268800  1
  C  C86  1  0.60036200  0.90330100  0.68731200  1
  C  C87  1  0.89963800  0.40330100  0.31268800  1
  C  C88  1  0.10036200  0.40330100  0.68731200  1
  C  C89  1  0.87131000  0.74175700  0.92987900  1
  C  C90  1  0.12869000  0.74175700  0.07012200  1
  C  C91  1  0.37131000  0.24175700  0.92987900  1
  C  C92  1  0.62869000  0.24175700  0.07012200  1
  C  C93  1  0.88860900  0.74148000  0.00862700  1
  C  C94  1  0.11139200  0.74148000  0.99137300  1
  C  C95  1  0.38860900  0.24148000  0.00862700  1
  C  C96  1  0.61139200  0.24148000  0.99137300  1
  C  C97  1  0.95176800  0.74068600  0.08623400  1
  C  C98  1  0.04823200  0.74068600  0.91376600  1
  C  C99  1  0.45176800  0.24068600  0.08623400  1
  C  C100  1  0.54823200  0.24068600  0.91376600  1
  C  C101  1  0.99655300  0.74215600  0.08252900  1
  C  C102  1  0.00344700  0.74215600  0.91747200  1
  C  C103  1  0.49655300  0.24215600  0.08252900  1
  C  C104  1  0.50344700  0.24215600  0.91747200  1
  C  C105  1  0.97804400  0.74247700  0.00235800  1
  C  C106  1  0.02195600  0.74247700  0.99764200  1
  C  C107  1  0.47804400  0.24247700  0.00235800  1
  C  C108  1  0.52195600  0.24247700  0.99764200  1
  C  C109  1  0.91553000  0.74223300  0.92664600  1
  C  C110  1  0.08447100  0.74223300  0.07335400  1
  C  C111  1  0.41553000  0.24223300  0.92664600  1
  C  C112  1  0.58447100  0.24223300  0.07335400  1
  C  C113  1  0.05994400  0.74294700  0.15802900  1
  C  C114  1  0.94005700  0.74294700  0.84197200  1
  C  C115  1  0.55994400  0.24294700  0.15802900  1
  C  C116  1  0.44005700  0.24294700  0.84197200  1
  C  C117  1  0.10325100  0.74290700  0.15305800  1
  C  C118  1  0.89674900  0.74290700  0.84694200  1
  C  C119  1  0.60325100  0.24290700  0.15305800  1
  C  C120  1  0.39674900  0.24290700  0.84694200  1
  C  C121  1  0.21263800  0.67644200  0.76846500  1
  C  C122  1  0.78736300  0.67644200  0.23153600  1
  C  C123  1  0.71263800  0.17644200  0.76846500  1
  C  C124  1  0.28736300  0.17644200  0.23153600  1
  C  C125  1  0.21969400  0.67475700  0.71162400  1
  C  C126  1  0.78030600  0.67475700  0.28837600  1
  C  C127  1  0.71969400  0.17475700  0.71162400  1
  C  C128  1  0.28030600  0.17475700  0.28837600  1
  C  C129  1  0.18380500  0.64660200  0.64181900  1
  C  C130  1  0.81619500  0.64660200  0.35818100  1
  C  C131  1  0.68380500  0.14660200  0.64181900  1
  C  C132  1  0.31619500  0.14660200  0.35818100  1
  C  C133  1  0.14237800  0.61882900  0.63038200  1
  C  C134  1  0.85762200  0.61882900  0.36961800  1
  C  C135  1  0.64237800  0.11882900  0.63038200  1
  C  C136  1  0.35762200  0.11882900  0.36961800  1
  C  C137  1  0.13653900  0.61868500  0.68934100  1
  C  C138  1  0.86346100  0.61868500  0.31065900  1
  C  C139  1  0.63653900  0.11868500  0.68934100  1
  C  C140  1  0.36346100  0.11868500  0.31065900  1
  C  C141  1  0.16984300  0.64932900  0.75668400  1
  C  C142  1  0.83015700  0.64932900  0.24331600  1
  C  C143  1  0.66984300  0.14932900  0.75668400  1
  C  C144  1  0.33015700  0.14932900  0.24331600  1
  C  C145  1  0.16063200  0.65247500  0.81198400  1
  C  C146  1  0.83936800  0.65247500  0.18801600  1
  C  C147  1  0.66063200  0.15247500  0.81198400  1
  C  C148  1  0.33936800  0.15247500  0.18801600  1
  C  C149  1  0.11886400  0.62426100  0.80043300  1
  C  C150  1  0.88113600  0.62426100  0.19956700  1
  C  C151  1  0.61886400  0.12426100  0.80043300  1
  C  C152  1  0.38113600  0.12426100  0.19956700  1
  C  C153  1  0.08794300  0.59308800  0.73566500  1
  C  C154  1  0.91205800  0.59308800  0.26433600  1
  C  C155  1  0.58794300  0.09308800  0.73566500  1
  C  C156  1  0.41205800  0.09308800  0.26433600  1
  C  C157  1  0.09651100  0.58955800  0.68055100  1
  C  C158  1  0.90349000  0.58955800  0.31945000  1
  C  C159  1  0.59651100  0.08955800  0.68055100  1
  C  C160  1  0.40349000  0.08955800  0.31945000  1
  C  C161  1  0.93843800  0.55487600  0.38599800  1
  C  C162  1  0.06156300  0.55487600  0.61400200  1
  C  C163  1  0.43843800  0.05487600  0.38599800  1
  C  C164  1  0.56156300  0.05487600  0.61400200  1
  C  C165  1  0.43582300  0.93699700  0.38106300  1
  C  C166  1  0.56417700  0.93699700  0.61893800  1
  C  C167  1  0.93582300  0.43699700  0.38106300  1
  C  C168  1  0.06417700  0.43699700  0.61893800  1
  C  C169  1  0.97224800  0.73521500  0.17298000  1
  C  C170  1  0.02775200  0.73521500  0.82702000  1
  C  C171  1  0.47224800  0.23521500  0.17298000  1
  C  C172  1  0.52775200  0.23521500  0.82702000  1
  C  C173  1  0.10383600  0.62634600  0.85394800  1
  C  C174  1  0.89616400  0.62634600  0.14605200  1
  C  C175  1  0.60383600  0.12634600  0.85394800  1
  C  C176  1  0.39616400  0.12634600  0.14605200  1
  C  C177  1  0.55826100  0.62371800  0.01953900  1
  C  C178  1  0.44173900  0.62371800  0.98046200  1
  C  C179  1  0.05826100  0.12371800  0.01953900  1
  C  C180  1  0.94173900  0.12371800  0.98046200  1
  C  C181  1  0.13976500  0.87971700  0.09280600  1
  C  C182  1  0.86023600  0.87971700  0.90719500  1
  C  C183  1  0.63976500  0.37971700  0.09280600  1
  C  C184  1  0.36023600  0.37971700  0.90719500  1
  O  O1  1  0.31880700  0.76244000  0.14316600  1
  O  O2  1  0.68119400  0.76244000  0.85683400  1
  O  O3  1  0.81880700  0.26244000  0.14316600  1
  O  O4  1  0.18119400  0.26244000  0.85683400  1
  O  O5  1  0.26454700  0.81670300  0.03830800  1
  O  O6  1  0.73545400  0.81670300  0.96169200  1
  O  O7  1  0.76454700  0.31670300  0.03830800  1
  O  O8  1  0.23545400  0.31670300  0.96169200  1
  O  O9  1  0.34092000  0.71699100  0.05196300  1
  O  O10  1  0.65908000  0.71699100  0.94803800  1
  O  O11  1  0.84092000  0.21699100  0.05196300  1
  O  O12  1  0.15908000  0.21699100  0.94803800  1
  O  O13  1  0.29324700  0.77526400  0.95601900  1
  O  O14  1  0.70675400  0.77526400  0.04398100  1
  O  O15  1  0.79324700  0.27526400  0.95601900  1
  O  O16  1  0.20675400  0.27526400  0.04398100  1
  O  O17  1  0.23055100  0.67304100  0.96202600  1
  O  O18  1  0.76944900  0.67304100  0.03797400  1
  O  O19  1  0.73055100  0.17304100  0.96202600  1
  O  O20  1  0.26944900  0.17304100  0.03797400  1
  O  O21  1  0.18097200  0.72743000  0.85741200  1
  O  O22  1  0.81902900  0.72743000  0.14258800  1
  O  O23  1  0.68097200  0.22743000  0.85741200  1
  O  O24  1  0.31902900  0.22743000  0.14258800  1
  O  O25  1  0.20918300  0.71594300  0.04802100  1
  O  O26  1  0.79081700  0.71594300  0.95197900  1
  O  O27  1  0.70918300  0.21594300  0.04802100  1
  O  O28  1  0.29081700  0.21594300  0.95197900  1
  O  O29  1  0.15815800  0.77132600  0.94501400  1
  O  O30  1  0.84184200  0.77132600  0.05498600  1
  O  O31  1  0.65815800  0.27132600  0.94501400  1
  O  O32  1  0.34184200  0.27132600  0.05498600  1
  O  O33  1  0.99652600  0.54767600  0.42478500  1
  O  O34  1  0.00347400  0.54767600  0.57521600  1
  O  O35  1  0.49652600  0.04767600  0.42478500  1
  O  O36  1  0.50347400  0.04767600  0.57521600  1
  O  O37  1  0.90974600  0.53046300  0.40015400  1
  O  O38  1  0.09025500  0.53046300  0.59984700  1
  O  O39  1  0.40974600  0.03046300  0.40015400  1
  O  O40  1  0.59025500  0.03046300  0.59984700  1
  O  O41  1  0.47800000  0.95914400  0.39002000  1
  O  O42  1  0.52200000  0.95914400  0.60998100  1
  O  O43  1  0.97800000  0.45914400  0.39002000  1
  O  O44  1  0.02200000  0.45914400  0.60998100  1
  O  O45  1  0.42773300  0.94186400  0.43397100  1
  O  O46  1  0.57226700  0.94186400  0.56602900  1
  O  O47  1  0.92773300  0.44186400  0.43397100  1
  O  O48  1  0.07226700  0.44186400  0.56602900  1
