# generated using pymatgen
data_ZnH4C12I2N3O4
_symmetry_space_group_name_H-M   'P 1'
_cell_length_a   8.53843600
_cell_length_b   15.02282200
_cell_length_c   9.16364200
_cell_angle_alpha   90.96338100
_cell_angle_beta   90.08113700
_cell_angle_gamma   90.01752100
_symmetry_Int_Tables_number   1
_chemical_formula_structural   ZnH4C12I2N3O4
_chemical_formula_sum   'Zn2 H8 C24 I4 N6 O8'
_cell_volume   1175.26583136
_cell_formula_units_Z   2
loop_
 _symmetry_equiv_pos_site_id
 _symmetry_equiv_pos_as_xyz
  1  'x, y, z'
loop_
 _atom_site_type_symbol
 _atom_site_label
 _atom_site_symmetry_multiplicity
 _atom_site_fract_x
 _atom_site_fract_y
 _atom_site_fract_z
 _atom_site_occupancy
  Zn  Zn1  1  0.49870600  0.50380200  0.83754200  1
  Zn  Zn2  1  0.50129500  0.49619800  0.16245800  1
  H  H1  1  0.00358900  0.56274700  0.05564000  1
  H  H2  1  0.99641200  0.43725300  0.94436000  1
  H  H3  1  0.25049000  0.80233600  0.98721200  1
  H  H4  1  0.74951100  0.19766400  0.01278800  1
  H  H5  1  0.24457700  0.49282300  0.39731700  1
  H  H6  1  0.75542400  0.50717700  0.60268300  1
  H  H7  1  0.62580200  0.62469100  0.39649400  1
  H  H8  1  0.37419800  0.37530900  0.60350600  1
  C  C1  1  0.14112300  0.67668700  0.01558500  1
  C  C2  1  0.85887800  0.32331300  0.98441500  1
  C  C3  1  0.14022200  0.76751300  0.99568800  1
  C  C4  1  0.85977800  0.23248700  0.00431300  1
  C  C5  1  0.99858100  0.81316700  0.99209600  1
  C  C6  1  0.00142000  0.18683300  0.00790400  1
  C  C7  1  0.85859300  0.76551800  0.99213200  1
  C  C8  1  0.14140800  0.23448200  0.00786800  1
  C  C9  1  0.86213500  0.67482800  0.01200100  1
  C  C10  1  0.13786500  0.32517300  0.98800000  1
  C  C11  1  0.00227900  0.63259500  0.03326700  1
  C  C12  1  0.99772100  0.36740500  0.96673300  1
  C  C13  1  0.00114100  0.08909000  0.00771700  1
  C  C14  1  0.99885900  0.91091000  0.99228400  1
  C  C15  1  0.72066100  0.62033600  0.00708900  1
  C  C16  1  0.27934000  0.37966500  0.99291100  1
  C  C17  1  0.71592800  0.37680800  0.98936400  1
  C  C18  1  0.28407200  0.62319200  0.01063700  1
  C  C19  1  0.42806400  0.56847000  0.54325300  1
  C  C20  1  0.57193600  0.43153000  0.45674700  1
  C  C21  1  0.36355600  0.49621000  0.44579300  1
  C  C22  1  0.63644500  0.50379000  0.55420700  1
  C  C23  1  0.56760800  0.56613800  0.44456800  1
  C  C24  1  0.43239300  0.43386200  0.55543200  1
  I  I1  1  0.63743200  0.82600800  0.96670900  1
  I  I2  1  0.36256800  0.17399200  0.03329100  1
  I  I3  1  0.30760600  0.68589300  0.61336500  1
  I  I4  1  0.69239500  0.31410800  0.38663500  1
  N  N1  1  0.86372500  0.95644400  0.00286300  1
  N  N2  1  0.13627600  0.04355600  0.99713800  1
  N  N3  1  0.86466000  0.04441700  0.00966200  1
  N  N4  1  0.13534100  0.95558400  0.99033900  1
  N  N5  1  0.50349200  0.49355900  0.35403700  1
  N  N6  1  0.49650800  0.50644100  0.64596300  1
  O  O1  1  0.67187300  0.58632600  0.12964600  1
  O  O2  1  0.32812700  0.41367400  0.87035400  1
  O  O3  1  0.66431800  0.59655300  0.87877200  1
  O  O4  1  0.33568200  0.40344700  0.12122800  1
  O  O5  1  0.66656300  0.41154600  0.86721500  1
  O  O6  1  0.33343800  0.58845400  0.13278600  1
  O  O7  1  0.66244600  0.40155300  0.11814700  1
  O  O8  1  0.33755400  0.59844700  0.88185300  1
