# generated using pymatgen
data_VH10C14Br2O5
_symmetry_space_group_name_H-M   'P 1'
_cell_length_a   6.81800000
_cell_length_b   20.64470000
_cell_length_c   24.51120000
_cell_angle_alpha   90.00000000
_cell_angle_beta   90.00000000
_cell_angle_gamma   90.00000000
_symmetry_Int_Tables_number   1
_chemical_formula_structural   VH10C14Br2O5
_chemical_formula_sum   'V4 H40 C56 Br8 O20'
_cell_volume   3450.08779502
_cell_formula_units_Z   4
loop_
 _symmetry_equiv_pos_site_id
 _symmetry_equiv_pos_as_xyz
  1  'x, y, z'
loop_
 _atom_site_type_symbol
 _atom_site_label
 _atom_site_symmetry_multiplicity
 _atom_site_fract_x
 _atom_site_fract_y
 _atom_site_fract_z
 _atom_site_occupancy
  V  V1  1  0.93897600  0.76040300  0.49999400  1
  V  V2  1  0.56102400  0.23959700  0.99999400  1
  V  V3  1  0.43897500  0.73959700  0.50000600  1
  V  V4  1  0.06102400  0.26040300  0.00000600  1
  H  H1  1  0.91781700  0.53361700  0.83303100  1
  H  H2  1  0.58218300  0.46638300  0.33303100  1
  H  H3  1  0.41781700  0.96638300  0.16696900  1
  H  H4  1  0.08218300  0.03361700  0.66696900  1
  H  H5  1  0.90461100  0.60452700  0.76280900  1
  H  H6  1  0.59538900  0.39547400  0.26280900  1
  H  H7  1  0.40461100  0.89547300  0.23719100  1
  H  H8  1  0.09538900  0.10452700  0.73719100  1
  H  H9  1  0.43193500  0.53353200  0.71634000  1
  H  H10  1  0.06806500  0.46646800  0.21634000  1
  H  H11  1  0.93193500  0.96646800  0.28366000  1
  H  H12  1  0.56806500  0.03353200  0.78366000  1
  H  H13  1  0.54341100  0.59569200  0.75793900  1
  H  H14  1  0.95658900  0.40430800  0.25793900  1
  H  H15  1  0.04341100  0.90430800  0.24206100  1
  H  H16  1  0.45658900  0.09569200  0.74206100  1
  H  H17  1  0.43793000  0.46525200  0.78839400  1
  H  H18  1  0.06207000  0.53474800  0.28839400  1
  H  H19  1  0.93793000  0.03474800  0.21160600  1
  H  H20  1  0.56207000  0.96525200  0.71160600  1
  H  H21  1  0.90454000  0.46601600  0.66589000  1
  H  H22  1  0.59546000  0.53398400  0.16589000  1
  H  H23  1  0.40454000  0.03398400  0.33411000  1
  H  H24  1  0.09546000  0.96601600  0.83411000  1
  H  H25  1  0.90360900  0.39482700  0.73598400  1
  H  H26  1  0.59639100  0.60517300  0.23598400  1
  H  H27  1  0.40360900  0.10517300  0.26401600  1
  H  H28  1  0.09639100  0.89482700  0.76401600  1
  H  H29  1  0.05717400  0.55091800  0.72288300  1
  H  H30  1  0.44282600  0.44908200  0.22288300  1
  H  H31  1  0.55717400  0.94908200  0.27711700  1
  H  H32  1  0.94282600  0.05091800  0.77711700  1
  H  H33  1  0.06420700  0.47898400  0.79232700  1
  H  H34  1  0.43579300  0.52101600  0.29232700  1
  H  H35  1  0.56420700  0.02101600  0.20767300  1
  H  H36  1  0.93579300  0.97898400  0.70767300  1
  H  H37  1  0.63917100  0.39043700  0.73324100  1
  H  H38  1  0.86082900  0.60956300  0.23324100  1
  H  H39  1  0.13917100  0.10956300  0.26675900  1
  H  H40  1  0.36082900  0.89043700  0.76675900  1
  C  C1  1  0.22112300  0.82854700  0.57739600  1
  C  C2  1  0.27887700  0.17145300  0.07739600  1
  C  C3  1  0.72112300  0.67145300  0.42260400  1
  C  C4  1  0.77887700  0.32854700  0.92260400  1
  C  C5  1  0.22115400  0.82850500  0.42257400  1
  C  C6  1  0.27884600  0.17149500  0.92257400  1
  C  C7  1  0.72115400  0.67149500  0.57742600  1
  C  C8  1  0.77884600  0.32850500  0.07742600  1
  C  C9  1  0.91883800  0.55465200  0.74647300  1
  C  C10  1  0.58116200  0.44534800  0.24647300  1
  C  C11  1  0.41883800  0.94534800  0.25352700  1
  C  C12  1  0.08116200  0.05465200  0.75352700  1
  C  C13  1  0.55943700  0.54543800  0.74258800  1
  C  C14  1  0.94056300  0.45456200  0.24258800  1
  C  C15  1  0.05943700  0.95456200  0.25741200  1
  C  C16  1  0.44056300  0.04543800  0.75741200  1
  C  C17  1  0.56481200  0.49872300  0.79105300  1
  C  C18  1  0.93518800  0.50127700  0.29105300  1
  C  C19  1  0.06481200  0.00127700  0.20894700  1
  C  C20  1  0.43518800  0.99872300  0.70894700  1
  C  C21  1  0.76507100  0.37464300  0.87668300  1
  C  C22  1  0.73492900  0.62535700  0.37668300  1
  C  C23  1  0.26507200  0.12535700  0.12331700  1
  C  C24  1  0.23492900  0.87464300  0.62331700  1
  C  C25  1  0.74643300  0.54048000  0.70905400  1
  C  C26  1  0.75356700  0.45952000  0.20905400  1
  C  C27  1  0.24643300  0.95952000  0.29094600  1
  C  C28  1  0.25356700  0.04048000  0.79094600  1
  C  C29  1  0.92479600  0.50658900  0.79397600  1
  C  C30  1  0.57520400  0.49341100  0.29397600  1
  C  C31  1  0.42479600  0.99341100  0.20602400  1
  C  C32  1  0.07520400  0.00658900  0.70602400  1
  C  C33  1  0.75351100  0.45956900  0.79098100  1
  C  C34  1  0.74648900  0.54043100  0.29098100  1
  C  C35  1  0.25351100  0.04043100  0.20901900  1
  C  C36  1  0.24648900  0.95956900  0.70901900  1
  C  C37  1  0.76635300  0.42362800  0.73698200  1
  C  C38  1  0.73364700  0.57637200  0.23698200  1
  C  C39  1  0.26635300  0.07637200  0.26301800  1
  C  C40  1  0.23364700  0.92362800  0.76301800  1
  C  C41  1  0.76557000  0.47109900  0.68901500  1
  C  C42  1  0.73443000  0.52890100  0.18901500  1
  C  C43  1  0.26557000  0.02890100  0.31098500  1
  C  C44  1  0.23443000  0.97109900  0.81098500  1
  C  C45  1  0.75839000  0.41285700  0.83823900  1
  C  C46  1  0.74161000  0.58714300  0.33823900  1
  C  C47  1  0.25839000  0.08714300  0.16176100  1
  C  C48  1  0.24161000  0.91285700  0.66176100  1
  C  C49  1  0.74161300  0.58719700  0.66180000  1
  C  C50  1  0.75838700  0.41280300  0.16180000  1
  C  C51  1  0.24161300  0.91280400  0.33820000  1
  C  C52  1  0.25838700  0.08719600  0.83820000  1
  C  C53  1  0.73497200  0.62540800  0.62335400  1
  C  C54  1  0.76502800  0.37459200  0.12335400  1
  C  C55  1  0.23497200  0.87459200  0.37664600  1
  C  C56  1  0.26502800  0.12540800  0.87664600  1
  Br  Br1  1  0.54754200  0.54754200  0.85817400  1
  Br  Br2  1  0.95245800  0.45245800  0.35817400  1
  Br  Br3  1  0.04754200  0.95245800  0.14182600  1
  Br  Br4  1  0.45245800  0.04754200  0.64182600  1
  Br  Br5  1  0.54786500  0.45110600  0.64138200  1
  Br  Br6  1  0.95213500  0.54889400  0.14138200  1
  Br  Br7  1  0.04786500  0.04889400  0.35861800  1
  Br  Br8  1  0.45213500  0.95110600  0.85861800  1
  O  O1  1  0.38957000  0.80217900  0.44060100  1
  O  O2  1  0.11043000  0.19782100  0.94060100  1
  O  O3  1  0.88957000  0.69782100  0.55939900  1
  O  O4  1  0.61043000  0.30217900  0.05939900  1
  O  O5  1  0.04225600  0.82100700  0.55559700  1
  O  O6  1  0.45774400  0.17899300  0.05559700  1
  O  O7  1  0.54225600  0.67899300  0.44440400  1
  O  O8  1  0.95774400  0.32100700  0.94440400  1
  O  O9  1  0.04228300  0.82097000  0.44436700  1
  O  O10  1  0.45771700  0.17903000  0.94436700  1
  O  O11  1  0.54228300  0.67903000  0.55563200  1
  O  O12  1  0.95771700  0.32097000  0.05563200  1
  O  O13  1  0.88955200  0.69778600  0.44061700  1
  O  O14  1  0.61044900  0.30221400  0.94061700  1
  O  O15  1  0.38955100  0.80221400  0.55938300  1
  O  O16  1  0.11044900  0.19778600  0.05938300  1
  O  O17  1  0.20938300  0.71113700  0.50001400  1
  O  O18  1  0.29061700  0.28886300  0.00001400  1
  O  O19  1  0.70938300  0.78886300  0.49998600  1
  O  O20  1  0.79061700  0.21113700  0.99998600  1
