# generated using pymatgen
data_FeH12C19O8
_symmetry_space_group_name_H-M   'P 1'
_cell_length_a   16.30180400
_cell_length_b   8.57437500
_cell_length_c   11.20682600
_cell_angle_alpha   103.91612500
_cell_angle_beta   97.24838500
_cell_angle_gamma   93.53636400
_symmetry_Int_Tables_number   1
_chemical_formula_structural   FeH12C19O8
_chemical_formula_sum   'Fe2 H24 C38 O16'
_cell_volume   1501.43221751
_cell_formula_units_Z   2
loop_
 _symmetry_equiv_pos_site_id
 _symmetry_equiv_pos_as_xyz
  1  'x, y, z'
loop_
 _atom_site_type_symbol
 _atom_site_label
 _atom_site_symmetry_multiplicity
 _atom_site_fract_x
 _atom_site_fract_y
 _atom_site_fract_z
 _atom_site_occupancy
  Fe  Fe1  1  0.49176600  0.00612100  0.77661800  1
  Fe  Fe2  1  0.49207100  0.02202400  0.22346300  1
  H  H1  1  0.07224200  0.16869500  0.82648300  1
  H  H2  1  0.81706000  0.03182800  0.87261200  1
  H  H3  1  0.51889500  0.50077700  0.70536900  1
  H  H4  1  0.46326000  0.52600300  0.29332900  1
  H  H5  1  0.15255400  0.23219700  0.69076700  1
  H  H6  1  0.25401700  0.16637400  0.68354500  1
  H  H7  1  0.26248800  0.45581000  0.89669700  1
  H  H8  1  0.24826600  0.44794900  0.62054900  1
  H  H9  1  0.28729000  0.62247400  0.75714700  1
  H  H10  1  0.19930300  0.79626800  0.11227100  1
  H  H11  1  0.09464300  0.82883700  0.09105200  1
  H  H12  1  0.17145300  0.12675600  0.26540000  1
  H  H13  1  0.15915500  0.79769000  0.32577300  1
  H  H14  1  0.16992200  0.00267900  0.43679100  1
  H  H15  1  0.81801700  0.80687400  0.33226400  1
  H  H16  1  0.71539700  0.74907100  0.26453700  1
  H  H17  1  0.73444100  0.10647300  0.34368400  1
  H  H18  1  0.73734400  0.87830400  0.51566800  1
  H  H19  1  0.71412900  0.09491300  0.55062900  1
  H  H20  1  0.92803800  0.95933200  0.32418300  1
  H  H21  1  0.99403500  0.95089900  0.21156400  1
  H  H22  1  0.90545300  0.63283800  0.13715200  1
  H  H23  1  0.02104000  0.75768800  0.38368800  1
  H  H24  1  0.99098900  0.54282100  0.29409300  1
  C  C1  1  0.20368400  0.15721100  0.85106800  1
  C  C2  1  0.12468700  0.13001200  0.87730700  1
  C  C3  1  0.11046200  0.04706700  0.96425000  1
  C  C4  1  0.17647200  0.99676700  0.03236200  1
  C  C5  1  0.25844700  0.03704000  0.01537500  1
  C  C6  1  0.27079100  0.10802600  0.91773800  1
  C  C7  1  0.02585000  0.01896800  0.98475300  1
  C  C8  1  0.95550400  0.99571500  0.00430900  1
  C  C9  1  0.80579500  0.99396700  0.95483400  1
  C  C10  1  0.72566500  0.97382900  0.98104300  1
  C  C11  1  0.71358500  0.92467200  0.08784500  1
  C  C12  1  0.78066900  0.89396600  0.16593400  1
  C  C13  1  0.86121500  0.91840500  0.13977200  1
  C  C14  1  0.87304100  0.96818300  0.03347000  1
  C  C15  1  0.48426900  0.24465400  0.64783400  1
  C  C16  1  0.35185100  0.11196500  0.87352000  1
  C  C17  1  0.65533000  0.00253600  0.89379700  1
  C  C18  1  0.51702900  0.73739400  0.59634500  1
  C  C19  1  0.46242200  0.28860100  0.40310800  1
  C  C20  1  0.33155300  0.01369200  0.10239700  1
  C  C21  1  0.63152000  0.92129400  0.12733000  1
  C  C22  1  0.49743100  0.78222900  0.35173800  1
  C  C23  1  0.48323200  0.62219500  0.37521200  1
  C  C24  1  0.49633200  0.59632300  0.48951900  1
  C  C25  1  0.48313500  0.43015300  0.50964900  1
  C  C26  1  0.49783300  0.40452400  0.62389400  1
  C  C27  1  0.21392600  0.23400000  0.74663300  1
  C  C28  1  0.24859700  0.40566700  0.79710300  1
  C  C29  1  0.26220300  0.49760300  0.72019100  1
  C  C30  1  0.15746900  0.89400300  0.11848500  1
  C  C31  1  0.16428700  0.99636300  0.24806200  1
  C  C32  1  0.16403300  0.92801900  0.34260400  1
  C  C33  1  0.76446900  0.85039100  0.28398000  1
  C  C34  1  0.74046000  0.99467100  0.37163300  1
  C  C35  1  0.73007000  0.98887300  0.48630300  1
  C  C36  1  0.93469800  0.89648300  0.22768200  1
  C  C37  1  0.94091000  0.72062600  0.21572000  1
  C  C38  1  0.98760600  0.67085700  0.30280100  1
  O  O1  1  0.52977900  0.21316500  0.74331900  1
  O  O2  1  0.38383000  0.24212700  0.84796200  1
  O  O3  1  0.42031900  0.14422800  0.58683600  1
  O  O4  1  0.38968300  0.97934100  0.85124400  1
  O  O5  1  0.57812500  0.96246500  0.90580400  1
  O  O6  1  0.67006400  0.06133700  0.79996400  1
  O  O7  1  0.47178800  0.85976200  0.60459800  1
  O  O8  1  0.57860900  0.74070900  0.68462200  1
  O  O9  1  0.50740200  0.16606100  0.39630200  1
  O  O10  1  0.40274500  0.28657700  0.31240500  1
  O  O11  1  0.40727100  0.06374800  0.09129500  1
  O  O12  1  0.32171800  0.96205200  0.20096500  1
  O  O13  1  0.55891200  0.88527500  0.41736600  1
  O  O14  1  0.59587400  0.05571700  0.15474900  1
  O  O15  1  0.45504800  0.81203900  0.25313800  1
  O  O16  1  0.59396100  0.78602100  0.13686000  1
