# generated using pymatgen
data_ZnH26C43(NO3)2
_symmetry_space_group_name_H-M   'P 1'
_cell_length_a   11.89032000
_cell_length_b   13.08071800
_cell_length_c   27.71762600
_cell_angle_alpha   89.98427900
_cell_angle_beta   85.87455400
_cell_angle_gamma   91.19230200
_symmetry_Int_Tables_number   1
_chemical_formula_structural   ZnH26C43(NO3)2
_chemical_formula_sum   'Zn2 H52 C86 N4 O12'
_cell_volume   4298.92317351
_cell_formula_units_Z   2
loop_
 _symmetry_equiv_pos_site_id
 _symmetry_equiv_pos_as_xyz
  1  'x, y, z'
loop_
 _atom_site_type_symbol
 _atom_site_label
 _atom_site_symmetry_multiplicity
 _atom_site_fract_x
 _atom_site_fract_y
 _atom_site_fract_z
 _atom_site_occupancy
  Zn  Zn1  1  0.36399000  0.51146100  0.50430300  1
  Zn  Zn2  1  0.61906800  0.49412900  0.49779200  1
  H  H1  1  0.40660800  0.64954100  0.74508700  1
  H  H2  1  0.32608500  0.41086900  0.26646800  1
  H  H3  1  0.59578200  0.73236200  0.87933000  1
  H  H4  1  0.42094100  0.24735100  0.12124900  1
  H  H5  1  0.63539100  0.57738700  0.24895400  1
  H  H6  1  0.55136100  0.35506800  0.74238300  1
  H  H7  1  0.51253000  0.75007300  0.12063300  1
  H  H8  1  0.34649300  0.27288300  0.88420100  1
  H  H9  1  0.51834200  0.75370200  0.03542700  1
  H  H10  1  0.34758200  0.26706400  0.96920700  1
  H  H11  1  0.58741800  0.73652300  0.96451800  1
  H  H12  1  0.41259700  0.24748500  0.03654000  1
  H  H13  1  0.63699300  0.16634900  0.50387900  1
  H  H14  1  0.34611300  0.83921100  0.49794300  1
  H  H15  1  0.27956500  0.18869100  0.49805400  1
  H  H16  1  0.70331100  0.81688800  0.50456000  1
  H  H17  1  0.72066100  0.00249800  0.50532700  1
  H  H18  1  0.26229800  0.00309700  0.49696100  1
  H  H19  1  0.17356800  0.40427000  0.45885500  1
  H  H20  1  0.80938000  0.60112200  0.54324300  1
  H  H21  1  0.19870300  0.64208900  0.55973600  1
  H  H22  1  0.78438200  0.36370700  0.44212300  1
  H  H23  1  0.99008900  0.34785600  0.43499000  1
  H  H24  1  0.99299900  0.65791100  0.56689800  1
  H  H25  1  0.32803100  0.70271200  0.66419600  1
  H  H26  1  0.42238600  0.68370700  0.61190500  1
  H  H27  1  0.36287300  0.85006800  0.70829100  1
  H  H28  1  0.49037500  0.98627700  0.73341200  1
  H  H29  1  0.69178400  0.98522900  0.70621200  1
  H  H30  1  0.76574100  0.84708700  0.65360600  1
  H  H31  1  0.63895800  0.70989600  0.62840500  1
  H  H32  1  0.24214100  0.40392100  0.36315900  1
  H  H33  1  0.35269400  0.35041700  0.39602000  1
  H  H34  1  0.14222100  0.27961300  0.32327300  1
  H  H35  1  0.13050700  0.11400300  0.28258200  1
  H  H36  1  0.29851500  0.00793000  0.27062100  1
  H  H37  1  0.47880200  0.06778200  0.29986100  1
  H  H38  1  0.49147800  0.23317900  0.34103900  1
  H  H39  1  0.73888000  0.61605500  0.30964600  1
  H  H40  1  0.71459400  0.57076400  0.36870200  1
  H  H41  1  0.80902800  0.75255000  0.37015900  1
  H  H42  1  0.76945800  0.93153100  0.38971600  1
  H  H43  1  0.57846800  0.99688800  0.38413100  1
  H  H44  1  0.42689100  0.88239700  0.35927900  1
  H  H45  1  0.46346200  0.70599500  0.33924000  1
  H  H46  1  0.61770100  0.28300700  0.67002000  1
  H  H47  1  0.59565000  0.33253300  0.61227900  1
  H  H48  1  0.56437200  0.12813200  0.61955900  1
  H  H49  1  0.41087100  0.00180600  0.61364300  1
  H  H50  1  0.21513800  0.04813600  0.63673100  1
  H  H51  1  0.17318300  0.22170900  0.66555500  1
  H  H52  1  0.32214600  0.34809300  0.67154400  1
  C  C1  1  0.51219600  0.70263100  0.50051300  1
  C  C2  1  0.47085500  0.30296800  0.50165900  1
  C  C3  1  0.48936300  0.50270800  0.59562000  1
  C  C4  1  0.49377900  0.50176100  0.40616000  1
  C  C5  1  0.52138200  0.58234800  0.82492000  1
  C  C6  1  0.45724900  0.40823200  0.17666600  1
  C  C7  1  0.42772000  0.42319900  0.82672200  1
  C  C8  1  0.48304200  0.58600500  0.17667600  1
  C  C9  1  0.52147000  0.42034900  0.72351400  1
  C  C10  1  0.57027000  0.54080300  0.27254100  1
  C  C11  1  0.52232200  0.41850000  0.67364000  1
  C  C12  1  0.57661800  0.54507600  0.32213300  1
  C  C13  1  0.44874300  0.58842900  0.67501400  1
  C  C14  1  0.40784300  0.43932600  0.33154600  1
  C  C15  1  0.44178400  0.58554000  0.72497100  1
  C  C16  1  0.39782500  0.44606900  0.28221600  1
  C  C17  1  0.47988700  0.50289200  0.74952900  1
  C  C18  1  0.47960600  0.49491200  0.25240900  1
  C  C19  1  0.47048700  0.50234000  0.90117000  1
  C  C20  1  0.46692900  0.49906900  0.10154600  1
  C  C21  1  0.51581900  0.58439100  0.87495700  1
  C  C22  1  0.45098800  0.40906900  0.12697800  1
  C  C23  1  0.55774300  0.66744100  0.89885600  1
  C  C24  1  0.43189100  0.31964300  0.10246000  1
  C  C25  1  0.42762300  0.42068300  0.87666200  1
  C  C26  1  0.48414900  0.58787800  0.12672300  1
  C  C27  1  0.48768900  0.50368500  0.64871600  1
  C  C28  1  0.49395300  0.49451000  0.35271900  1
  C  C29  1  0.49263100  0.58998800  0.02614900  1
  C  C30  1  0.43138300  0.41492200  0.97693500  1
  C  C31  1  0.44012900  0.41137300  0.02695900  1
  C  C32  1  0.50350000  0.58816100  0.97559700  1
  C  C33  1  0.46634900  0.50017300  0.05144000  1
  C  C34  1  0.46834100  0.50184400  0.95135500  1
  C  C35  1  0.50688800  0.67968300  0.05221700  1
  C  C36  1  0.38607000  0.33376500  0.95169000  1
  C  C37  1  0.50119500  0.67860500  0.10188800  1
  C  C38  1  0.38295700  0.33740800  0.90226200  1
  C  C39  1  0.55038000  0.67011100  0.94852200  1
  C  C40  1  0.42493100  0.32075800  0.05319500  1
  C  C41  1  0.45965800  0.19096800  0.50111400  1
  C  C42  1  0.52337300  0.81462700  0.50099700  1
  C  C43  1  0.63822400  0.96678200  0.50368100  1
  C  C44  1  0.34476300  0.03881400  0.49850700  1
  C  C45  1  0.62817700  0.86155600  0.50317800  1
  C  C46  1  0.35476700  0.14403700  0.49920200  1
  C  C47  1  0.42881800  0.87427200  0.49960200  1
  C  C48  1  0.55426000  0.13131100  0.50228200  1
  C  C49  1  0.43919500  0.97963300  0.49998800  1
  C  C50  1  0.54385600  0.02595400  0.50195500  1
  C  C51  1  0.95158500  0.40416600  0.45909000  1
  C  C52  1  0.03148400  0.60158900  0.54280200  1
  C  C53  1  0.83593200  0.41311200  0.46315100  1
  C  C54  1  0.14714500  0.59267600  0.53871200  1
  C  C55  1  0.84998900  0.54540400  0.51945000  1
  C  C56  1  0.13304000  0.46022300  0.48251300  1
  C  C57  1  0.96593900  0.53833700  0.51609700  1
  C  C58  1  0.01710700  0.46739200  0.48581700  1
  C  C59  1  0.41652700  0.68619500  0.65182700  1
  C  C60  1  0.49272900  0.77067700  0.66676900  1
  C  C61  1  0.45121900  0.84880200  0.69604200  1
  C  C62  1  0.52287600  0.92548000  0.71033200  1
  C  C63  1  0.63578700  0.92491700  0.69509100  1
  C  C64  1  0.67721800  0.84748800  0.66561400  1
  C  C65  1  0.60587000  0.77041100  0.65151600  1
  C  C66  1  0.32612600  0.36832700  0.35965300  1
  C  C67  1  0.31815600  0.26790800  0.33438600  1
  C  C68  1  0.21669000  0.23371100  0.31824500  1
  C  C69  1  0.20983500  0.14047300  0.29531700  1
  C  C70  1  0.30398900  0.08098700  0.28861400  1
  C  C71  1  0.40503900  0.11454900  0.30500500  1
  C  C72  1  0.41208400  0.20765800  0.32802000  1
  C  C73  1  0.67231900  0.60861800  0.33960600  1
  C  C74  1  0.64018400  0.71533200  0.35383500  1
  C  C75  1  0.72454400  0.78039700  0.36807000  1
  C  C76  1  0.70262200  0.88117700  0.37886500  1
  C  C77  1  0.59572000  0.91781300  0.37571500  1
  C  C78  1  0.51077900  0.85351600  0.36184400  1
  C  C79  1  0.53242300  0.75271900  0.35070900  1
  C  C80  1  0.55431400  0.32034400  0.64885600  1
  C  C81  1  0.45615100  0.24706500  0.64598000  1
  C  C82  1  0.47851800  0.14928200  0.62975000  1
  C  C83  1  0.39234600  0.07807800  0.62644000  1
  C  C84  1  0.28271600  0.10398000  0.63935000  1
  C  C85  1  0.25932800  0.20127200  0.65551300  1
  C  C86  1  0.34521400  0.27287500  0.65890100  1
  N  N1  1  0.47613900  0.50280600  0.80135500  1
  N  N2  1  0.47215700  0.49641900  0.20101100  1
  N  N3  1  0.19604900  0.52274700  0.50879600  1
  N  N4  1  0.78702100  0.48296400  0.49310300  1
  O  O1  1  0.41054700  0.66133200  0.50317400  1
  O  O2  1  0.57256500  0.34423800  0.49954400  1
  O  O3  1  0.60392200  0.64817000  0.49791700  1
  O  O4  1  0.37907700  0.35741200  0.50365800  1
  O  O5  1  0.39314600  0.50940500  0.57543700  1
  O  O6  1  0.58924200  0.49469700  0.42673800  1
  O  O7  1  0.58702300  0.49654600  0.57057200  1
  O  O8  1  0.39667800  0.51039000  0.43152500  1
  O  O9  1  0.57457600  0.65913600  0.79970800  1
  O  O10  1  0.45171200  0.31858500  0.20051900  1
  O  O11  1  0.49156200  0.67427800  0.20109500  1
  O  O12  1  0.37726400  0.34666700  0.80351200  1
