# generated using pymatgen
data_CuH8(C4O)4
_symmetry_space_group_name_H-M   'P 1'
_cell_length_a   21.99732500
_cell_length_b   30.26049900
_cell_length_c   27.37699700
_cell_angle_alpha   62.32181500
_cell_angle_beta   73.63757800
_cell_angle_gamma   102.60806300
_symmetry_Int_Tables_number   1
_chemical_formula_structural   CuH8(C4O)4
_chemical_formula_sum   'Cu10 H80 C160 O40'
_cell_volume   14117.03845938
_cell_formula_units_Z   10
loop_
 _symmetry_equiv_pos_site_id
 _symmetry_equiv_pos_as_xyz
  1  'x, y, z'
loop_
 _atom_site_type_symbol
 _atom_site_label
 _atom_site_symmetry_multiplicity
 _atom_site_fract_x
 _atom_site_fract_y
 _atom_site_fract_z
 _atom_site_occupancy
  Cu  Cu1  1  0.48430000  0.02305000  0.46921400  1
  Cu  Cu2  1  0.50347500  0.95937700  0.56197500  1
  Cu  Cu3  1  0.03671300  0.21153800  0.55507600  1
  Cu  Cu4  1  0.14240600  0.24077100  0.45711600  1
  Cu  Cu5  1  0.10073200  0.47635500  0.76004600  1
  Cu  Cu6  1  0.17619500  0.45613600  0.82008800  1
  Cu  Cu7  1  0.79764900  0.99379000  0.00001000  1
  Cu  Cu8  1  0.80168600  0.91761800  0.09541400  1
  Cu  Cu9  1  0.16220300  0.71057800  0.09374500  1
  Cu  Cu10  1  0.25480000  0.73147100  0.99330300  1
  H  H1  1  0.03721300  0.04205500  0.60459900  1
  H  H2  1  0.16915800  0.94005700  0.61906500  1
  H  H3  1  0.07744900  0.96949500  0.62175600  1
  H  H4  1  0.21900500  0.13530600  0.59577700  1
  H  H5  1  0.45033700  0.07139000  0.62316100  1
  H  H6  1  0.28274700  0.11881100  0.64390500  1
  H  H7  1  0.39217300  0.12395800  0.64744700  1
  H  H8  1  0.28434400  0.95272700  0.61195900  1
  H  H9  1  0.63701400  0.17687300  0.43862100  1
  H  H10  1  0.84672000  0.26169700  0.43098200  1
  H  H11  1  0.74033900  0.24164800  0.42391600  1
  H  H12  1  0.71889100  0.05686500  0.48590400  1
  H  H13  1  0.00239000  0.09055200  0.47592600  1
  H  H14  1  0.81495400  0.05069200  0.46186400  1
  H  H15  1  0.91332100  0.03205700  0.46935900  1
  H  H16  1  0.93953500  0.23761400  0.44797100  1
  H  H17  1  0.37407100  0.59387400  0.65601700  1
  H  H18  1  0.49513200  0.78119400  0.54728000  1
  H  H19  1  0.46268000  0.68709700  0.59414900  1
  H  H20  1  0.21601300  0.65221000  0.65984300  1
  H  H21  1  0.26105500  0.88693200  0.56299200  1
  H  H22  1  0.19420800  0.72137300  0.62224300  1
  H  H23  1  0.17030500  0.80014100  0.60019800  1
  H  H24  1  0.46734900  0.85806100  0.52577500  1
  H  H25  1  0.67019200  0.05111900  0.08615900  1
  H  H26  1  0.63665600  0.09616700  0.22787200  1
  H  H27  1  0.64232600  0.09075900  0.14410400  1
  H  H28  1  0.67268900  0.91982400  0.23789600  1
  H  H29  1  0.60375400  0.88413700  0.48566400  1
  H  H30  1  0.65442800  0.88114700  0.32847900  1
  H  H31  1  0.63803300  0.84273100  0.43128700  1
  H  H32  1  0.63167700  0.05890500  0.32770300  1
  H  H33  1  0.18152600  0.32135900  0.81091700  1
  H  H34  1  0.16755600  0.21800800  0.72858100  1
  H  H35  1  0.17538600  0.25034200  0.79136500  1
  H  H36  1  0.20945500  0.43234500  0.63097400  1
  H  H37  1  0.24140700  0.38929200  0.43581200  1
  H  H38  1  0.26614000  0.45216300  0.54101600  1
  H  H39  1  0.28225600  0.46639800  0.44358400  1
  H  H40  1  0.17268400  0.23288200  0.63275800  1
  H  H41  1  0.28880700  0.58402800  0.06896800  1
  H  H42  1  0.19327700  0.39880900  0.21755000  1
  H  H43  1  0.26121400  0.48689800  0.12765600  1
  H  H44  1  0.16364100  0.56867000  0.22996400  1
  H  H45  1  0.01062800  0.36154800  0.48412600  1
  H  H46  1  0.09557500  0.51733600  0.32187400  1
  H  H47  1  0.02391800  0.45563800  0.42911100  1
  H  H48  1  0.11338800  0.33820900  0.32375200  1
  H  H49  1  0.90236800  0.34030100  0.92133900  1
  H  H50  1  0.78038000  0.15222500  0.04284500  1
  H  H51  1  0.81315300  0.24696900  0.98871700  1
  H  H52  1  0.05902400  0.28136200  0.93173200  1
  H  H53  1  0.01571200  0.04728000  0.03831400  1
  H  H54  1  0.07864100  0.21249300  0.98084300  1
  H  H55  1  0.10330900  0.13321500  0.00686500  1
  H  H56  1  0.80925900  0.07480500  0.07023700  1
  H  H57  1  0.03808900  0.54682300  0.13798200  1
  H  H58  1  0.00537000  0.43732600  0.06369400  1
  H  H59  1  0.00140100  0.47033900  0.12814200  1
  H  H60  1  0.10699300  0.65893500  0.94765400  1
  H  H61  1  0.10040500  0.60933500  0.76510900  1
  H  H62  1  0.07373700  0.66647200  0.87981100  1
  H  H63  1  0.09431400  0.68083700  0.78182300  1
  H  H64  1  0.03465600  0.45378200  0.96298300  1
  H  H65  1  0.01651200  0.03517700  0.93149000  1
  H  H66  1  0.19676200  0.97927500  0.93133100  1
  H  H67  1  0.12921300  0.03196500  0.91854500  1
  H  H68  1  0.94014300  0.88140400  0.95691000  1
  H  H69  1  0.09937300  0.75069600  0.94075900  1
  H  H70  1  0.98215600  0.84543500  0.91064200  1
  H  H71  1  0.00772600  0.77110000  0.91339600  1
  H  H72  1  0.21270900  0.89737700  0.94811500  1
  H  H73  1  0.66649900  0.77757700  0.09746200  1
  H  H74  1  0.45972000  0.69776000  0.09828900  1
  H  H75  1  0.56441300  0.71562900  0.10750700  1
  H  H76  1  0.59638500  0.90391800  0.03714800  1
  H  H77  1  0.31654400  0.87722200  0.03769200  1
  H  H78  1  0.50669100  0.91805700  0.04674900  1
  H  H79  1  0.41121700  0.93909900  0.03572100  1
  H  H80  1  0.36935300  0.72371400  0.07893500  1
  C  C1  1  0.39185200  0.90668000  0.54532500  1
  C  C2  1  0.57240300  0.97031900  0.44589400  1
  C  C3  1  0.60654000  0.07041300  0.48221900  1
  C  C4  1  0.41034000  0.01236400  0.58174100  1
  C  C5  1  0.16962400  0.28538900  0.52679200  1
  C  C6  1  0.11325200  0.14170000  0.56955400  1
  C  C7  1  0.00409500  0.17553100  0.48097300  1
  C  C8  1  0.07334200  0.31388600  0.43977600  1
  C  C9  1  0.09055300  0.51250000  0.84214000  1
  C  C10  1  0.03915900  0.37102600  0.87837600  1
  C  C11  1  0.18442100  0.41870700  0.73888500  1
  C  C12  1  0.23722100  0.56232700  0.70306500  1
  C  C13  1  0.69923700  0.88341800  0.05705700  1
  C  C14  1  0.90188000  0.95085600  0.97705800  1
  C  C15  1  0.88950000  0.03178700  0.04216400  1
  C  C16  1  0.70919700  0.96730200  0.11999300  1
  C  C17  1  0.30448100  0.78454400  0.04810400  1
  C  C18  1  0.22999200  0.63681100  0.10989200  1
  C  C19  1  0.11748100  0.65141300  0.04222200  1
  C  C20  1  0.17191000  0.79572200  0.97839300  1
  C  C21  1  0.10749700  0.00452100  0.61931300  1
  C  C22  1  0.12527100  0.09232700  0.60101100  1
  C  C23  1  0.39858600  0.06501700  0.62662700  1
  C  C24  1  0.36678000  0.09573800  0.63841500  1
  C  C25  1  0.30498100  0.09343900  0.63486400  1
  C  C26  1  0.27155900  0.05735000  0.62341600  1
  C  C27  1  0.30094700  0.02279400  0.61737300  1
  C  C28  1  0.20936200  0.05463500  0.61820000  1
  C  C29  1  0.17136700  0.01067100  0.61977600  1
  C  C30  1  0.19825300  0.97378400  0.61912400  1
  C  C31  1  0.26415900  0.98154700  0.61434400  1
  C  C32  1  0.18671900  0.09658500  0.60651900  1
  C  C33  1  0.08412800  0.04499100  0.61058800  1
  C  C34  1  0.36677100  0.02931800  0.61465800  1
  C  C35  1  0.73727700  0.20155700  0.43575600  1
  C  C36  1  0.67259600  0.11292400  0.46292400  1
  C  C37  1  0.95967500  0.10089800  0.47038500  1
  C  C38  1  0.90900900  0.06754500  0.46779900  1
  C  C39  1  0.85186300  0.07808600  0.46480900  1
  C  C40  1  0.84542500  0.12382100  0.46210800  1
  C  C41  1  0.89903000  0.15912500  0.46136100  1
  C  C42  1  0.78791500  0.13596700  0.45832200  1
  C  C43  1  0.79028300  0.18655400  0.44481300  1
  C  C44  1  0.84527800  0.22239100  0.44089900  1
  C  C45  1  0.89784300  0.20814500  0.45128700  1
  C  C46  1  0.72698800  0.09858200  0.46954900  1
  C  C47  1  0.67914700  0.16529300  0.44354800  1
  C  C48  1  0.95462700  0.14611300  0.46843800  1
  C  C49  1  0.40864300  0.68030900  0.60735500  1
  C  C50  1  0.29003600  0.61860000  0.65950700  1
  C  C51  1  0.27379300  0.85257800  0.56994700  1
  C  C52  1  0.22271100  0.80358700  0.59174700  1
  C  C53  1  0.23700600  0.75823400  0.60507100  1
  C  C54  1  0.30414300  0.76159800  0.59438200  1
  C  C55  1  0.35634700  0.81239600  0.56854700  1
  C  C56  1  0.32080100  0.71594900  0.60892300  1
  C  C57  1  0.38985900  0.72378600  0.59228300  1
  C  C58  1  0.44126500  0.77511800  0.56137700  1
  C  C59  1  0.42483300  0.81881600  0.55032700  1
  C  C60  1  0.27084900  0.66227300  0.64214000  1
  C  C61  1  0.35889100  0.62779500  0.64207100  1
  C  C62  1  0.34036000  0.85699600  0.55951400  1
  C  C63  1  0.64711400  0.05226000  0.16601300  1
  C  C64  1  0.67351000  0.98277500  0.15930600  1
  C  C65  1  0.61599900  0.90537400  0.43739300  1
  C  C66  1  0.63433300  0.88142500  0.40704500  1
  C  C67  1  0.64371800  0.90429100  0.34734600  1
  C  C68  1  0.63941900  0.95422000  0.31486100  1
  C  C69  1  0.62574100  0.98035100  0.34467600  1
  C  C70  1  0.64794500  0.97870200  0.25373600  1
  C  C71  1  0.64244700  0.02817900  0.22460400  1
  C  C72  1  0.63590100  0.05576200  0.25236000  1
  C  C73  1  0.63047100  0.03320100  0.31062300  1
  C  C74  1  0.66371600  0.95634600  0.21981400  1
  C  C75  1  0.66213500  0.02954700  0.13342300  1
  C  C76  1  0.60889800  0.95377600  0.40760600  1
  C  C77  1  0.18578600  0.29087000  0.75471100  1
  C  C78  1  0.19696400  0.38152900  0.72112100  1
  C  C79  1  0.23772300  0.38161100  0.47947200  1
  C  C80  1  0.25904100  0.42507500  0.48409400  1
  C  C81  1  0.24797200  0.41642100  0.54044500  1
  C  C82  1  0.21860100  0.36356300  0.59293300  1
  C  C83  1  0.20224500  0.31977700  0.58697500  1
  C  C84  1  0.20672500  0.35343200  0.65094900  1
  C  C85  1  0.19145200  0.30129700  0.69859400  1
  C  C86  1  0.18038100  0.25884300  0.69100300  1
  C  C87  1  0.18249400  0.26741900  0.63660100  1
  C  C88  1  0.20633300  0.39305500  0.66368200  1
  C  C89  1  0.19000700  0.33116900  0.76554900  1
  C  C90  1  0.20765700  0.32882100  0.53091600  1
  C  C91  1  0.24003000  0.50443300  0.15113900  1
  C  C92  1  0.22684900  0.58175500  0.14686600  1
  C  C93  1  0.03980000  0.38705700  0.43461200  1
  C  C94  1  0.04815900  0.44049900  0.40379100  1
  C  C95  1  0.09027100  0.47584600  0.34160100  1
  C  C96  1  0.12211300  0.45748300  0.30771500  1
  C  C97  1  0.10849500  0.40189400  0.33859300  1
  C  C98  1  0.16685200  0.49283000  0.24400500  1
  C  C99  1  0.19461600  0.47125800  0.21299400  1
  C  C100  1  0.17496400  0.41586200  0.24271700  1
  C  C101  1  0.13097700  0.38143800  0.30425800  1
  C  C102  1  0.18423500  0.54902600  0.20971800  1
  C  C103  1  0.25621200  0.55950100  0.11801300  1
  C  C104  1  0.07125100  0.36743500  0.40303700  1
  C  C105  1  0.86697900  0.25380800  0.97749700  1
  C  C106  1  0.98567700  0.31543600  0.92431800  1
  C  C107  1  0.00193300  0.08112200  0.03179400  1
  C  C108  1  0.05147900  0.12983900  0.01261900  1
  C  C109  1  0.03700500  0.17544600  0.99676600  1
  C  C110  1  0.97073900  0.17215500  0.00345300  1
  C  C111  1  0.91943900  0.12124600  0.02913800  1
  C  C112  1  0.95417000  0.21800900  0.98408200  1
  C  C113  1  0.88539700  0.21010500  0.99789600  1
  C  C114  1  0.83411200  0.15839200  0.03084300  1
  C  C115  1  0.85102300  0.11452500  0.04519400  1
  C  C116  1  0.00431300  0.27179100  0.94766100  1
  C  C117  1  0.91707100  0.30635800  0.93953700  1
  C  C118  1  0.93615800  0.07697400  0.03884100  1
  C  C119  1  0.02134800  0.51173300  0.08850200  1
  C  C120  1  0.07286000  0.60756200  0.04283100  1
  C  C121  1  0.08818500  0.60089300  0.81049000  1
  C  C122  1  0.08619100  0.64160900  0.81939000  1
  C  C123  1  0.07615400  0.63328600  0.87531700  1
  C  C124  1  0.06539800  0.58297800  0.92412600  1
  C  C125  1  0.06200900  0.54047600  0.91624900  1
  C  C126  1  0.05725700  0.57416700  0.98082800  1
  C  C127  1  0.03307300  0.52146800  0.03134600  1
  C  C128  1  0.02341200  0.47856600  0.02440600  1
  C  C129  1  0.04102000  0.48825800  0.96683800  1
  C  C130  1  0.07858100  0.61717100  0.98701800  1
  C  C131  1  0.04083600  0.55480200  0.09444000  1
  C  C132  1  0.07749800  0.55058500  0.85812700  1
  C  C133  1  0.08947100  0.00012900  0.92306900  1
  C  C134  1  0.97226100  0.95910200  0.94257800  1
  C  C135  1  0.09190800  0.78651200  0.93549600  1
  C  C136  1  0.03920500  0.79707400  0.92174900  1
  C  C137  1  0.02397200  0.83875800  0.92181000  1
  C  C138  1  0.06431700  0.87257300  0.93210400  1
  C  C139  1  0.12119000  0.86436500  0.94095700  1
  C  C140  1  0.04966900  0.91503000  0.93268800  1
  C  C141  1  0.09967300  0.95498900  0.92852900  1
  C  C142  1  0.15860600  0.94875600  0.93277000  1
  C  C143  1  0.16714100  0.90199500  0.94292900  1
  C  C144  1  0.98444600  0.91620500  0.94248300  1
  C  C145  1  0.02627400  0.00257800  0.92906300  1
  C  C146  1  0.13229100  0.81911700  0.94648200  1
  C  C147  1  0.57004800  0.75676600  0.09298100  1
  C  C148  1  0.63683000  0.84468100  0.06612600  1
  C  C149  1  0.35885500  0.86642800  0.04366500  1
  C  C150  1  0.41234700  0.90137600  0.04187500  1
  C  C151  1  0.46777200  0.88907900  0.04728700  1
  C  C152  1  0.47016500  0.84041600  0.05600300  1
  C  C153  1  0.41446900  0.80436000  0.05964300  1
  C  C154  1  0.52532800  0.82600200  0.06330300  1
  C  C155  1  0.51975900  0.77393200  0.08035900  1
  C  C156  1  0.46366000  0.73825100  0.08540200  1
  C  C157  1  0.41232400  0.75357300  0.07380000  1
  C  C158  1  0.58622400  0.86187900  0.05395300  1
  C  C159  1  0.62756800  0.79151100  0.08748300  1
  C  C160  1  0.35995500  0.81842900  0.05145800  1
  O  O1  1  0.40702300  0.95554300  0.49801800  1
  O  O2  1  0.42523100  0.90097700  0.57919000  1
  O  O3  1  0.54130400  0.00186000  0.42494200  1
  O  O4  1  0.56198500  0.94743700  0.50361900  1
  O  O5  1  0.56868600  0.08019800  0.45171400  1
  O  O6  1  0.58644200  0.02144100  0.53070800  1
  O  O7  1  0.42164800  0.03278100  0.52460500  1
  O  O8  1  0.44257000  0.98236300  0.60556100  1
  O  O9  1  0.10404200  0.25449900  0.56658000  1
  O  O10  1  0.19545700  0.28578000  0.47693500  1
  O  O11  1  0.05704700  0.14647000  0.59575800  1
  O  O12  1  0.15620700  0.17848900  0.51143000  1
  O  O13  1  0.97952700  0.17782000  0.52884300  1
  O  O14  1  0.07181600  0.19627700  0.44745400  1
  O  O15  1  0.03241800  0.28059100  0.49939700  1
  O  O16  1  0.12295000  0.30316300  0.41461200  1
  O  O17  1  0.06986000  0.50931300  0.80296700  1
  O  O18  1  0.13510700  0.49213200  0.85553800  1
  O  O19  1  0.03053200  0.40395600  0.83105500  1
  O  O20  1  0.09714100  0.38612400  0.88235300  1
  O  O21  1  0.14326300  0.44208800  0.72292500  1
  O  O22  1  0.20384100  0.42031400  0.77940700  1
  O  O23  1  0.17867100  0.54793000  0.69954200  1
  O  O24  1  0.24685000  0.52801900  0.74876400  1
  O  O25  1  0.72395700  0.93513900  0.01243200  1
  O  O26  1  0.72671900  0.86745400  0.09578200  1
  O  O27  1  0.87666800  0.98673400  0.95230400  1
  O  O28  1  0.87436800  0.91666100  0.03688000  1
  O  O29  1  0.86357400  0.04498400  0.00247000  1
  O  O30  1  0.87270500  0.97993300  0.08353300  1
  O  O31  1  0.72830900  0.99702400  0.06037700  1
  O  O32  1  0.73401500  0.93097800  0.14290700  1
  O  O33  1  0.23935700  0.76264700  0.08869500  1
  O  O34  1  0.32077800  0.77657200  0.00386500  1
  O  O35  1  0.18762100  0.65161500  0.13686700  1
  O  O36  1  0.26408100  0.66589600  0.04945900  1
  O  O37  1  0.09960600  0.65675200  0.08865500  1
  O  O38  1  0.18023800  0.68110400  0.99688400  1
  O  O39  1  0.14085300  0.76743900  0.03870400  1
  O  O40  1  0.22336800  0.78773700  0.95028200  1
