# generated using pymatgen
data_Fe2H28C54O19
_symmetry_space_group_name_H-M   'P 1'
_cell_length_a   17.44277600
_cell_length_b   9.45437500
_cell_length_c   18.32579900
_cell_angle_alpha   86.14404300
_cell_angle_beta   78.79332500
_cell_angle_gamma   106.06379600
_symmetry_Int_Tables_number   1
_chemical_formula_structural   Fe2H28C54O19
_chemical_formula_sum   'Fe2 H28 C54 O19'
_cell_volume   2825.16476821
_cell_formula_units_Z   1
loop_
 _symmetry_equiv_pos_site_id
 _symmetry_equiv_pos_as_xyz
  1  'x, y, z'
loop_
 _atom_site_type_symbol
 _atom_site_label
 _atom_site_symmetry_multiplicity
 _atom_site_fract_x
 _atom_site_fract_y
 _atom_site_fract_z
 _atom_site_occupancy
  Fe  Fe1  1  0.49848500  0.98563700  0.15507300  1
  Fe  Fe2  1  0.50695000  0.98246900  0.83705800  1
  H  H1  1  0.25100100  0.99638200  0.17015300  1
  H  H2  1  0.23186400  0.88448100  0.86456600  1
  H  H3  1  0.99508600  0.05707900  0.18545300  1
  H  H4  1  0.10644000  0.89318400  0.83956300  1
  H  H5  1  0.88069400  0.02854100  0.16675800  1
  H  H6  1  0.75885500  0.03356600  0.13880700  1
  H  H7  1  0.91158500  0.05305200  0.77619200  1
  H  H8  1  0.50668500  0.26890800  0.62845500  1
  H  H9  1  0.51484200  0.72298600  0.59488900  1
  H  H10  1  0.48341900  0.23992200  0.39792100  1
  H  H11  1  0.48902200  0.69287000  0.36501000  1
  H  H12  1  0.51639000  0.52926400  0.81045200  1
  H  H13  1  0.48074300  0.43315500  0.18270600  1
  H  H14  1  0.67115900  0.82936800  0.79936200  1
  H  H15  1  0.75760800  0.79690300  0.83072300  1
  H  H16  1  0.84328200  0.87953300  0.70272400  1
  H  H17  1  0.75160100  0.73325000  0.70152400  1
  H  H18  1  0.75938000  0.92398000  0.67150200  1
  H  H19  1  0.08681000  0.81135600  0.23454400  1
  H  H20  1  0.01686900  0.89359200  0.29037000  1
  H  H21  1  0.11778300  0.98031800  0.36844400  1
  H  H22  1  0.09004700  0.78085800  0.36930600  1
  H  H23  1  0.18721400  0.89683100  0.31307400  1
  H  H24  1  0.06648900  0.26812200  0.82793700  1
  H  H25  1  0.05251500  0.25795600  0.73281500  1
  H  H26  1  0.18979200  0.22258400  0.69423100  1
  H  H27  1  0.19550400  0.39340800  0.73502700  1
  H  H28  1  0.20350200  0.23300600  0.78937900  1
  C  C1  1  0.23944200  0.98656000  0.11464300  1
  C  C2  1  0.10780400  0.02000800  0.15494900  1
  C  C3  1  0.30211300  0.97878400  0.05812100  1
  C  C4  1  0.29074800  0.97299400  0.98535700  1
  C  C5  1  0.16659200  0.99635000  0.09929300  1
  C  C6  1  0.15288000  0.98454100  0.02811100  1
  C  C7  1  0.21331200  0.96402000  0.97226300  1
  C  C8  1  0.19345500  0.92705500  0.90527600  1
  C  C9  1  0.03562700  0.03168800  0.13970400  1
  C  C10  1  0.01897100  0.01498900  0.06889000  1
  C  C11  1  0.07910900  0.99378000  0.01269400  1
  C  C12  1  0.06604000  0.98206300  0.94092300  1
  C  C13  1  0.12057800  0.93433000  0.89024600  1
  C  C14  1  0.87839200  0.02319800  0.10891000  1
  C  C15  1  0.94338300  0.01578700  0.05338300  1
  C  C16  1  0.93239500  0.01185500  0.98040800  1
  C  C17  1  0.99599000  0.00636400  0.92304900  1
  C  C18  1  0.98879700  0.03155600  0.84901600  1
  C  C19  1  0.80438500  0.02009800  0.09316200  1
  C  C20  1  0.79139200  0.00688000  0.02164500  1
  C  C21  1  0.85747000  0.01293400  0.96455700  1
  C  C22  1  0.84852800  0.01968200  0.89138800  1
  C  C23  1  0.71434400  0.99246000  0.00625500  1
  C  C24  1  0.70647800  0.00004600  0.93230900  1
  C  C25  1  0.91523400  0.03530000  0.83404500  1
  C  C26  1  0.77364800  0.01466700  0.87513300  1
  C  C27  1  0.64123200  0.96501400  0.06748000  1
  C  C28  1  0.48051500  0.70371400  0.21799500  1
  C  C29  1  0.38177100  0.99580200  0.07648300  1
  C  C30  1  0.48050600  0.18349300  0.25793900  1
  C  C31  1  0.51939200  0.78065500  0.73454400  1
  C  C32  1  0.62645400  0.97792900  0.91351800  1
  C  C33  1  0.51526300  0.25807500  0.77546100  1
  C  C34  1  0.36081700  0.98712700  0.92241100  1
  C  C35  1  0.51349100  0.38462700  0.72505600  1
  C  C36  1  0.50975600  0.37278100  0.65077400  1
  C  C37  1  0.50946300  0.49468200  0.60462100  1
  C  C38  1  0.51476400  0.62843500  0.63154300  1
  C  C39  1  0.51586200  0.63962400  0.70564900  1
  C  C40  1  0.51440700  0.51785600  0.75253100  1
  C  C41  1  0.50180400  0.48418200  0.52857900  1
  C  C42  1  0.49487000  0.47811200  0.46468200  1
  C  C43  1  0.48277700  0.33421600  0.36151000  1
  C  C44  1  0.48194700  0.32330500  0.28735900  1
  C  C45  1  0.48229800  0.44447100  0.24071700  1
  C  C46  1  0.48247700  0.57726500  0.26834700  1
  C  C47  1  0.48645000  0.58923200  0.34258100  1
  C  C48  1  0.48725200  0.46758500  0.38863200  1
  C  C49  1  0.73867000  0.86715600  0.79103300  1
  C  C50  1  0.77581500  0.85007200  0.71144300  1
  C  C51  1  0.08217600  0.90237700  0.26866500  1
  C  C52  1  0.12198700  0.88922100  0.33422300  1
  C  C53  1  0.08189300  0.21960000  0.77561500  1
  C  C54  1  0.17381700  0.27055800  0.74663400  1
  O  O1  1  0.58289100  0.02472300  0.06074500  1
  O  O2  1  0.47252900  0.68589800  0.14916600  1
  O  O3  1  0.63321800  0.87753500  0.12881700  1
  O  O4  1  0.49197100  0.83679700  0.23925300  1
  O  O5  1  0.38963600  0.90266600  0.12909400  1
  O  O6  1  0.44215600  0.11665000  0.04857700  1
  O  O7  1  0.52556600  0.18503500  0.19154800  1
  O  O8  1  0.43204800  0.05793400  0.29636300  1
  O  O9  1  0.47898500  0.78098500  0.80274700  1
  O  O10  1  0.56516300  0.90547300  0.69357900  1
  O  O11  1  0.61696000  0.06810300  0.86047300  1
  O  O12  1  0.56661200  0.85740400  0.94334400  1
  O  O13  1  0.36270400  0.05143500  0.85615400  1
  O  O14  1  0.51132800  0.12807500  0.75226800  1
  O  O15  1  0.42446300  0.94623800  0.93256300  1
  O  O16  1  0.51807600  0.27326200  0.84564200  1
  O  O17  1  0.76471700  0.01624400  0.80242100  1
  O  O18  1  0.12198600  0.03950200  0.22500200  1
  O  O19  1  0.05474500  0.06483500  0.78966500  1
