# generated using pymatgen
data_CuH16C23N3O8
_symmetry_space_group_name_H-M   'P 1'
_cell_length_a   11.82254600
_cell_length_b   15.55954400
_cell_length_c   17.12201200
_cell_angle_alpha   96.31864600
_cell_angle_beta   89.99170900
_cell_angle_gamma   92.79783700
_symmetry_Int_Tables_number   1
_chemical_formula_structural   CuH16C23N3O8
_chemical_formula_sum   'Cu2 H32 C46 N6 O16'
_cell_volume   3126.74421965
_cell_formula_units_Z   2
loop_
 _symmetry_equiv_pos_site_id
 _symmetry_equiv_pos_as_xyz
  1  'x, y, z'
loop_
 _atom_site_type_symbol
 _atom_site_label
 _atom_site_symmetry_multiplicity
 _atom_site_fract_x
 _atom_site_fract_y
 _atom_site_fract_z
 _atom_site_occupancy
  Cu  Cu1  1  0.48568800  0.41113500  0.49315700  1
  Cu  Cu2  1  0.50178300  0.58433700  0.50790400  1
  H  H1  1  0.48338700  0.34370800  0.10363700  1
  H  H2  1  0.44042600  0.64122800  0.89633000  1
  H  H3  1  0.49744500  0.35441000  0.24485300  1
  H  H4  1  0.43287000  0.62879600  0.75303700  1
  H  H5  1  0.62334200  0.28610000  0.55164800  1
  H  H6  1  0.36634600  0.70902600  0.44733900  1
  H  H7  1  0.67516300  0.89126800  0.57336800  1
  H  H8  1  0.30745000  0.10455200  0.43488800  1
  H  H9  1  0.76096200  0.43925200  0.74589000  1
  H  H10  1  0.74393600  0.36875400  0.65516700  1
  H  H11  1  0.77125500  0.32374000  0.74603100  1
  H  H12  1  0.64987400  0.67316700  0.25525900  1
  H  H13  1  0.58991300  0.72561400  0.34423400  1
  H  H14  1  0.56997700  0.76895200  0.25178400  1
  H  H15  1  0.47026900  0.28253200  0.86011000  1
  H  H16  1  0.53270400  0.27069800  0.95416200  1
  H  H17  1  0.61109900  0.24219100  0.86510200  1
  H  H18  1  0.26505400  0.58739000  0.09064700  1
  H  H19  1  0.31738300  0.65387500  0.01660500  1
  H  H20  1  0.28154400  0.70382900  0.11318000  1
  H  H21  1  0.77626300  0.18333300  0.52433500  1
  H  H22  1  0.80708600  0.08995900  0.57353300  1
  H  H23  1  0.78538900  0.19213500  0.63087200  1
  H  H24  1  0.36385000  0.97649900  0.34615400  1
  H  H25  1  0.37185500  0.87425100  0.28623800  1
  H  H26  1  0.49387300  0.91937800  0.34194900  1
  H  H27  1  0.57855100  0.73716400  0.70107300  1
  H  H28  1  0.72612100  0.76789900  0.72076800  1
  H  H29  1  0.68429000  0.65557900  0.69580600  1
  H  H30  1  0.16680400  0.20790100  0.47757300  1
  H  H31  1  0.13552500  0.20173700  0.37356500  1
  H  H32  1  0.12603200  0.30269900  0.43611600  1
  C  C1  1  0.48963900  0.49597600  0.34952100  1
  C  C2  1  0.49999300  0.50020900  0.65116200  1
  C  C3  1  0.27732100  0.50010900  0.50355700  1
  C  C4  1  0.71128100  0.49560400  0.49747500  1
  C  C5  1  0.15607900  0.50032400  0.50325300  1
  C  C6  1  0.83264300  0.49489600  0.49864900  1
  C  C7  1  0.05409200  0.49853000  0.50240900  1
  C  C8  1  0.93460600  0.49671400  0.50052100  1
  C  C9  1  0.48554300  0.49302300  0.26246200  1
  C  C10  1  0.50185600  0.50315900  0.73757100  1
  C  C11  1  0.47601900  0.56663900  0.22343300  1
  C  C12  1  0.54439100  0.43719900  0.77642800  1
  C  C13  1  0.46559200  0.55968700  0.14227000  1
  C  C14  1  0.54552800  0.44396200  0.85815800  1
  C  C15  1  0.47021000  0.47886600  0.09831000  1
  C  C16  1  0.50634000  0.51753000  0.90111400  1
  C  C17  1  0.48013000  0.40671800  0.13716600  1
  C  C18  1  0.46854100  0.58351600  0.86234500  1
  C  C19  1  0.48794500  0.41332500  0.21779000  1
  C  C20  1  0.46473700  0.57620500  0.78147700  1
  C  C21  1  0.43295300  0.74952000  0.47722700  1
  C  C22  1  0.55737700  0.24518900  0.52156700  1
  C  C23  1  0.44014300  0.83611500  0.46585700  1
  C  C24  1  0.55302900  0.15766300  0.53072200  1
  C  C25  1  0.52783000  0.88884300  0.50158100  1
  C  C26  1  0.46127100  0.10613200  0.49942500  1
  C  C27  1  0.60699500  0.85158000  0.54411600  1
  C  C28  1  0.37846600  0.14431000  0.46086800  1
  C  C29  1  0.59888000  0.76456200  0.55266400  1
  C  C30  1  0.38591300  0.23131800  0.45233500  1
  C  C31  1  0.60288400  0.36584000  0.73323100  1
  C  C32  1  0.72753500  0.37485800  0.71920700  1
  C  C33  1  0.47107400  0.65327700  0.26585200  1
  C  C34  1  0.57689600  0.70876900  0.28025600  1
  C  C35  1  0.60078300  0.37810300  0.89818100  1
  C  C36  1  0.55067100  0.28761900  0.89403700  1
  C  C37  1  0.43555800  0.63775600  0.10717800  1
  C  C38  1  0.31738900  0.64609600  0.08017000  1
  C  C39  1  0.63630900  0.12598100  0.58337400  1
  C  C40  1  0.75908700  0.14969100  0.57723800  1
  C  C41  1  0.35971000  0.86563700  0.40999300  1
  C  C42  1  0.40019700  0.91187700  0.34229100  1
  C  C43  1  0.68679300  0.73136900  0.60000500  1
  C  C44  1  0.66696100  0.72239300  0.68465400  1
  C  C45  1  0.29473100  0.26574500  0.40834800  1
  C  C46  1  0.17350400  0.24289700  0.42484600  1
  N  N1  1  0.46652700  0.46686800  0.01484000  1
  N  N2  1  0.50927200  0.52966700  0.98418300  1
  N  N3  1  0.51176000  0.71386200  0.51884700  1
  N  N4  1  0.47724600  0.28146000  0.48191700  1
  N  N5  1  0.53973900  0.97905300  0.49652000  1
  N  N6  1  0.44847400  0.01579500  0.50396500  1
  O  O1  1  0.48481900  0.42250700  0.38055900  1
  O  O2  1  0.50010500  0.57385300  0.62060900  1
  O  O3  1  0.49292700  0.57038000  0.39335000  1
  O  O4  1  0.49093300  0.42532100  0.60776700  1
  O  O5  1  0.32414000  0.42536700  0.49943900  1
  O  O6  1  0.66444300  0.57027200  0.50121300  1
  O  O7  1  0.33597600  0.57394700  0.50657600  1
  O  O8  1  0.65243600  0.42178000  0.49460300  1
  O  O9  1  0.55073900  0.29798200  0.71098800  1
  O  O10  1  0.37993200  0.68153400  0.28600100  1
  O  O11  1  0.68434100  0.39876300  0.93906700  1
  O  O12  1  0.50667400  0.69590700  0.10055800  1
  O  O13  1  0.60463500  0.08261600  0.63510100  1
  O  O14  1  0.25935700  0.84462000  0.41418000  1
  O  O15  1  0.78245000  0.72507900  0.57399800  1
  O  O16  1  0.31689800  0.30760700  0.35383000  1
