# generated using pymatgen
data_Cu3H22(C17O6)2
_symmetry_space_group_name_H-M   'P 1'
_cell_length_a   21.30015100
_cell_length_b   28.87632400
_cell_length_c   28.77816300
_cell_angle_alpha   90.00000000
_cell_angle_beta   90.00000000
_cell_angle_gamma   90.00000000
_symmetry_Int_Tables_number   1
_chemical_formula_structural   Cu3H22(C17O6)2
_chemical_formula_sum   'Cu12 H88 C136 O48'
_cell_volume   17700.58648698
_cell_formula_units_Z   4
loop_
 _symmetry_equiv_pos_site_id
 _symmetry_equiv_pos_as_xyz
  1  'x, y, z'
loop_
 _atom_site_type_symbol
 _atom_site_label
 _atom_site_symmetry_multiplicity
 _atom_site_fract_x
 _atom_site_fract_y
 _atom_site_fract_z
 _atom_site_occupancy
  Cu  Cu1  1  0.00000000  0.94867900  0.00000000  1
  Cu  Cu2  1  0.50000000  0.44867800  0.50000000  1
  Cu  Cu3  1  0.00000000  0.03915200  0.00000000  1
  Cu  Cu4  1  0.50000000  0.53915200  0.50000000  1
  Cu  Cu5  1  0.50115800  0.99384900  0.95367400  1
  Cu  Cu6  1  0.49884200  0.99384900  0.04632600  1
  Cu  Cu7  1  0.00115800  0.49384900  0.45367400  1
  Cu  Cu8  1  0.99884200  0.49384900  0.54632600  1
  Cu  Cu9  1  0.06251400  0.99390300  0.50203100  1
  Cu  Cu10  1  0.93748600  0.99390300  0.49796900  1
  Cu  Cu11  1  0.56251400  0.49390300  0.00203100  1
  Cu  Cu12  1  0.43748600  0.49390300  0.99796900  1
  H  H1  1  0.28904500  0.07253800  0.00935300  1
  H  H2  1  0.71095500  0.07253800  0.99064700  1
  H  H3  1  0.78904500  0.57253800  0.50935300  1
  H  H4  1  0.21095500  0.57253800  0.49064700  1
  H  H5  1  0.28582800  0.94451700  0.05920100  1
  H  H6  1  0.71417200  0.94451700  0.94079900  1
  H  H7  1  0.70906900  0.96567400  0.07670300  1
  H  H8  1  0.29093100  0.96567400  0.92329700  1
  H  H9  1  0.78582800  0.44451700  0.55920100  1
  H  H10  1  0.21417200  0.44451700  0.44079900  1
  H  H11  1  0.20906900  0.46567400  0.57670300  1
  H  H12  1  0.79093100  0.46567400  0.42329700  1
  H  H13  1  0.21086300  0.91614800  0.98326500  1
  H  H14  1  0.78913700  0.91614800  0.01673500  1
  H  H15  1  0.71086300  0.41614800  0.48326500  1
  H  H16  1  0.28913700  0.41614800  0.51673500  1
  H  H17  1  0.24296400  0.02508300  0.10828900  1
  H  H18  1  0.16641500  0.00185600  0.09469000  1
  H  H19  1  0.14197800  0.07675200  0.05240000  1
  H  H20  1  0.21704100  0.09899500  0.07110000  1
  H  H21  1  0.18713400  0.08890900  0.15302200  1
  H  H22  1  0.11300900  0.06357800  0.13596200  1
  H  H23  1  0.15784800  0.16182300  0.11196300  1
  H  H24  1  0.10141100  0.14654300  0.15636200  1
  H  H25  1  0.08329800  0.13618000  0.09587800  1
  H  H26  1  0.75703600  0.02508300  0.89171100  1
  H  H27  1  0.83358500  0.00185600  0.90531000  1
  H  H28  1  0.85802200  0.07675200  0.94760000  1
  H  H29  1  0.78295900  0.09899500  0.92890000  1
  H  H30  1  0.81286600  0.08890900  0.84697800  1
  H  H31  1  0.88699100  0.06357800  0.86403800  1
  H  H32  1  0.84215200  0.16182300  0.88803700  1
  H  H33  1  0.89858900  0.14654300  0.84363800  1
  H  H34  1  0.91670200  0.13618000  0.90412200  1
  H  H35  1  0.74861600  0.07320400  0.08802000  1
  H  H36  1  0.82630800  0.07719900  0.06348200  1
  H  H37  1  0.85018900  0.99943200  0.10411200  1
  H  H38  1  0.77541100  0.00588800  0.13319200  1
  H  H39  1  0.81487600  0.08740400  0.15749300  1
  H  H40  1  0.89164900  0.06759400  0.13916800  1
  H  H41  1  0.80542600  0.02535200  0.21353500  1
  H  H42  1  0.88136300  0.05212300  0.22167800  1
  H  H43  1  0.87518300  0.99717400  0.19163200  1
  H  H44  1  0.25138400  0.07320400  0.91198000  1
  H  H45  1  0.17369200  0.07719900  0.93651800  1
  H  H46  1  0.14981100  0.99943200  0.89588800  1
  H  H47  1  0.22458900  0.00588800  0.86680800  1
  H  H48  1  0.18512400  0.08740400  0.84250700  1
  H  H49  1  0.10835100  0.06759400  0.86083200  1
  H  H50  1  0.19457400  0.02535200  0.78646500  1
  H  H51  1  0.11863700  0.05212300  0.77832200  1
  H  H52  1  0.12481700  0.99717400  0.80836800  1
  H  H53  1  0.74296400  0.52508300  0.60828800  1
  H  H54  1  0.66641500  0.50185700  0.59469000  1
  H  H55  1  0.64197800  0.57675200  0.55240000  1
  H  H56  1  0.71704100  0.59899500  0.57110000  1
  H  H57  1  0.68713400  0.58890900  0.65302200  1
  H  H58  1  0.61300900  0.56357800  0.63596200  1
  H  H59  1  0.65784800  0.66182400  0.61196200  1
  H  H60  1  0.60141100  0.64654300  0.65636200  1
  H  H61  1  0.58329800  0.63618000  0.59587700  1
  H  H62  1  0.25703600  0.52508300  0.39171200  1
  H  H63  1  0.33358500  0.50185700  0.40531000  1
  H  H64  1  0.35802200  0.57675200  0.44760000  1
  H  H65  1  0.28295900  0.59899500  0.42890000  1
  H  H66  1  0.31286600  0.58890900  0.34697800  1
  H  H67  1  0.38699100  0.56357800  0.36403800  1
  H  H68  1  0.34215200  0.66182400  0.38803800  1
  H  H69  1  0.39858900  0.64654300  0.34363800  1
  H  H70  1  0.41670200  0.63618000  0.40412300  1
  H  H71  1  0.24861600  0.57320400  0.58802000  1
  H  H72  1  0.32630800  0.57719800  0.56348300  1
  H  H73  1  0.35018900  0.49943200  0.60411200  1
  H  H74  1  0.27541100  0.50588800  0.63319200  1
  H  H75  1  0.31487600  0.58740400  0.65749300  1
  H  H76  1  0.39164900  0.56759300  0.63916900  1
  H  H77  1  0.30542600  0.52535100  0.71353500  1
  H  H78  1  0.38136200  0.55212200  0.72167900  1
  H  H79  1  0.37518300  0.49717400  0.69163200  1
  H  H80  1  0.75138400  0.57320400  0.41198000  1
  H  H81  1  0.67369200  0.57719800  0.43651700  1
  H  H82  1  0.64981100  0.49943200  0.39588800  1
  H  H83  1  0.72458900  0.50588800  0.36680800  1
  H  H84  1  0.68512400  0.58740400  0.34250700  1
  H  H85  1  0.60835100  0.56759300  0.36083100  1
  H  H86  1  0.69457400  0.52535100  0.28646500  1
  H  H87  1  0.61863800  0.55212200  0.27832100  1
  H  H88  1  0.62481700  0.49717400  0.30836800  1
  C  C1  1  0.00571400  0.99390400  0.08779700  1
  C  C2  1  0.99428600  0.99390400  0.91220300  1
  C  C3  1  0.50571400  0.49390400  0.58779700  1
  C  C4  1  0.49428600  0.49390400  0.41220300  1
  C  C5  1  0.11872200  0.99394000  0.99595400  1
  C  C6  1  0.88127800  0.99394000  0.00404600  1
  C  C7  1  0.61872200  0.49394000  0.49595400  1
  C  C8  1  0.38127800  0.49394000  0.50404600  1
  C  C9  1  0.22825400  0.00960500  0.03604400  1
  C  C10  1  0.77174600  0.00960500  0.96395600  1
  C  C11  1  0.76940900  0.02122000  0.03691400  1
  C  C12  1  0.23059100  0.02122000  0.96308600  1
  C  C13  1  0.72825400  0.50960500  0.53604400  1
  C  C14  1  0.27174600  0.50960500  0.46395600  1
  C  C15  1  0.26940900  0.52122000  0.53691400  1
  C  C16  1  0.73059100  0.52122000  0.46308600  1
  C  C17  1  0.27042700  0.03711600  0.00382400  1
  C  C18  1  0.72957300  0.03711600  0.99617600  1
  C  C19  1  0.77042700  0.53711600  0.50382400  1
  C  C20  1  0.22957300  0.53711600  0.49617600  1
  C  C21  1  0.30999200  0.99412800  0.99765900  1
  C  C22  1  0.69000800  0.99412800  0.00234100  1
  C  C23  1  0.80999200  0.49412800  0.49765900  1
  C  C24  1  0.19000800  0.49412800  0.50234100  1
  C  C25  1  0.26885000  0.96690400  0.03053400  1
  C  C26  1  0.73115000  0.96690400  0.96946600  1
  C  C27  1  0.72863700  0.97875500  0.04350900  1
  C  C28  1  0.27136300  0.97875500  0.95649100  1
  C  C29  1  0.76885000  0.46690500  0.53053400  1
  C  C30  1  0.23115000  0.46690500  0.46946600  1
  C  C31  1  0.22863700  0.47875500  0.54350900  1
  C  C32  1  0.77136300  0.47875500  0.45649100  1
  C  C33  1  0.22882500  0.95165900  0.98941600  1
  C  C34  1  0.77117500  0.95165900  0.01058400  1
  C  C35  1  0.72882500  0.45165900  0.48941600  1
  C  C36  1  0.27117500  0.45165900  0.51058400  1
  C  C37  1  0.18858800  0.99446100  0.99552200  1
  C  C38  1  0.81141200  0.99446100  0.00447800  1
  C  C39  1  0.68858800  0.49446100  0.49552200  1
  C  C40  1  0.31141200  0.49446100  0.50447800  1
  C  C41  1  0.00872600  0.99399700  0.13755300  1
  C  C42  1  0.99127400  0.99399700  0.86244700  1
  C  C43  1  0.50872600  0.49399700  0.63755300  1
  C  C44  1  0.49127400  0.49399700  0.36244700  1
  C  C45  1  0.01065000  0.99414300  0.17937600  1
  C  C46  1  0.98935000  0.99414300  0.82062400  1
  C  C47  1  0.51065000  0.49414300  0.67937600  1
  C  C48  1  0.48935000  0.49414300  0.32062400  1
  C  C49  1  0.01153800  0.99429600  0.22841200  1
  C  C50  1  0.98846200  0.99429600  0.77158800  1
  C  C51  1  0.51153800  0.49429600  0.72841200  1
  C  C52  1  0.48846200  0.49429600  0.27158800  1
  C  C53  1  0.01115300  0.99433800  0.27026900  1
  C  C54  1  0.98884700  0.99433800  0.72973100  1
  C  C55  1  0.51115300  0.49433800  0.77026900  1
  C  C56  1  0.48884700  0.49433800  0.22973100  1
  C  C57  1  0.00967400  0.99423200  0.31930700  1
  C  C58  1  0.99032600  0.99423200  0.68069300  1
  C  C59  1  0.50967400  0.49423200  0.81930700  1
  C  C60  1  0.49032600  0.49423200  0.18069300  1
  C  C61  1  0.00775800  0.99399700  0.36114600  1
  C  C62  1  0.99224200  0.99399700  0.63885400  1
  C  C63  1  0.50775800  0.49399700  0.86114600  1
  C  C64  1  0.49224200  0.49399700  0.13885400  1
  C  C65  1  0.50000000  0.08272100  0.00000000  1
  C  C66  1  0.00000000  0.58272100  0.50000000  1
  C  C67  1  0.37964700  0.99425600  0.99867400  1
  C  C68  1  0.62035300  0.99425600  0.00132600  1
  C  C69  1  0.87964700  0.49425600  0.49867400  1
  C  C70  1  0.12035300  0.49425600  0.50132600  1
  C  C71  1  0.50000000  0.90502600  0.00000000  1
  C  C72  1  0.00000000  0.40502600  0.50000000  1
  C  C73  1  0.00000000  0.08274900  0.50000000  1
  C  C74  1  0.50000000  0.58274900  0.00000000  1
  C  C75  1  0.00486500  0.99354700  0.41094000  1
  C  C76  1  0.99513500  0.99354700  0.58906000  1
  C  C77  1  0.50486500  0.49354700  0.91094000  1
  C  C78  1  0.49513500  0.49354700  0.08906000  1
  C  C79  1  0.00000000  0.90503400  0.50000000  1
  C  C80  1  0.50000000  0.40503400  0.00000000  1
  C  C81  1  0.50000000  0.13239600  0.00000000  1
  C  C82  1  0.00000000  0.63239600  0.50000000  1
  C  C83  1  0.50000000  0.17412000  0.00000000  1
  C  C84  1  0.00000000  0.67412000  0.50000000  1
  C  C85  1  0.50000000  0.22301300  0.00000000  1
  C  C86  1  0.00000000  0.72301300  0.50000000  1
  C  C87  1  0.00000000  0.76473900  0.50000000  1
  C  C88  1  0.50000000  0.26473900  0.00000000  1
  C  C89  1  0.00000000  0.81363200  0.50000000  1
  C  C90  1  0.50000000  0.31363200  0.00000000  1
  C  C91  1  0.00000000  0.85535700  0.50000000  1
  C  C92  1  0.50000000  0.35535700  0.00000000  1
  C  C93  1  0.50000000  0.85535900  0.00000000  1
  C  C94  1  0.00000000  0.35535900  0.50000000  1
  C  C95  1  0.50000000  0.81363900  0.00000000  1
  C  C96  1  0.00000000  0.31363900  0.50000000  1
  C  C97  1  0.50000000  0.76475200  0.00000000  1
  C  C98  1  0.00000000  0.26475200  0.50000000  1
  C  C99  1  0.00000000  0.22302900  0.50000000  1
  C  C100  1  0.50000000  0.72302900  0.00000000  1
  C  C101  1  0.00000000  0.17414100  0.50000000  1
  C  C102  1  0.50000000  0.67414100  0.00000000  1
  C  C103  1  0.00000000  0.13242000  0.50000000  1
  C  C104  1  0.50000000  0.63242000  0.00000000  1
  C  C105  1  0.20387300  0.02577900  0.08286100  1
  C  C106  1  0.17840400  0.07477100  0.07971400  1
  C  C107  1  0.15003600  0.08862300  0.12599200  1
  C  C108  1  0.12129900  0.13646000  0.12222200  1
  C  C109  1  0.79612700  0.02577900  0.91713900  1
  C  C110  1  0.82159600  0.07477100  0.92028600  1
  C  C111  1  0.84996400  0.08862300  0.87400800  1
  C  C112  1  0.87870100  0.13646000  0.87777800  1
  C  C113  1  0.78981000  0.05293900  0.07613100  1
  C  C114  1  0.81479900  0.02469800  0.11656000  1
  C  C115  1  0.84489500  0.05651700  0.15199100  1
  C  C116  1  0.85225200  0.03108500  0.19770400  1
  C  C117  1  0.21019000  0.05293900  0.92386900  1
  C  C118  1  0.18520100  0.02469800  0.88344000  1
  C  C119  1  0.15510500  0.05651700  0.84800900  1
  C  C120  1  0.14774800  0.03108500  0.80229600  1
  C  C121  1  0.70387300  0.52578000  0.58286100  1
  C  C122  1  0.67840400  0.57477100  0.57971300  1
  C  C123  1  0.65003600  0.58862300  0.62599200  1
  C  C124  1  0.62129900  0.63646000  0.62222200  1
  C  C125  1  0.29612700  0.52578000  0.41713900  1
  C  C126  1  0.32159600  0.57477100  0.42028700  1
  C  C127  1  0.34996400  0.58862300  0.37400800  1
  C  C128  1  0.37870100  0.63646000  0.37777800  1
  C  C129  1  0.28981000  0.55293800  0.57613100  1
  C  C130  1  0.31479900  0.52469700  0.61656100  1
  C  C131  1  0.34489500  0.55651700  0.65199100  1
  C  C132  1  0.35225200  0.53108500  0.69770400  1
  C  C133  1  0.71019000  0.55293800  0.42386900  1
  C  C134  1  0.68520100  0.52469700  0.38343900  1
  C  C135  1  0.65510500  0.55651700  0.34800900  1
  C  C136  1  0.64774800  0.53108500  0.30229600  1
  O  O1  1  0.98674500  0.95572300  0.06679300  1
  O  O2  1  0.01325500  0.95572300  0.93320700  1
  O  O3  1  0.48674500  0.45572300  0.56679300  1
  O  O4  1  0.51325500  0.45572300  0.43320700  1
  O  O5  1  0.02159700  0.03212800  0.06555100  1
  O  O6  1  0.97840300  0.03212800  0.93444900  1
  O  O7  1  0.52159700  0.53212800  0.56555100  1
  O  O8  1  0.47840300  0.53212800  0.43444900  1
  O  O9  1  0.09024400  0.95573000  0.00982200  1
  O  O10  1  0.90975600  0.95573000  0.99017800  1
  O  O11  1  0.59024400  0.45573000  0.50982200  1
  O  O12  1  0.40975600  0.45573000  0.49017800  1
  O  O13  1  0.08860200  0.03209600  0.98402000  1
  O  O14  1  0.91139800  0.03209600  0.01598000  1
  O  O15  1  0.58860200  0.53209600  0.48402000  1
  O  O16  1  0.41139800  0.53209600  0.51598000  1
  O  O17  1  0.50304800  0.06117300  0.95999100  1
  O  O18  1  0.49695200  0.06117300  0.04000900  1
  O  O19  1  0.00304800  0.56117300  0.45999100  1
  O  O20  1  0.99695200  0.56117300  0.54000900  1
  O  O21  1  0.40980800  0.99169900  0.95905700  1
  O  O22  1  0.59019200  0.99169900  0.04094300  1
  O  O23  1  0.59230700  0.99254400  0.96083500  1
  O  O24  1  0.40769300  0.99254400  0.03916500  1
  O  O25  1  0.90980800  0.49169900  0.45905700  1
  O  O26  1  0.09019200  0.49169900  0.54094300  1
  O  O27  1  0.09230700  0.49254400  0.46083500  1
  O  O28  1  0.90769300  0.49254400  0.53916500  1
  O  O29  1  0.50413200  0.92654200  0.95995100  1
  O  O30  1  0.49586800  0.92654200  0.04004900  1
  O  O31  1  0.00413200  0.42654200  0.45995100  1
  O  O32  1  0.99586800  0.42654200  0.54004900  1
  O  O33  1  0.05403600  0.06122800  0.50363500  1
  O  O34  1  0.94596400  0.06122800  0.49636500  1
  O  O35  1  0.55403600  0.56122800  0.00363500  1
  O  O36  1  0.44596400  0.56122800  0.99636500  1
  O  O37  1  0.05765600  0.99559400  0.43428100  1
  O  O38  1  0.94234400  0.99559400  0.56571900  1
  O  O39  1  0.94950700  0.99567800  0.43072200  1
  O  O40  1  0.05049300  0.99567800  0.56927800  1
  O  O41  1  0.55765600  0.49559400  0.93428100  1
  O  O42  1  0.44234400  0.49559400  0.06571900  1
  O  O43  1  0.44950700  0.49567800  0.93072200  1
  O  O44  1  0.55049300  0.49567800  0.06927800  1
  O  O45  1  0.05389700  0.92659200  0.50371200  1
  O  O46  1  0.94610300  0.92659200  0.49628800  1
  O  O47  1  0.55389700  0.42659200  0.00371200  1
  O  O48  1  0.44610300  0.42659200  0.99628800  1
