# generated using pymatgen
data_Cu3H27C51O29
_symmetry_space_group_name_H-M   'P 1'
_cell_length_a   27.14540400
_cell_length_b   27.51841500
_cell_length_c   27.16382700
_cell_angle_alpha   109.74816600
_cell_angle_beta   110.62958000
_cell_angle_gamma   108.29735900
_symmetry_Int_Tables_number   1
_chemical_formula_structural   Cu3H27C51O29
_chemical_formula_sum   'Cu6 H54 C102 O58'
_cell_volume   15564.75882542
_cell_formula_units_Z   2
loop_
 _symmetry_equiv_pos_site_id
 _symmetry_equiv_pos_as_xyz
  1  'x, y, z'
loop_
 _atom_site_type_symbol
 _atom_site_label
 _atom_site_symmetry_multiplicity
 _atom_site_fract_x
 _atom_site_fract_y
 _atom_site_fract_z
 _atom_site_occupancy
  Cu  Cu1  1  0.01155300  0.04165700  0.54611200  1
  Cu  Cu2  1  0.01266000  0.95982200  0.45978600  1
  Cu  Cu3  1  0.44344300  0.95464500  0.97107400  1
  Cu  Cu4  1  0.52776900  0.04540600  0.98056900  1
  Cu  Cu5  1  0.55371700  0.49747500  0.54148800  1
  Cu  Cu6  1  0.46732500  0.50275200  0.46100100  1
  H  H1  1  0.24401200  0.25202800  0.40963200  1
  H  H2  1  0.66854000  0.74901500  0.48706400  1
  H  H3  1  0.60677100  0.85159900  0.83403900  1
  H  H4  1  0.05553300  0.09723600  0.30192700  1
  H  H5  1  0.08389600  0.05198600  0.26894700  1
  H  H6  1  0.08698100  0.11353200  0.25702200  1
  H  H7  1  0.78928700  0.57546700  0.52644300  1
  H  H8  1  0.75437200  0.57925500  0.57245100  1
  H  H9  1  0.83588600  0.61992800  0.60873900  1
  H  H10  1  0.72185700  0.92966200  0.50539100  1
  H  H11  1  0.77957900  0.93972900  0.48499200  1
  H  H12  1  0.80037800  0.98281400  0.56331500  1
  H  H13  1  0.72863800  0.77800500  0.80944600  1
  H  H14  1  0.76684400  0.85704200  0.86167900  1
  H  H15  1  0.75470400  0.82975500  0.78535900  1
  H  H16  1  0.32069300  0.54199200  0.57352900  1
  H  H17  1  0.29084400  0.59137600  0.56736400  1
  H  H18  1  0.27738300  0.55477500  0.60927300  1
  H  H19  1  0.30757600  0.75157500  0.70364400  1
  H  H20  1  0.30027000  0.77163200  0.64544000  1
  H  H21  1  0.33978500  0.82892200  0.72462900  1
  H  H22  1  0.47030800  0.26150800  0.04475100  1
  H  H23  1  0.43138800  0.30405100  0.05054300  1
  H  H24  1  0.38904800  0.22523000  0.99608600  1
  H  H25  1  0.49171800  0.43162300  0.22801700  1
  H  H26  1  0.45387800  0.44225500  0.27066000  1
  H  H27  1  0.41166700  0.40731900  0.18838000  1
  H  H28  1  0.45807000  0.22475700  0.41884700  1
  H  H29  1  0.49012600  0.17794200  0.39862600  1
  H  H30  1  0.41063600  0.14487100  0.37447800  1
  H  H31  1  0.47919900  0.05158100  0.23824500  1
  H  H32  1  0.43154100  0.00363200  0.15634700  1
  H  H33  1  0.39880800  0.00502200  0.20422200  1
  H  H34  1  0.45895300  0.42067100  0.71428600  1
  H  H35  1  0.41758700  0.42371300  0.75397100  1
  H  H36  1  0.43373200  0.47498200  0.72664200  1
  H  H37  1  0.29045500  0.25353300  0.70699500  1
  H  H38  1  0.21033500  0.22313500  0.67962600  1
  H  H39  1  0.26068800  0.30248500  0.72794400  1
  H  H40  1  0.73112100  0.80585300  0.25802100  1
  H  H41  1  0.68212700  0.77541300  0.17731600  1
  H  H42  1  0.65002800  0.77306900  0.22526100  1
  H  H43  1  0.56189100  0.80315200  0.04744300  1
  H  H44  1  0.51203500  0.83453700  0.04283000  1
  H  H45  1  0.51506700  0.79158200  0.08068000  1
  H  H46  1  0.73391500  0.19865100  0.25827300  1
  H  H47  1  0.81403100  0.22696900  0.30580400  1
  H  H48  1  0.76851400  0.23362400  0.34030400  1
  H  H49  1  0.94319400  0.19849300  0.42534800  1
  H  H50  1  0.94884100  0.16913300  0.47635500  1
  H  H51  1  0.91236400  0.21401300  0.47436300  1
  H  H52  1  0.96410900  0.75016500  0.52543700  1
  H  H53  1  0.95845100  0.77063200  0.46772700  1
  H  H54  1  0.92837000  0.69329400  0.44678400  1
  C  C1  1  0.09242600  0.08239600  0.50485400  1
  C  C2  1  0.09653800  0.00067700  0.58573600  1
  C  C3  1  0.93242200  0.91911700  0.50167000  1
  C  C4  1  0.92767000  0.00077200  0.42018500  1
  C  C5  1  0.14406300  0.00039000  0.63255700  1
  C  C6  1  0.18367300  0.00009200  0.67168600  1
  C  C7  1  0.23025500  0.99971500  0.71780900  1
  C  C8  1  0.26976500  0.99940600  0.75703200  1
  C  C9  1  0.31623900  0.99909700  0.80333300  1
  C  C10  1  0.35563700  0.99893000  0.84280700  1
  C  C11  1  0.25065400  0.25258200  0.45147800  1
  C  C12  1  0.30282700  0.29771200  0.50522200  1
  C  C13  1  0.31177500  0.30209800  0.55999500  1
  C  C14  1  0.26826100  0.26044400  0.56123800  1
  C  C15  1  0.21637700  0.21409300  0.50683600  1
  C  C16  1  0.20765700  0.20976100  0.45203400  1
  C  C17  1  0.34762000  0.34159700  0.50449500  1
  C  C18  1  0.17274200  0.16725400  0.50572700  1
  C  C19  1  0.13609800  0.12826300  0.50511100  1
  C  C20  1  0.38539400  0.37858400  0.50411300  1
  C  C21  1  0.69543900  0.94777600  0.19504300  1
  C  C22  1  0.69960600  0.00050400  0.19783700  1
  C  C23  1  0.74891400  0.05366900  0.24745600  1
  C  C24  1  0.79458300  0.05485700  0.29337800  1
  C  C25  1  0.79146000  0.00207500  0.28945800  1
  C  C26  1  0.74146600  0.94895100  0.24058000  1
  C  C27  1  0.65397600  0.00118700  0.14945700  1
  C  C28  1  0.83982000  0.00122700  0.33491300  1
  C  C29  1  0.87986900  0.00083000  0.37345700  1
  C  C30  1  0.61532600  0.00142300  0.10933700  1
  C  C31  1  0.77283800  0.70446200  0.50944300  1
  C  C32  1  0.71984300  0.70511500  0.50143200  1
  C  C33  1  0.70993200  0.74859400  0.49318400  1
  C  C34  1  0.75300700  0.79224300  0.49396700  1
  C  C35  1  0.80506400  0.79049200  0.49973800  1
  C  C36  1  0.81433200  0.74583000  0.50636600  1
  C  C37  1  0.67380000  0.65984800  0.49962400  1
  C  C38  1  0.84978800  0.83544500  0.49979700  1
  C  C39  1  0.88744300  0.87347200  0.50036200  1
  C  C40  1  0.63561400  0.62211600  0.49884000  1
  C  C41  1  0.49471000  0.92736100  0.89615400  1
  C  C42  1  0.40269200  0.99891600  0.89037300  1
  C  C43  1  0.47552200  0.07259900  0.05444100  1
  C  C44  1  0.56848700  0.00115300  0.06129200  1
  C  C45  1  0.50187800  0.41731000  0.41381100  1
  C  C46  1  0.43038300  0.42248500  0.50359500  1
  C  C47  1  0.51888300  0.58273600  0.58862800  1
  C  C48  1  0.59062200  0.57771100  0.49883100  1
  C  C49  1  0.57174800  0.76639700  0.75788800  1
  C  C50  1  0.51961700  0.71473500  0.71131100  1
  C  C51  1  0.46339200  0.70792800  0.69831100  1
  C  C52  1  0.45889700  0.75486200  0.73167500  1
  C  C53  1  0.51114600  0.80593900  0.78022300  1
  C  C54  1  0.56726700  0.81184900  0.79399600  1
  C  C55  1  0.52307200  0.66832400  0.67231800  1
  C  C56  1  0.50718300  0.85096800  0.82059600  1
  C  C57  1  0.50214800  0.88698600  0.85486400  1
  C  C58  1  0.52291000  0.62901000  0.63592400  1
  C  C59  1  0.46652600  0.28198500  0.21980700  1
  C  C60  1  0.47229300  0.27878100  0.27105800  1
  C  C61  1  0.46893800  0.22953100  0.27502600  1
  C  C62  1  0.46317400  0.18332000  0.22843400  1
  C  C63  1  0.46115100  0.18814300  0.17882200  1
  C  C64  1  0.46126300  0.23602300  0.17345000  1
  C  C65  1  0.48500300  0.32795800  0.32265600  1
  C  C66  1  0.46542500  0.14674400  0.13485500  1
  C  C67  1  0.46989500  0.11261200  0.09805100  1
  C  C68  1  0.49416500  0.36918500  0.36520300  1
  C  C69  1  0.15151100  0.13764500  0.34589200  1
  C  C70  1  0.09058700  0.09753200  0.28985300  1
  C  C71  1  0.78879300  0.65651800  0.56606900  1
  C  C72  1  0.79233500  0.60446900  0.56860800  1
  C  C73  1  0.77685800  0.89217100  0.53258500  1
  C  C74  1  0.76915900  0.93910000  0.52082700  1
  C  C75  1  0.67625900  0.82016900  0.79122200  1
  C  C76  1  0.73540400  0.82133200  0.81334800  1
  C  C77  1  0.36689200  0.62610700  0.65413200  1
  C  C78  1  0.31032700  0.57530200  0.59745000  1
  C  C79  1  0.38790700  0.78638600  0.70075500  1
  C  C80  1  0.33017800  0.78451100  0.69310400  1
  C  C81  1  0.42025900  0.24821200  0.08879500  1
  C  C82  1  0.42824800  0.26053300  0.04203800  1
  C  C83  1  0.43503500  0.35340600  0.22209700  1
  C  C84  1  0.44894600  0.41243200  0.22763200  1
  C  C85  1  0.43505000  0.18518800  0.32602000  1
  C  C86  1  0.44937800  0.18304700  0.38315100  1
  C  C87  1  0.42335600  0.08045100  0.19308200  1
  C  C88  1  0.43387900  0.03205300  0.19830200  1
  C  C89  1  0.36453600  0.38625600  0.65798400  1
  C  C90  1  0.42240800  0.42916200  0.71700700  1
  C  C91  1  0.24154000  0.26650800  0.63634900  1
  C  C92  1  0.25138100  0.26108000  0.69125900  1
  C  C93  1  0.69374600  0.85807300  0.23549000  1
  C  C94  1  0.68894500  0.79933700  0.22324200  1
  C  C95  1  0.59096800  0.87832700  0.13021200  1
  C  C96  1  0.54182700  0.82336900  0.07153300  1
  C  C97  1  0.75610900  0.14675300  0.29591500  1
  C  C98  1  0.76895800  0.20524900  0.30036100  1
  C  C99  1  0.86117700  0.12609100  0.39828900  1
  C  C100  1  0.92017200  0.18042500  0.44670600  1
  C  C101  1  0.87621200  0.73232600  0.46645900  1
  C  C102  1  0.93558100  0.73687300  0.47727900  1
  O  O1  1  0.07070200  0.09795300  0.53989500  1
  O  O2  1  0.07160800  0.02719100  0.46508800  1
  O  O3  1  0.07347100  0.03423500  0.60250300  1
  O  O4  1  0.07796200  0.96722400  0.52808200  1
  O  O5  1  0.94921600  0.97430100  0.53748600  1
  O  O6  1  0.95032400  0.90351400  0.46288400  1
  O  O7  1  0.94633500  0.03443800  0.47790000  1
  O  O8  1  0.95062300  0.96704700  0.40328300  1
  O  O9  1  0.45784700  0.90539900  0.91297900  1
  O  O10  1  0.53085000  0.98398100  0.92120900  1
  O  O11  1  0.38699900  0.95837800  0.90556600  1
  O  O12  1  0.45936300  0.03983300  0.91718000  1
  O  O13  1  0.44355800  0.01609500  0.03372800  1
  O  O14  1  0.51658400  0.09473300  0.04199400  1
  O  O15  1  0.51177200  0.96014000  0.03447100  1
  O  O16  1  0.58430400  0.04176200  0.04610800  1
  O  O17  1  0.53965100  0.43322300  0.46952700  1
  O  O18  1  0.46843300  0.44122000  0.39972700  1
  O  O19  1  0.48737000  0.44090100  0.53996700  1
  O  O20  1  0.41234800  0.44183300  0.46647200  1
  O  O21  1  0.55272500  0.55913300  0.60286400  1
  O  O22  1  0.48128600  0.56681500  0.53294300  1
  O  O23  1  0.60866600  0.55829000  0.53588400  1
  O  O24  1  0.53366000  0.55942800  0.46260300  1
  O  O25  1  0.15607500  0.16441000  0.40038100  1
  O  O26  1  0.19625800  0.14227000  0.34258100  1
  O  O27  1  0.78348600  0.66225200  0.51732000  1
  O  O28  1  0.79209100  0.69443400  0.60864400  1
  O  O29  1  0.74284500  0.83505700  0.48720400  1
  O  O30  1  0.81323000  0.90538800  0.58339300  1
  O  O31  1  0.62549000  0.76976900  0.76846100  1
  O  O32  1  0.67372000  0.86311300  0.78960500  1
  O  O33  1  0.41411200  0.65662900  0.65061500  1
  O  O34  1  0.37133400  0.63780700  0.70351300  1
  O  O35  1  0.40423600  0.75042800  0.71751800  1
  O  O36  1  0.41947200  0.81936100  0.69047800  1
  O  O37  1  0.46070900  0.23877000  0.12468400  1
  O  O38  1  0.37567700  0.24379600  0.09234800  1
  O  O39  1  0.47232100  0.33154800  0.21746000  1
  O  O40  1  0.38902500  0.32422400  0.21971900  1
  O  O41  1  0.47532200  0.22934200  0.32643000  1
  O  O42  1  0.38582200  0.14886300  0.28003000  1
  O  O43  1  0.46607300  0.13753900  0.23470600  1
  O  O44  1  0.37540900  0.06835700  0.15256100  1
  O  O45  1  0.36371000  0.34656000  0.61153500  1
  O  O46  1  0.31880200  0.38904300  0.65098000  1
  O  O47  1  0.27886400  0.26307400  0.61471600  1
  O  O48  1  0.20119800  0.27612700  0.61248300  1
  O  O49  1  0.73906800  0.89813400  0.23686000  1
  O  O50  1  0.65836800  0.87068900  0.24694400  1
  O  O51  1  0.64922700  0.89502400  0.14642100  1
  O  O52  1  0.57845400  0.90678600  0.16436100  1
  O  O53  1  0.75288600  0.10441400  0.24953300  1
  O  O54  1  0.74588500  0.13646900  0.33260300  1
  O  O55  1  0.84356400  0.10746200  0.33911800  1
  O  O56  1  0.82808800  0.09992200  0.41224500  1
  O  O57  1  0.86474900  0.74338900  0.51234600  1
  O  O58  1  0.83774800  0.71754300  0.41590400  1
