# generated using pymatgen
data_Fe2H19C46ClO16
_symmetry_space_group_name_H-M   'P 1'
_cell_length_a   13.16689800
_cell_length_b   11.80043000
_cell_length_c   13.47553000
_cell_angle_alpha   91.03882000
_cell_angle_beta   100.30387800
_cell_angle_gamma   110.69191600
_symmetry_Int_Tables_number   1
_chemical_formula_structural   Fe2H19C46ClO16
_chemical_formula_sum   'Fe2 H19 C46 Cl1 O16'
_cell_volume   1919.57420650
_cell_formula_units_Z   1
loop_
 _symmetry_equiv_pos_site_id
 _symmetry_equiv_pos_as_xyz
  1  'x, y, z'
loop_
 _atom_site_type_symbol
 _atom_site_label
 _atom_site_symmetry_multiplicity
 _atom_site_fract_x
 _atom_site_fract_y
 _atom_site_fract_z
 _atom_site_occupancy
  Fe  Fe1  1  0.50413100  0.02843900  0.21662300  1
  Fe  Fe2  1  0.51479600  0.01640000  0.80467700  1
  H  H1  1  0.09181700  0.94887000  0.75786200  1
  H  H2  1  0.90534300  0.92765900  0.74988900  1
  H  H3  1  0.76033000  0.93991300  0.82862600  1
  H  H4  1  0.25818800  0.10445700  0.19242700  1
  H  H5  1  0.11305000  0.11583900  0.27136600  1
  H  H6  1  0.92632500  0.09344900  0.26360800  1
  H  H7  1  0.53801900  0.45163900  0.77057200  1
  H  H8  1  0.49997700  0.39239300  0.26602200  1
  H  H9  1  0.37938000  0.49099300  0.31544600  1
  H  H10  1  0.47370700  0.12578200  0.52324500  1
  H  H11  1  0.53458400  0.91539300  0.49671400  1
  H  H12  1  0.64775400  0.54014600  0.71185600  1
  H  H13  1  0.56533300  0.66804100  0.75608400  1
  H  H14  1  0.61997800  0.50974800  0.34051900  1
  H  H15  1  0.48133800  0.58844100  0.25235800  1
  H  H16  1  0.31293000  0.45645300  0.57094900  1
  H  H17  1  0.10283200  0.44505300  0.77842400  1
  H  H18  1  0.26343200  0.57103200  0.90653700  1
  H  H19  1  0.44911600  0.64015200  0.86835500  1
  C  C1  1  0.21697800  0.99726000  0.89291700  1
  C  C2  1  0.11136000  0.97457500  0.83831900  1
  C  C3  1  0.02898000  0.98263900  0.88546700  1
  C  C4  1  0.92398300  0.95635500  0.82981100  1
  C  C5  1  0.84134100  0.96529200  0.87543300  1
  C  C6  1  0.23846600  0.02864900  0.99715100  1
  C  C7  1  0.15570400  0.04070700  0.04351900  1
  C  C8  1  0.05074400  0.01663400  0.98758600  1
  C  C9  1  0.96765400  0.02682400  0.03367200  1
  C  C10  1  0.86275200  0.00301200  0.97771000  1
  C  C11  1  0.78003100  0.01504500  0.02415300  1
  C  C12  1  0.17713000  0.07866600  0.14572800  1
  C  C13  1  0.09441500  0.08716000  0.19144000  1
  C  C14  1  0.98937000  0.06057400  0.13583700  1
  C  C15  1  0.90689800  0.06810800  0.18309300  1
  C  C16  1  0.80134400  0.04558200  0.12848900  1
  C  C17  1  0.71509200  0.05128400  0.18380100  1
  C  C18  1  0.51319000  0.81770000  0.31732300  1
  C  C19  1  0.34651600  0.04782100  0.06034700  1
  C  C20  1  0.47888600  0.18732700  0.34456100  1
  C  C21  1  0.53912100  0.85749800  0.67613100  1
  C  C22  1  0.67211100  0.99648100  0.96101400  1
  C  C23  1  0.50270900  0.22464100  0.70317800  1
  C  C24  1  0.30312900  0.99101900  0.83765500  1
  C  C25  1  0.48840700  0.22175200  0.52244300  1
  C  C26  1  0.50082900  0.28943300  0.61106200  1
  C  C27  1  0.51593200  0.41200700  0.60791400  1
  C  C28  1  0.55639600  0.49723300  0.70174900  1
  C  C29  1  0.51006400  0.59790400  0.69510800  1
  C  C30  1  0.49870100  0.27292200  0.43246400  1
  C  C31  1  0.51294400  0.39485300  0.42851700  1
  C  C32  1  0.51421600  0.46150400  0.51526700  1
  C  C33  1  0.51461500  0.58578400  0.50926300  1
  C  C34  1  0.51432200  0.65240300  0.59570700  1
  C  C35  1  0.51912000  0.77114900  0.58886800  1
  C  C36  1  0.53030000  0.45745000  0.33442900  1
  C  C37  1  0.46906100  0.54431400  0.32290500  1
  C  C38  1  0.50619700  0.63228900  0.41511500  1
  C  C39  1  0.51530400  0.75327600  0.40995300  1
  C  C40  1  0.52438000  0.82055900  0.49786100  1
  C  C41  1  0.39508600  0.55414900  0.71675700  1
  C  C42  1  0.30414000  0.48274900  0.64508100  1
  C  C43  1  0.19958800  0.44391300  0.66735500  1
  C  C44  1  0.18485300  0.47565400  0.76111500  1
  C  C45  1  0.27484000  0.54629200  0.83282300  1
  C  C46  1  0.37949300  0.58537500  0.81083900  1
  Cl  Cl1  1  0.08523900  0.35397300  0.57611800  1
  O  O1  1  0.61925300  0.05061200  0.13458200  1
  O  O2  1  0.56410100  0.80264400  0.24572900  1
  O  O3  1  0.73258300  0.05172700  0.28281200  1
  O  O4  1  0.47861900  0.90916600  0.31953400  1
  O  O5  1  0.35727100  0.96478800  0.12053400  1
  O  O6  1  0.42708900  0.15399500  0.06789200  1
  O  O7  1  0.55532900  0.19369500  0.29141100  1
  O  O8  1  0.39402600  0.08489600  0.33616500  1
  O  O9  1  0.46307600  0.85110400  0.72973500  1
  O  O10  1  0.62399300  0.95984300  0.68402900  1
  O  O11  1  0.66183800  0.07954000  0.90066700  1
  O  O12  1  0.59096900  0.89083800  0.95392000  1
  O  O13  1  0.28476800  0.98788900  0.73847600  1
  O  O14  1  0.54048200  0.13571400  0.70183400  1
  O  O15  1  0.39987200  0.99446400  0.88701500  1
  O  O16  1  0.44940200  0.23710900  0.77360100  1
