# generated using pymatgen
data_CuH11C20NO7
_symmetry_space_group_name_H-M   'P 1'
_cell_length_a   13.01727200
_cell_length_b   14.44097800
_cell_length_c   17.34937700
_cell_angle_alpha   90.00000000
_cell_angle_beta   86.55889000
_cell_angle_gamma   90.00000000
_symmetry_Int_Tables_number   1
_chemical_formula_structural   CuH11C20NO7
_chemical_formula_sum   'Cu2 H22 C40 N2 O14'
_cell_volume   3255.49279574
_cell_formula_units_Z   2
loop_
 _symmetry_equiv_pos_site_id
 _symmetry_equiv_pos_as_xyz
  1  'x, y, z'
loop_
 _atom_site_type_symbol
 _atom_site_label
 _atom_site_symmetry_multiplicity
 _atom_site_fract_x
 _atom_site_fract_y
 _atom_site_fract_z
 _atom_site_occupancy
  Cu  Cu1  1  0.39730000  0.47302200  0.49957200  1
  Cu  Cu2  1  0.60269700  0.47302200  0.50042500  1
  H  H1  1  0.61710800  0.48936000  0.99000000  1
  H  H2  1  0.38288900  0.48935800  0.00999800  1
  H  H3  1  0.40938500  0.38685800  0.11174000  1
  H  H4  1  0.59061100  0.38685900  0.88825800  1
  H  H5  1  0.50501100  0.28231500  0.68594900  1
  H  H6  1  0.60564300  0.21310200  0.72393700  1
  H  H7  1  0.63257200  0.27980500  0.63729900  1
  H  H8  1  0.49498600  0.28231400  0.31404900  1
  H  H9  1  0.39435500  0.21310100  0.27606100  1
  H  H10  1  0.36742500  0.27980400  0.36269900  1
  H  H11  1  0.79579300  0.51038500  0.23271900  1
  H  H12  1  0.79980800  0.56108100  0.32768000  1
  H  H13  1  0.81777800  0.63365600  0.24295100  1
  H  H14  1  0.20420400  0.51038500  0.76727800  1
  H  H15  1  0.20018900  0.56108000  0.67231800  1
  H  H16  1  0.18221900  0.63365500  0.75704600  1
  H  H17  1  0.41884400  0.71107800  0.86504900  1
  H  H18  1  0.34627600  0.71799000  0.95714300  1
  H  H19  1  0.28184700  0.73414200  0.86847700  1
  H  H20  1  0.58115300  0.71107800  0.13494800  1
  H  H21  1  0.65372100  0.71799000  0.04285500  1
  H  H22  1  0.71815000  0.73414200  0.13152100  1
  C  C1  1  0.49999900  0.65074200  0.49999900  1
  C  C2  1  0.49999900  0.29531900  0.49999900  1
  C  C3  1  0.48671500  0.47296900  0.64871900  1
  C  C4  1  0.51328100  0.47296900  0.35127800  1
  C  C5  1  0.47871200  0.47457000  0.73396100  1
  C  C6  1  0.52128500  0.47457000  0.26603600  1
  C  C7  1  0.54571800  0.42320500  0.77678100  1
  C  C8  1  0.45427900  0.42320500  0.22321600  1
  C  C9  1  0.53963700  0.42916900  0.85619000  1
  C  C10  1  0.46036000  0.42916900  0.14380700  1
  C  C11  1  0.46546300  0.48279600  0.89472700  1
  C  C12  1  0.53453400  0.48279600  0.10527000  1
  C  C13  1  0.39690000  0.53219300  0.85287700  1
  C  C14  1  0.60309700  0.53219200  0.14712000  1
  C  C15  1  0.40431800  0.52945700  0.77282700  1
  C  C16  1  0.59567900  0.52945700  0.22717000  1
  C  C17  1  0.45794300  0.48516600  0.97974500  1
  C  C18  1  0.54205400  0.48516600  0.02025200  1
  C  C19  1  0.49999900  0.75010000  0.49999900  1
  C  C20  1  0.49999800  0.19596600  0.49999800  1
  C  C21  1  0.49999800  0.83354000  0.49999900  1
  C  C22  1  0.49999800  0.11253500  0.49999800  1
  C  C23  1  0.49999800  0.93131500  0.49999900  1
  C  C24  1  0.49999800  0.01475900  0.49999800  1
  C  C25  1  0.84518200  0.47297400  0.50079500  1
  C  C26  1  0.15481500  0.47297400  0.49920200  1
  C  C27  1  0.95369000  0.47297900  0.50025900  1
  C  C28  1  0.04630700  0.47297900  0.49973800  1
  C  C29  1  0.62159100  0.35821200  0.74162400  1
  C  C30  1  0.58875600  0.27871400  0.69400000  1
  C  C31  1  0.37840700  0.35821200  0.25837300  1
  C  C32  1  0.41124100  0.27871400  0.30599700  1
  C  C33  1  0.66310700  0.58968900  0.27006400  1
  C  C34  1  0.77629100  0.57263000  0.26805400  1
  C  C35  1  0.33689000  0.58968900  0.72993300  1
  C  C36  1  0.22370600  0.57262900  0.73194400  1
  C  C37  1  0.32269000  0.59456400  0.89307900  1
  C  C38  1  0.34375500  0.69591200  0.89606800  1
  C  C39  1  0.67730700  0.59456400  0.10691800  1
  C  C40  1  0.65624300  0.69591200  0.10392900  1
  N  N1  1  0.75628500  0.47297500  0.50107200  1
  N  N2  1  0.24371200  0.47297500  0.49892500  1
  O  O1  1  0.41150300  0.60757500  0.50263800  1
  O  O2  1  0.58860200  0.33844500  0.49786400  1
  O  O3  1  0.58849400  0.60757500  0.49735900  1
  O  O4  1  0.41139500  0.33844500  0.50213300  1
  O  O5  1  0.40182400  0.46974000  0.61183400  1
  O  O6  1  0.59817300  0.46974000  0.38816300  1
  O  O7  1  0.57811700  0.47052800  0.61260400  1
  O  O8  1  0.42188000  0.47052800  0.38739300  1
  O  O9  1  0.71052700  0.36188700  0.75981200  1
  O  O10  1  0.28947000  0.36188600  0.24018500  1
  O  O11  1  0.62609300  0.65258700  0.30957600  1
  O  O12  1  0.37390400  0.65258800  0.69042100  1
  O  O13  1  0.24409300  0.56351300  0.92504600  1
  O  O14  1  0.75590300  0.56351300  0.07495100  1
