# generated using pymatgen
data_Cu3H20C48(NO4)3
_symmetry_space_group_name_H-M   'P 1'
_cell_length_a   18.58729400
_cell_length_b   18.62740300
_cell_length_c   18.68831100
_cell_angle_alpha   109.34047900
_cell_angle_beta   109.87058600
_cell_angle_gamma   109.01632900
_symmetry_Int_Tables_number   1
_chemical_formula_structural   Cu3H20C48(NO4)3
_chemical_formula_sum   'Cu6 H40 C96 N6 O24'
_cell_volume   4992.20615606
_cell_formula_units_Z   2
loop_
 _symmetry_equiv_pos_site_id
 _symmetry_equiv_pos_as_xyz
  1  'x, y, z'
loop_
 _atom_site_type_symbol
 _atom_site_label
 _atom_site_symmetry_multiplicity
 _atom_site_fract_x
 _atom_site_fract_y
 _atom_site_fract_z
 _atom_site_occupancy
  Cu  Cu1  1  0.50037900  0.43822900  0.43919900  1
  Cu  Cu2  1  0.49836000  0.55856700  0.55926400  1
  Cu  Cu3  1  0.94311300  0.44082100  0.00556600  1
  Cu  Cu4  1  0.06460100  0.56035900  0.00494600  1
  Cu  Cu5  1  0.06177800  0.99945600  0.56228200  1
  Cu  Cu6  1  0.93924400  0.00113500  0.44219300  1
  H  H1  1  0.38584800  0.63942600  0.33600700  1
  H  H2  1  0.29867900  0.52523000  0.15263500  1
  H  H3  1  0.27993600  0.38380100  0.18333600  1
  H  H4  1  0.11669300  0.35805600  0.16859300  1
  H  H5  1  0.20385000  0.47240200  0.35165500  1
  H  H6  1  0.84671900  0.54602200  0.50638600  1
  H  H7  1  0.54873000  0.71221900  0.48875200  1
  H  H8  1  0.53964100  0.83913400  0.49425000  1
  H  H9  1  0.65973100  0.95911800  0.50828700  1
  H  H10  1  0.78730400  0.95056100  0.51411400  1
  H  H11  1  0.94030400  0.77581700  0.49099300  1
  H  H12  1  0.95416100  0.65357300  0.49506100  1
  H  H13  1  0.72434900  0.55967500  0.51098300  1
  H  H14  1  0.54365400  0.20217500  0.55182900  1
  H  H15  1  0.72384300  0.66166200  0.71256100  1
  H  H16  1  0.84600500  0.79694500  0.83809800  1
  H  H17  1  0.95503200  0.79766600  0.95806800  1
  H  H18  1  0.94281200  0.66309500  0.95103300  1
  H  H19  1  0.79058400  0.33780000  0.78143600  1
  H  H20  1  0.66386500  0.20264200  0.66050000  1
  H  H21  1  0.55164200  0.33684800  0.56322100  1
  H  H22  1  0.15269600  0.15750800  0.20155900  1
  H  H23  1  0.45148200  0.43639000  0.66180900  1
  H  H24  1  0.21444600  0.22426700  0.66431800  1
  H  H25  1  0.05955900  0.04990500  0.33869100  1
  H  H26  1  0.27543000  0.28369700  0.33609300  1
  H  H27  1  0.70358400  0.53585300  0.05657200  1
  H  H28  1  0.16771600  0.72754900  0.21822200  1
  H  H29  1  0.29979700  0.86201300  0.33042200  1
  H  H30  1  0.29598400  0.97894300  0.43633300  1
  H  H31  1  0.15975500  0.95994400  0.43015300  1
  H  H32  1  0.83878400  0.77166600  0.29556300  1
  H  H33  1  0.70378200  0.64329600  0.17582900  1
  H  H34  1  0.83833700  0.55569300  0.05866900  1
  H  H35  1  0.99398700  0.44085200  0.78378300  1
  H  H36  1  0.99846900  0.45548300  0.66255000  1
  H  H37  1  0.01265900  0.22476300  0.56585800  1
  H  H38  1  0.99120300  0.04885000  0.71611500  1
  H  H39  1  0.99693400  0.03921100  0.84254100  1
  H  H40  1  0.01451100  0.28550700  0.95504000  1
  C  C1  1  0.61696400  0.61642500  0.49984300  1
  C  C2  1  0.38098100  0.49788700  0.38052500  1
  C  C3  1  0.38204700  0.38041500  0.49893200  1
  C  C4  1  0.61821900  0.49910200  0.61815500  1
  C  C5  1  0.32445000  0.57530600  0.29701800  1
  C  C6  1  0.23650500  0.55990700  0.28937800  1
  C  C7  1  0.19080700  0.49939400  0.19258400  1
  C  C8  1  0.27789700  0.51334900  0.19854100  1
  C  C9  1  0.26625900  0.43600400  0.21400100  1
  C  C10  1  0.17819100  0.42202400  0.20704300  1
  C  C11  1  0.22454300  0.48364200  0.30547200  1
  C  C12  1  0.31147400  0.49783900  0.31120700  1
  C  C13  1  0.60362600  0.76280000  0.49515500  1
  C  C14  1  0.59721600  0.83490700  0.49756200  1
  C  C15  1  0.66418900  0.90181700  0.50507700  1
  C  C16  1  0.73664400  0.89570900  0.50763200  1
  C  C17  1  0.74319500  0.82211900  0.50285800  1
  C  C18  1  0.67750500  0.75646500  0.49989700  1
  C  C19  1  0.81501300  0.81439200  0.50206400  1
  C  C20  1  0.82180900  0.74166200  0.50045300  1
  C  C21  1  0.75831000  0.67815800  0.50189500  1
  C  C22  1  0.68540600  0.68482100  0.50050700  1
  C  C23  1  0.89122100  0.73094300  0.49624400  1
  C  C24  1  0.89962400  0.66079300  0.49783700  1
  C  C25  1  0.83940200  0.60051400  0.50386100  1
  C  C26  1  0.76917000  0.60880300  0.50576400  1
  C  C27  1  0.76940400  0.65779300  0.76322300  1
  C  C28  1  0.83945600  0.73585100  0.83453400  1
  C  C29  1  0.90055200  0.73625200  0.90146700  1
  C  C30  1  0.89303700  0.65857600  0.89628700  1
  C  C31  1  0.82363800  0.57889300  0.82366900  1
  C  C32  1  0.75956800  0.57852900  0.75783400  1
  C  C33  1  0.81741000  0.50018600  0.81714700  1
  C  C34  1  0.74586000  0.42115000  0.74534100  1
  C  C35  1  0.67992900  0.42083200  0.68140500  1
  C  C36  1  0.68707900  0.49950400  0.68699600  1
  C  C37  1  0.73985600  0.34179700  0.73602900  1
  C  C38  1  0.66786600  0.26379000  0.66666667  1
  C  C39  1  0.60080800  0.26352500  0.60575300  1
  C  C40  1  0.60656500  0.34124400  0.61275600  1
  C  C41  1  0.39692100  0.38821200  0.65817600  1
  C  C42  1  0.40395400  0.39685900  0.73656100  1
  C  C43  1  0.33738000  0.33767200  0.73725700  1
  C  C44  1  0.26475300  0.26828100  0.65957400  1
  C  C45  1  0.25763200  0.25718100  0.57960700  1
  C  C46  1  0.32292300  0.31953300  0.57888600  1
  C  C47  1  0.18558500  0.18516800  0.50097900  1
  C  C48  1  0.17833900  0.17677200  0.42159100  1
  C  C49  1  0.24162500  0.24121100  0.42085900  1
  C  C50  1  0.31452500  0.31236500  0.49952100  1
  C  C51  1  0.10864700  0.10369400  0.34231500  1
  C  C52  1  0.09997900  0.09677700  0.26393800  1
  C  C53  1  0.16016700  0.16243600  0.26321600  1
  C  C54  1  0.23055800  0.23413900  0.34087300  1
  C  C55  1  0.00323400  0.61915000  0.12112300  1
  C  C56  1  0.12150300  0.50063400  0.12411700  1
  C  C57  1  0.00402100  0.38229900  0.88877400  1
  C  C58  1  0.88592800  0.50047200  0.88623400  1
  C  C59  1  0.99973800  0.88321300  0.38345700  1
  C  C60  1  0.88314800  0.88256500  0.50219800  1
  C  C61  1  0.00131600  0.11736000  0.62116900  1
  C  C62  1  0.11775400  0.11771700  0.50185300  1
  C  C63  1  0.16119700  0.77678200  0.26152700  1
  C  C64  1  0.23785200  0.85331000  0.32634100  1
  C  C65  1  0.23579100  0.91848300  0.38576700  1
  C  C66  1  0.15730300  0.90648800  0.38177800  1
  C  C67  1  0.07923600  0.82896300  0.31738800  1
  C  C68  1  0.08062000  0.76437000  0.25486200  1
  C  C69  1  0.00033700  0.81621300  0.31511900  1
  C  C70  1  0.92212900  0.74024000  0.24812900  1
  C  C71  1  0.92270800  0.67713000  0.18331500  1
  C  C72  1  0.00223600  0.68793800  0.18768700  1
  C  C73  1  0.84282800  0.72641000  0.24546300  1
  C  C74  1  0.76502400  0.65297400  0.17745300  1
  C  C75  1  0.76496100  0.59276600  0.11096900  1
  C  C76  1  0.84293200  0.60450500  0.11355700  1
  C  C77  1  0.99877500  0.39162700  0.73843100  1
  C  C78  1  0.00068100  0.40051600  0.66887700  1
  C  C79  1  0.00630600  0.34021000  0.60807200  1
  C  C80  1  0.00764000  0.26957100  0.61532900  1
  C  C81  1  0.00354000  0.25836100  0.68413900  1
  C  C82  1  0.00223000  0.32165800  0.74803200  1
  C  C83  1  0.00195300  0.18533500  0.68995500  1
  C  C84  1  0.00137300  0.17701300  0.76114500  1
  C  C85  1  0.00404400  0.24226600  0.82703700  1
  C  C86  1  0.00337200  0.31419300  0.82008900  1
  C  C87  1  0.99712100  0.10327700  0.76686700  1
  C  C88  1  0.99969200  0.09659100  0.83866800  1
  C  C89  1  0.00663500  0.16302600  0.90573700  1
  C  C90  1  0.00859300  0.23530100  0.90015000  1
  C  C91  1  0.21855700  0.62778800  0.33217200  1
  C  C92  1  0.48073100  0.46831800  0.81760300  1
  C  C93  1  0.34379300  0.34749200  0.81901900  1
  C  C94  1  0.02743700  0.02113800  0.18282400  1
  C  C95  1  0.01107600  0.15680000  0.98147400  1
  C  C96  1  0.00998600  0.35034300  0.53634600  1
  N  N1  1  0.20442300  0.68124300  0.36673400  1
  N  N2  1  0.54266600  0.52592900  0.88291400  1
  N  N3  1  0.34890000  0.35535500  0.88490800  1
  N  N4  1  0.96896200  0.96014900  0.11740800  1
  N  N5  1  0.01466300  0.15177500  0.04253800  1
  N  N6  1  0.01295800  0.35851000  0.47850800  1
  O  O1  1  0.57171500  0.53626800  0.43199100  1
  O  O2  1  0.60370000  0.63808500  0.56718700  1
  O  O3  1  0.39428400  0.43033100  0.35888000  1
  O  O4  1  0.42580100  0.56554600  0.46065100  1
  O  O5  1  0.42872500  0.35885100  0.46500600  1
  O  O6  1  0.39332300  0.46040200  0.53276000  1
  O  O7  1  0.60620500  0.46476000  0.53804000  1
  O  O8  1  0.57123800  0.53297000  0.63933600  1
  O  O9  1  0.96969500  0.53935300  0.11034900  1
  O  O10  1  0.03730800  0.64003500  0.07461500  1
  O  O11  1  0.04123800  0.43273900  0.07793100  1
  O  O12  1  0.14375500  0.56858000  0.11161200  1
  O  O13  1  0.93553000  0.36101500  0.90068600  1
  O  O14  1  0.07285200  0.46199900  0.93520600  1
  O  O15  1  0.86387600  0.46748700  0.93307700  1
  O  O16  1  0.96650600  0.53351800  0.89840600  1
  O  O17  1  0.03515300  0.89481300  0.46357200  1
  O  O18  1  0.96455700  0.92937900  0.36199500  1
  O  O19  1  0.96414500  0.92755100  0.56973300  1
  O  O20  1  0.86035300  0.89592300  0.43470500  1
  O  O21  1  0.06951400  0.10437500  0.64246200  1
  O  O22  1  0.93284600  0.07259600  0.54094300  1
  O  O23  1  0.14043400  0.07159300  0.53623400  1
  O  O24  1  0.03709600  0.10606000  0.46819400  1
