# generated using pymatgen
data_Fe2H16C53N4O29
_symmetry_space_group_name_H-M   'P 1'
_cell_length_a   9.56495400
_cell_length_b   16.78835500
_cell_length_c   19.35487900
_cell_angle_alpha   103.13844000
_cell_angle_beta   85.56687900
_cell_angle_gamma   76.32559400
_symmetry_Int_Tables_number   1
_chemical_formula_structural   Fe2H16C53N4O29
_chemical_formula_sum   'Fe2 H16 C53 N4 O29'
_cell_volume   2912.52265601
_cell_formula_units_Z   1
loop_
 _symmetry_equiv_pos_site_id
 _symmetry_equiv_pos_as_xyz
  1  'x, y, z'
loop_
 _atom_site_type_symbol
 _atom_site_label
 _atom_site_symmetry_multiplicity
 _atom_site_fract_x
 _atom_site_fract_y
 _atom_site_fract_z
 _atom_site_occupancy
  Fe  Fe1  1  0.48731900  0.99347100  0.36364700  1
  Fe  Fe2  1  0.50660800  0.99169700  0.63483100  1
  H  H1  1  0.08658200  0.87872600  0.91152400  1
  H  H2  1  0.15007600  0.26814900  0.45852900  1
  H  H3  1  0.23512600  0.43985700  0.63782300  1
  H  H4  1  0.89767000  0.00096400  0.60742300  1
  H  H5  1  0.72351400  0.01028800  0.11121800  1
  H  H6  1  0.50939200  0.28231900  0.69574600  1
  H  H7  1  0.80381100  0.50012400  0.29592200  1
  H  H8  1  0.76808200  0.61296400  0.23985900  1
  H  H9  1  0.80486300  0.67955100  0.60271300  1
  H  H10  1  0.25057300  0.01226600  0.89842800  1
  H  H11  1  0.62269000  0.00715200  0.85158500  1
  H  H12  1  0.12127400  0.85771400  0.09878500  1
  H  H13  1  0.76856700  0.21241400  0.10182400  1
  H  H14  1  0.87505700  0.22566700  0.99589100  1
  H  H15  1  0.35749400  0.00875800  0.15314600  1
  H  H16  1  0.08672000  0.98140900  0.39121000  1
  C  C1  1  0.10148000  0.00733500  0.74291900  1
  C  C2  1  0.09964400  0.01391600  0.81607800  1
  C  C3  1  0.98187700  0.00217100  0.85538400  1
  C  C4  1  0.86037800  0.99024600  0.82365700  1
  C  C5  1  0.85880500  0.98832000  0.75180900  1
  C  C6  1  0.98110100  0.99277900  0.71086000  1
  C  C7  1  0.04332100  0.93702100  0.95272300  1
  C  C8  1  0.04974500  0.93868200  0.02392800  1
  C  C9  1  0.99286900  0.01430200  0.07563000  1
  C  C10  1  0.93054500  0.08807100  0.05563800  1
  C  C11  1  0.92610700  0.08595100  0.98345500  1
  C  C12  1  0.98211900  0.00941400  0.93222900  1
  C  C13  1  0.12075500  0.02383600  0.18228600  1
  C  C14  1  0.12594500  0.01932200  0.25254900  1
  C  C15  1  0.00646900  0.01113400  0.29271600  1
  C  C16  1  0.88406800  0.99932800  0.26143400  1
  C  C17  1  0.88193800  0.99960000  0.18942600  1
  C  C18  1  0.99677500  0.01578900  0.15144300  1
  C  C19  1  0.75956400  0.98745900  0.30511900  1
  C  C20  1  0.62090200  0.83048800  0.37014900  1
  C  C21  1  0.25513900  0.02720000  0.28675500  1
  C  C22  1  0.32594000  0.13160100  0.47229600  1
  C  C23  1  0.28783100  0.21282700  0.52532300  1
  C  C24  1  0.19695300  0.27978900  0.50770200  1
  C  C25  1  0.17552200  0.36118900  0.54868400  1
  C  C26  1  0.24739600  0.37550100  0.60748500  1
  C  C27  1  0.33382700  0.30841100  0.62800000  1
  C  C28  1  0.35033300  0.22523400  0.58829100  1
  C  C29  1  0.92830900  0.55838700  0.47935000  1
  C  C30  1  0.08547500  0.43182000  0.52619400  1
  C  C31  1  0.81421200  0.61178500  0.38151500  1
  C  C32  1  0.73177700  0.67665400  0.35667400  1
  C  C33  1  0.68768700  0.75914400  0.40015900  1
  C  C34  1  0.71702500  0.77439800  0.47079300  1
  C  C35  1  0.79321500  0.70854100  0.49648300  1
  C  C36  1  0.84437400  0.62739800  0.45178300  1
  C  C37  1  0.73215700  0.97450700  0.71721200  1
  C  C38  1  0.66449400  0.85902500  0.52028500  1
  C  C39  1  0.22854700  0.01545300  0.69893900  1
  C  C40  1  0.41468100  0.15216400  0.61741300  1
  C  C41  1  0.98724100  0.97256600  0.63236600  1
  C  C42  1  0.76555200  0.97678800  0.15004800  1
  C  C43  1  0.41418200  0.32810600  0.68882600  1
  C  C44  1  0.87143600  0.52712800  0.33197200  1
  C  C45  1  0.69092500  0.65648900  0.28412000  1
  C  C46  1  0.81725500  0.72464600  0.57202700  1
  C  C47  1  0.21663700  0.03832500  0.85424200  1
  C  C48  1  0.72935800  0.98508000  0.86634400  1
  C  C49  1  0.11559700  0.85964400  0.04352400  1
  C  C50  1  0.86334300  0.16781400  0.11076300  1
  C  C51  1  0.87041600  0.16554200  0.96213200  1
  C  C52  1  0.24967500  0.03240700  0.14029300  1
  C  C53  1  0.00699300  0.02370700  0.37025800  1
  N  N1  1  0.11324200  0.50834200  0.54149100  1
  N  N2  1  0.03617200  0.57067700  0.51798500  1
  N  N3  1  0.89931700  0.48209100  0.46512500  1
  N  N4  1  0.97768300  0.41943700  0.48774400  1
  O  O1  1  0.62677100  0.00781000  0.28937400  1
  O  O2  1  0.65907200  0.82809100  0.30292300  1
  O  O3  1  0.77964500  0.95814100  0.36188900  1
  O  O4  1  0.53530700  0.90051700  0.41207600  1
  O  O5  1  0.31873000  0.96736100  0.31598000  1
  O  O6  1  0.30676000  0.09337600  0.28858500  1
  O  O7  1  0.45943400  0.10210900  0.43894900  1
  O  O8  1  0.22460800  0.09489600  0.45124500  1
  O  O9  1  0.66524600  0.02967400  0.68429500  1
  O  O10  1  0.68398100  0.90817400  0.72013300  1
  O  O11  1  0.54936700  0.87556800  0.56811800  1
  O  O12  1  0.73416400  0.91715700  0.51792200  1
  O  O13  1  0.40387700  0.16234700  0.68707200  1
  O  O14  1  0.36198200  0.98320400  0.70990500  1
  O  O15  1  0.45953600  0.07441100  0.57614900  1
  O  O16  1  0.20886100  0.05218600  0.64616200  1
  O  O17  1  0.09175500  0.92038100  0.59430900  1
  O  O18  1  0.72356300  0.91524200  0.15618900  1
  O  O19  1  0.37924400  0.39837400  0.73015900  1
  O  O20  1  0.99825000  0.48848600  0.32785500  1
  O  O21  1  0.56693400  0.68502000  0.27375200  1
  O  O22  1  0.86146900  0.78521800  0.59940200  1
  O  O23  1  0.26972800  0.09299800  0.84015000  1
  O  O24  1  0.73817300  0.95367900  0.91731400  1
  O  O25  1  0.16528500  0.79404700  0.99694200  1
  O  O26  1  0.91474500  0.18627100  0.16608600  1
  O  O27  1  0.81754800  0.16578500  0.90684700  1
  O  O28  1  0.23780300  0.06843900  0.09216500  1
  O  O29  1  0.91647300  0.08200200  0.41180900  1
