# generated using pymatgen
data_Zn2H25C52Br(N3O4)2
_symmetry_space_group_name_H-M   'P 1'
_cell_length_a   13.40138600
_cell_length_b   13.40987500
_cell_length_c   16.21012800
_cell_angle_alpha   94.76973400
_cell_angle_beta   90.04657300
_cell_angle_gamma   90.61411100
_symmetry_Int_Tables_number   1
_chemical_formula_structural   Zn2H25C52Br(N3O4)2
_chemical_formula_sum   'Zn2 H25 C52 Br1 N6 O8'
_cell_volume   2902.87745672
_cell_formula_units_Z   1
loop_
 _symmetry_equiv_pos_site_id
 _symmetry_equiv_pos_as_xyz
  1  'x, y, z'
loop_
 _atom_site_type_symbol
 _atom_site_label
 _atom_site_symmetry_multiplicity
 _atom_site_fract_x
 _atom_site_fract_y
 _atom_site_fract_z
 _atom_site_occupancy
  Zn  Zn1  1  0.51037800  0.88803700  0.48809000  1
  Zn  Zn2  1  0.49248200  0.11034800  0.50771600  1
  H  H1  1  0.69089100  0.11209200  0.01761700  1
  H  H2  1  0.00657700  0.02932000  0.71976200  1
  H  H3  1  0.31230500  0.88819300  0.97829200  1
  H  H4  1  0.99573100  0.96892400  0.27586700  1
  H  H5  1  0.96488800  0.07474400  0.95419100  1
  H  H6  1  0.03804500  0.92485800  0.04144100  1
  H  H7  1  0.40131500  0.92398000  0.09650400  1
  H  H8  1  0.17117200  0.00795700  0.33130500  1
  H  H9  1  0.83501800  0.96405100  0.33391100  1
  H  H10  1  0.55736400  0.09679700  0.27532800  1
  H  H11  1  0.61548100  0.12570000  0.13812000  1
  H  H12  1  0.60149400  0.07509300  0.89992100  1
  H  H13  1  0.83082400  0.98994800  0.66480300  1
  H  H14  1  0.16721500  0.03413300  0.66141000  1
  H  H15  1  0.44509100  0.90186900  0.72007200  1
  H  H16  1  0.38739600  0.87387100  0.85758400  1
  H  H17  1  0.46526600  0.94913900  0.23737500  1
  H  H18  1  0.53704000  0.04919900  0.75930200  1
  H  H19  1  0.33830800  0.24715500  0.49831600  1
  H  H20  1  0.66250200  0.74486000  0.50730200  1
  H  H21  1  0.74034500  0.59674700  0.53425000  1
  H  H22  1  0.73854400  0.42523000  0.55109900  1
  H  H23  1  0.33364700  0.42291700  0.48744000  1
  H  H24  1  0.34058900  0.57431900  0.46428300  1
  H  H25  1  0.35579000  0.74992300  0.45607100  1
  C  C1  1  0.82134900  0.02261600  0.21421800  1
  C  C2  1  0.75960400  0.06256500  0.15943700  1
  C  C3  1  0.80998100  0.06468200  0.08593500  1
  C  C4  1  0.91145900  0.00701600  0.17445000  1
  C  C5  1  0.76743200  0.08814800  0.01536800  1
  C  C6  1  0.80903900  0.06609300  0.93211300  1
  C  C7  1  0.75289300  0.04945600  0.86085000  1
  C  C8  1  0.81654600  0.02753200  0.79661500  1
  C  C9  1  0.91224100  0.03264400  0.83066600  1
  C  C10  1  0.00697900  0.02012200  0.78548000  1
  C  C11  1  0.09118300  0.99193400  0.82123000  1
  C  C12  1  0.18125300  0.97631100  0.78138200  1
  C  C13  1  0.24319800  0.93681100  0.83627500  1
  C  C14  1  0.19296800  0.93495700  0.90988500  1
  C  C15  1  0.23565700  0.91181500  0.98052400  1
  C  C16  1  0.19385700  0.93334700  0.06381200  1
  C  C17  1  0.24979100  0.94946500  0.13526600  1
  C  C18  1  0.18593300  0.97099400  0.19943900  1
  C  C19  1  0.09036000  0.96614200  0.16517300  1
  C  C20  1  0.99551300  0.97847500  0.21020800  1
  C  C21  1  0.35075200  0.94364600  0.14691200  1
  C  C22  1  0.38683500  0.95953100  0.22654700  1
  C  C23  1  0.32467100  0.98654400  0.29303100  1
  C  C24  1  0.22150300  0.99154600  0.28002700  1
  C  C25  1  0.78809100  0.99965600  0.29104800  1
  C  C26  1  0.69030200  0.02366000  0.31087700  1
  C  C27  1  0.63176600  0.07375200  0.25738500  1
  C  C28  1  0.66440100  0.09068800  0.17976500  1
  C  C29  1  0.65188100  0.05513600  0.84945200  1
  C  C30  1  0.61550300  0.03880000  0.76995800  1
  C  C31  1  0.67745200  0.01144900  0.70341600  1
  C  C32  1  0.78067400  0.00652300  0.71618000  1
  C  C33  1  0.21429400  0.99882100  0.70434400  1
  C  C34  1  0.31204700  0.97471600  0.68440300  1
  C  C35  1  0.37072300  0.92498700  0.73804700  1
  C  C36  1  0.33834500  0.90859500  0.81586200  1
  C  C37  1  0.37286300  0.99467700  0.37535300  1
  C  C38  1  0.64422200  0.00729700  0.38945700  1
  C  C39  1  0.62917000  0.00337800  0.62115900  1
  C  C40  1  0.35814200  0.99078200  0.60572500  1
  C  C41  1  0.58016900  0.29680100  0.52541200  1
  C  C42  1  0.40725400  0.28950500  0.50539900  1
  C  C43  1  0.40550600  0.39156800  0.49835200  1
  C  C44  1  0.49286900  0.44887800  0.50465400  1
  C  C45  1  0.58022700  0.40035800  0.52181700  1
  C  C46  1  0.41375500  0.60687600  0.47409900  1
  C  C47  1  0.49636800  0.55223500  0.49429700  1
  C  C48  1  0.58610800  0.60406400  0.50431600  1
  C  C49  1  0.67075300  0.55588500  0.52481300  1
  C  C50  1  0.66850200  0.45553500  0.53350800  1
  C  C51  1  0.42237100  0.70857500  0.46755100  1
  C  C52  1  0.59226300  0.70563800  0.49648200  1
  Br  Br1  1  0.70862300  0.23491100  0.53410000  1
  N  N1  1  0.90381800  0.03117100  0.09500300  1
  N  N2  1  0.90629600  0.05740500  0.91319600  1
  N  N3  1  0.09903100  0.96818800  0.90077900  1
  N  N4  1  0.09654500  0.94192000  0.08258400  1
  N  N5  1  0.49347200  0.24207500  0.51720100  1
  N  N6  1  0.51072700  0.75677400  0.47872900  1
  O  O1  1  0.39612200  0.08361200  0.41228900  1
  O  O2  1  0.41113600  0.91178800  0.39855300  1
  O  O3  1  0.61747200  0.91631200  0.40553400  1
  O  O4  1  0.60352600  0.08700200  0.42537600  1
  O  O5  1  0.60587300  0.91506300  0.58405200  1
  O  O6  1  0.58956300  0.08544700  0.59850400  1
  O  O7  1  0.38434900  0.08233400  0.58947200  1
  O  O8  1  0.39870400  0.91034700  0.57000600  1
