# generated using pymatgen
data_FeH9C23N2O9
_symmetry_space_group_name_H-M   'P 1'
_cell_length_a   15.67350100
_cell_length_b   14.63892700
_cell_length_c   11.16538800
_cell_angle_alpha   94.44003400
_cell_angle_beta   87.97939000
_cell_angle_gamma   107.78578800
_symmetry_Int_Tables_number   1
_chemical_formula_structural   FeH9C23N2O9
_chemical_formula_sum   'Fe2 H18 C46 N4 O18'
_cell_volume   2431.87818675
_cell_formula_units_Z   2
loop_
 _symmetry_equiv_pos_site_id
 _symmetry_equiv_pos_as_xyz
  1  'x, y, z'
loop_
 _atom_site_type_symbol
 _atom_site_label
 _atom_site_symmetry_multiplicity
 _atom_site_fract_x
 _atom_site_fract_y
 _atom_site_fract_z
 _atom_site_occupancy
  Fe  Fe1  1  0.52162400  0.99861600  0.22103500  1
  Fe  Fe2  1  0.51768400  0.00941500  0.68417300  1
  H  H1  1  0.94097300  0.04702400  0.77897700  1
  H  H2  1  0.18902000  0.00455000  0.76940100  1
  H  H3  1  0.04537000  0.99682400  0.81584700  1
  H  H4  1  0.79938300  0.04800800  0.72064800  1
  H  H5  1  0.24742600  0.97144300  0.18944600  1
  H  H6  1  0.93618400  0.96990800  0.28956400  1
  H  H7  1  0.79732700  0.97689900  0.23077600  1
  H  H8  1  0.44134800  0.62457100  0.23516000  1
  H  H9  1  0.56105300  0.70041000  0.64302700  1
  H  H10  1  0.56453200  0.54585000  0.65320300  1
  H  H11  1  0.44793100  0.29039000  0.26269200  1
  H  H12  1  0.28899900  0.39494300  0.29366700  1
  H  H13  1  0.31207200  0.37643300  0.91702700  1
  H  H14  1  0.54496800  0.49118600  0.12278600  1
  H  H15  1  0.66164000  0.33431200  0.78911900  1
  H  H16  1  0.70679300  0.44694100  0.74545000  1
  H  H17  1  0.14726100  0.01640900  0.43453600  1
  H  H18  1  0.11922200  0.09498800  0.35261000  1
  C  C1  1  0.88838600  0.02670900  0.84508300  1
  C  C2  1  0.28715000  0.99950600  0.89466100  1
  C  C3  1  0.20247700  0.99815700  0.86207400  1
  C  C4  1  0.13464900  0.99103400  0.94660800  1
  C  C5  1  0.05256900  0.99422600  0.91066200  1
  C  C6  1  0.98326700  0.99194900  0.99305900  1
  C  C7  1  0.80666500  0.03076600  0.81134600  1
  C  C8  1  0.73407400  0.00756600  0.88795400  1
  C  C9  1  0.90067600  0.00077800  0.95886500  1
  C  C10  1  0.82978700  0.98743900  0.04135000  1
  C  C11  1  0.74482500  0.98764500  0.00520800  1
  C  C12  1  0.30241900  0.99070600  0.01504600  1
  C  C13  1  0.23267700  0.97830700  0.09761200  1
  C  C14  1  0.14897500  0.98112800  0.06480500  1
  C  C15  1  0.07949900  0.97391100  0.14803300  1
  C  C16  1  0.99690100  0.97944300  0.11198000  1
  C  C17  1  0.92841900  0.97550400  0.19505900  1
  C  C18  1  0.84625900  0.97838500  0.16023600  1
  C  C19  1  0.66752500  0.97039900  0.08985100  1
  C  C20  1  0.48164600  0.81065200  0.29937700  1
  C  C21  1  0.39175700  0.00371400  0.06291600  1
  C  C22  1  0.48000300  0.14960500  0.35234900  1
  C  C23  1  0.53681600  0.84818100  0.55607700  1
  C  C24  1  0.64667500  0.99910100  0.83827300  1
  C  C25  1  0.52024500  0.18668200  0.61212100  1
  C  C26  1  0.35640400  0.00694600  0.79948600  1
  C  C27  1  0.46677600  0.63976800  0.32531800  1
  C  C28  1  0.48691400  0.73373800  0.37524100  1
  C  C29  1  0.51847500  0.75368800  0.49237000  1
  C  C30  1  0.53489300  0.68284100  0.55302900  1
  C  C31  1  0.51757600  0.59076300  0.50159500  1
  C  C32  1  0.48197200  0.56770400  0.38842800  1
  C  C33  1  0.53560200  0.52242800  0.56579100  1
  C  C34  1  0.51760400  0.42817400  0.51867700  1
  C  C35  1  0.48280700  0.40417100  0.40429000  1
  C  C36  1  0.46371500  0.47340400  0.33960000  1
  C  C37  1  0.53500500  0.35844200  0.58427800  1
  C  C38  1  0.51745700  0.26417000  0.53529700  1
  C  C39  1  0.48977800  0.24318000  0.41646100  1
  C  C40  1  0.47057800  0.31169200  0.35368900  1
  C  C41  1  0.33028600  0.40640800  0.21327500  1
  C  C42  1  0.34333000  0.39627100  0.00391900  1
  C  C43  1  0.47301600  0.46009700  0.11806400  1
  C  C44  1  0.42182700  0.44618300  0.22172500  1
  C  C45  1  0.57780000  0.38554300  0.70227300  1
  C  C46  1  0.09355600  0.96148300  0.27438000  1
  N  N1  1  0.29240800  0.38205000  0.10452000  1
  N  N2  1  0.43292700  0.43503400  0.01079400  1
  N  N3  1  0.66535000  0.37828600  0.71861500  1
  N  N4  1  0.14863600  0.03970800  0.34824500  1
  O  O1  1  0.61449500  0.02521900  0.09258400  1
  O  O2  1  0.45570000  0.78876800  0.18754400  1
  O  O3  1  0.64980300  0.89866100  0.15957900  1
  O  O4  1  0.51384700  0.90161000  0.33849400  1
  O  O5  1  0.40244700  0.94496800  0.14044800  1
  O  O6  1  0.45593700  0.08420500  0.04777300  1
  O  O7  1  0.55190900  0.12702100  0.31418700  1
  O  O8  1  0.39991600  0.09212400  0.32505900  1
  O  O9  1  0.47033300  0.87895400  0.59776700  1
  O  O10  1  0.61995400  0.89950200  0.57801700  1
  O  O11  1  0.64210000  0.05212900  0.75046300  1
  O  O12  1  0.57615900  0.92786100  0.86551400  1
  O  O13  1  0.33919800  0.01978300  0.68892600  1
  O  O14  1  0.52819300  0.10504100  0.56409100  1
  O  O15  1  0.43417200  0.99704000  0.82341900  1
  O  O16  1  0.50453800  0.19438300  0.72811000  1
  O  O17  1  0.53823000  0.41267900  0.78691500  1
  O  O18  1  0.05731600  0.88456200  0.31679100  1
