# generated using pymatgen
data_Zn2H30C35N6O13
_symmetry_space_group_name_H-M   'P 1'
_cell_length_a   11.14029900
_cell_length_b   15.95978600
_cell_length_c   17.18489000
_cell_angle_alpha   89.12139100
_cell_angle_beta   89.99655700
_cell_angle_gamma   92.79463200
_symmetry_Int_Tables_number   1
_chemical_formula_structural   Zn2H30C35N6O13
_chemical_formula_sum   'Zn2 H30 C35 N6 O13'
_cell_volume   3051.42465961
_cell_formula_units_Z   1
loop_
 _symmetry_equiv_pos_site_id
 _symmetry_equiv_pos_as_xyz
  1  'x, y, z'
loop_
 _atom_site_type_symbol
 _atom_site_label
 _atom_site_symmetry_multiplicity
 _atom_site_fract_x
 _atom_site_fract_y
 _atom_site_fract_z
 _atom_site_occupancy
  Zn  Zn1  1  0.49073100  0.40711700  0.49800600  1
  Zn  Zn2  1  0.50384400  0.59756700  0.50544600  1
  H  H1  1  0.11723900  0.62953100  0.50524600  1
  H  H2  1  0.08687900  0.43746600  0.50214800  1
  H  H3  1  0.89610400  0.62986200  0.50793100  1
  H  H4  1  0.89823400  0.43831800  0.49619900  1
  H  H5  1  0.44122400  0.38979200  0.24642000  1
  H  H6  1  0.44542800  0.40017600  0.10667800  1
  H  H7  1  0.41676700  0.35915500  0.89141500  1
  H  H8  1  0.55972500  0.64770400  0.26216300  1
  H  H9  1  0.63130800  0.26824100  0.56672300  1
  H  H10  1  0.62287000  0.11670300  0.56153900  1
  H  H11  1  0.67861600  0.88279500  0.58209100  1
  H  H12  1  0.67033100  0.72942500  0.57705800  1
  H  H13  1  0.33387000  0.28049800  0.41723200  1
  H  H14  1  0.31971900  0.12717400  0.40883200  1
  H  H15  1  0.35373800  0.73109200  0.44466600  1
  H  H16  1  0.35484000  0.63454400  0.87401900  1
  H  H17  1  0.44350700  0.72942100  0.84949700  1
  H  H18  1  0.40566500  0.70426100  0.94971900  1
  H  H19  1  0.47757700  0.75966100  0.17498800  1
  H  H20  1  0.38877400  0.68892600  0.11345500  1
  H  H21  1  0.48007900  0.77410400  0.07077600  1
  H  H22  1  0.72434400  0.56391000  0.77133900  1
  H  H23  1  0.73548700  0.67429300  0.79426300  1
  H  H24  1  0.73963100  0.64124000  0.69405400  1
  H  H25  1  0.27044500  0.87706200  0.55559800  1
  H  H26  1  0.17673400  0.82790800  0.48120200  1
  H  H27  1  0.18374400  0.94066900  0.49127500  1
  H  H28  1  0.49975900  0.25156900  0.80538500  1
  H  H29  1  0.60223600  0.32636700  0.75541000  1
  H  H30  1  0.51710800  0.24799500  0.70127700  1
  C  C1  1  0.49800400  0.49280300  0.65454100  1
  C  C2  1  0.73215600  0.50270100  0.50096400  1
  C  C3  1  0.49708800  0.51205300  0.34948100  1
  C  C4  1  0.26237400  0.50168500  0.50239100  1
  C  C5  1  0.06874500  0.56904500  0.50407700  1
  C  C6  1  0.13072600  0.49920600  0.50279400  1
  C  C7  1  0.93565700  0.56934500  0.50441500  1
  C  C8  1  0.86341700  0.49997000  0.50032400  1
  C  C9  1  0.49605600  0.48877200  0.74080200  1
  C  C10  1  0.52900400  0.55963600  0.78366200  1
  C  C11  1  0.51392600  0.56018100  0.86366400  1
  C  C12  1  0.47715400  0.48636300  0.90340600  1
  C  C13  1  0.44820900  0.41576900  0.86089200  1
  C  C14  1  0.45708100  0.41600900  0.78072100  1
  C  C15  1  0.46947900  0.45599200  0.13913300  1
  C  C16  1  0.46775200  0.44941800  0.21937600  1
  C  C17  1  0.50337900  0.53195100  0.10302500  1
  C  C18  1  0.49872500  0.51824200  0.26425700  1
  C  C19  1  0.53237700  0.59365000  0.22819300  1
  C  C20  1  0.53426700  0.60056100  0.14812200  1
  C  C21  1  0.42484100  0.76516800  0.47533400  1
  C  C22  1  0.42444700  0.85163700  0.47817700  1
  C  C23  1  0.51841500  0.89568600  0.51599400  1
  C  C24  1  0.60564700  0.85029900  0.55176800  1
  C  C25  1  0.60114800  0.76396700  0.54881500  1
  C  C26  1  0.55692300  0.15016200  0.52890400  1
  C  C27  1  0.56241300  0.23666500  0.53212800  1
  C  C28  1  0.46866900  0.10977000  0.48434800  1
  C  C29  1  0.39689100  0.24358600  0.44897000  1
  C  C30  1  0.38899000  0.15744600  0.44408100  1
  C  C31  1  0.42981300  0.67775400  0.89296600  1
  C  C32  1  0.47457100  0.72668400  0.11862700  1
  C  C33  1  0.69955600  0.62743700  0.75217200  1
  C  C34  1  0.23608900  0.88341300  0.49533100  1
  C  C35  1  0.51487500  0.29021600  0.75176800  1
  N  N1  1  0.46862800  0.47886500  0.98581300  1
  N  N2  1  0.51041700  0.54120000  0.02105100  1
  N  N3  1  0.51165100  0.72279700  0.51056100  1
  N  N4  1  0.52940200  0.98453900  0.52060800  1
  N  N5  1  0.45710800  0.02140000  0.47874800  1
  N  N6  1  0.48251900  0.28183400  0.49292200  1
  O  O1  1  0.49260000  0.42291100  0.61484900  1
  O  O2  1  0.50243600  0.56697000  0.62026600  1
  O  O3  1  0.67098500  0.43059800  0.49820800  1
  O  O4  1  0.68139800  0.57515700  0.50413100  1
  O  O5  1  0.49135600  0.43744700  0.38303100  1
  O  O6  1  0.50253300  0.58197700  0.38871400  1
  O  O7  1  0.31345200  0.42962400  0.49965900  1
  O  O8  1  0.32338100  0.57403900  0.50482500  1
  O  O9  1  0.53564600  0.63470100  0.90094900  1
  O  O10  1  0.57175500  0.67493700  0.11318300  1
  O  O11  1  0.57462800  0.63134900  0.74751700  1
  O  O12  1  0.33168700  0.89054400  0.44258700  1
  O  O13  1  0.42148300  0.34479400  0.74185200  1
