# generated using pymatgen
data_Cu3H19C36BrO12
_symmetry_space_group_name_H-M   'P 1'
_cell_length_a   30.62781700
_cell_length_b   30.73820700
_cell_length_c   23.38545900
_cell_angle_alpha   90.00000000
_cell_angle_beta   130.90456100
_cell_angle_gamma   90.00000000
_symmetry_Int_Tables_number   1
_chemical_formula_structural   Cu3H19C36BrO12
_chemical_formula_sum   'Cu12 H76 C144 Br4 O48'
_cell_volume   16639.80123377
_cell_formula_units_Z   4
loop_
 _symmetry_equiv_pos_site_id
 _symmetry_equiv_pos_as_xyz
  1  'x, y, z'
loop_
 _atom_site_type_symbol
 _atom_site_label
 _atom_site_symmetry_multiplicity
 _atom_site_fract_x
 _atom_site_fract_y
 _atom_site_fract_z
 _atom_site_occupancy
  Cu  Cu1  1  0.77717100  0.71771300  0.49612200  1
  Cu  Cu2  1  0.22282900  0.71771300  0.50387800  1
  Cu  Cu3  1  0.27717100  0.21771300  0.49612200  1
  Cu  Cu4  1  0.72282900  0.21771300  0.50387800  1
  Cu  Cu5  1  0.71971700  0.77858100  0.50468300  1
  Cu  Cu6  1  0.28028300  0.77858100  0.49531700  1
  Cu  Cu7  1  0.21971700  0.27858100  0.50468300  1
  Cu  Cu8  1  0.78028300  0.27858100  0.49531700  1
  Cu  Cu9  1  0.46404400  0.49647600  0.42468300  1
  Cu  Cu10  1  0.53595600  0.49647600  0.57531700  1
  Cu  Cu11  1  0.96404400  0.99647700  0.42468300  1
  Cu  Cu12  1  0.03595600  0.99647700  0.57531700  1
  H  H1  1  0.46799800  0.81726200  0.87826800  1
  H  H2  1  0.53200200  0.81726200  0.12173200  1
  H  H3  1  0.96799800  0.31726200  0.87826800  1
  H  H4  1  0.03200200  0.31726200  0.12173200  1
  H  H5  1  0.34814100  0.68871100  0.73742000  1
  H  H6  1  0.65185900  0.68871100  0.26258000  1
  H  H7  1  0.84814100  0.18871100  0.73742000  1
  H  H8  1  0.15185900  0.18871100  0.26258000  1
  H  H9  1  0.41474700  0.68895600  0.87504300  1
  H  H10  1  0.58525300  0.68895600  0.12495700  1
  H  H11  1  0.91474700  0.18895600  0.87504300  1
  H  H12  1  0.08525300  0.18895600  0.12495700  1
  H  H13  1  0.84216200  0.88495600  0.57181200  1
  H  H14  1  0.15783800  0.88495600  0.42818800  1
  H  H15  1  0.34216200  0.38495600  0.57181200  1
  H  H16  1  0.65783800  0.38495600  0.42818800  1
  H  H17  1  0.89978800  0.94046700  0.57151900  1
  H  H18  1  0.10021200  0.94046700  0.42848100  1
  H  H19  1  0.39978800  0.44046700  0.57151900  1
  H  H20  1  0.60021200  0.44046700  0.42848100  1
  H  H21  1  0.86591200  0.85784000  0.34821600  1
  H  H22  1  0.13408800  0.85784000  0.65178400  1
  H  H23  1  0.36591200  0.35784000  0.34821600  1
  H  H24  1  0.63408800  0.35784000  0.65178400  1
  H  H25  1  0.93607700  0.83333300  0.43389400  1
  H  H26  1  0.06392300  0.83333300  0.56610600  1
  H  H27  1  0.43607700  0.33333333  0.43389400  1
  H  H28  1  0.56392300  0.33333333  0.56610600  1
  H  H29  1  0.81241100  0.80150500  0.35294800  1
  H  H30  1  0.18758900  0.80150500  0.64705200  1
  H  H31  1  0.31241100  0.30150500  0.35294800  1
  H  H32  1  0.68758900  0.30150500  0.64705200  1
  H  H33  1  0.88267100  0.77676200  0.43799300  1
  H  H34  1  0.11732900  0.77676200  0.56200800  1
  H  H35  1  0.38267100  0.27676200  0.43799300  1
  H  H36  1  0.61732900  0.27676200  0.56200800  1
  H  H37  1  0.01105600  0.69116300  0.12694500  1
  H  H38  1  0.98894400  0.69116300  0.87305500  1
  H  H39  1  0.51105600  0.19116300  0.12694500  1
  H  H40  1  0.48894400  0.19116300  0.87305500  1
  H  H41  1  0.07905500  0.69512600  0.26515400  1
  H  H42  1  0.92094500  0.69512600  0.73484600  1
  H  H43  1  0.57905500  0.19512600  0.26515400  1
  H  H44  1  0.42094500  0.19512600  0.73484600  1
  H  H45  1  0.17872800  0.78881500  0.25745400  1
  H  H46  1  0.82127200  0.78881500  0.74254600  1
  H  H47  1  0.67872800  0.28881500  0.25745400  1
  H  H48  1  0.32127200  0.28881500  0.74254600  1
  H  H49  1  0.11048600  0.78418500  0.12015100  1
  H  H50  1  0.88951400  0.78418500  0.87984900  1
  H  H51  1  0.61048600  0.28418500  0.12015100  1
  H  H52  1  0.38951400  0.28418500  0.87984900  1
  H  H53  1  0.65829000  0.68705300  0.58579400  1
  H  H54  1  0.34171000  0.68705300  0.41420600  1
  H  H55  1  0.15829000  0.18705300  0.58579400  1
  H  H56  1  0.84171000  0.18705300  0.41420600  1
  H  H57  1  0.60473300  0.62880200  0.58897800  1
  H  H58  1  0.39526700  0.62880200  0.41102200  1
  H  H59  1  0.10473300  0.12880200  0.58897800  1
  H  H60  1  0.89526700  0.12880200  0.41102200  1
  H  H61  1  0.62437400  0.52948500  0.42520700  1
  H  H62  1  0.37562600  0.52948500  0.57479300  1
  H  H63  1  0.12437400  0.02948500  0.42520700  1
  H  H64  1  0.87562600  0.02948500  0.57479300  1
  H  H65  1  0.55579000  0.55950000  0.34784000  1
  H  H66  1  0.44421000  0.55950000  0.65216000  1
  H  H67  1  0.05579000  0.05950000  0.34784000  1
  H  H68  1  0.94421000  0.05950000  0.65216000  1
  H  H69  1  0.68070500  0.58551600  0.42555200  1
  H  H70  1  0.31929500  0.58551600  0.57444800  1
  H  H71  1  0.18070500  0.08551600  0.42555200  1
  H  H72  1  0.81929500  0.08551600  0.57444800  1
  H  H73  1  0.61213100  0.61572000  0.34867500  1
  H  H74  1  0.38786900  0.61572000  0.65132500  1
  H  H75  1  0.11213100  0.11572000  0.34867500  1
  H  H76  1  0.88786900  0.11572000  0.65132500  1
  C  C1  1  0.80745900  0.80727200  0.50012800  1
  C  C2  1  0.19254100  0.80727200  0.49987200  1
  C  C3  1  0.30745900  0.30727200  0.50012800  1
  C  C4  1  0.69254100  0.30727200  0.49987200  1
  C  C5  1  0.67276100  0.75183900  0.35503500  1
  C  C6  1  0.32723900  0.75183900  0.64496500  1
  C  C7  1  0.17276100  0.25183900  0.35503500  1
  C  C8  1  0.82723900  0.25183900  0.64496500  1
  C  C9  1  0.69004200  0.68902800  0.50171100  1
  C  C10  1  0.30995800  0.68902700  0.49828900  1
  C  C11  1  0.19004200  0.18902800  0.50171200  1
  C  C12  1  0.80995800  0.18902800  0.49828900  1
  C  C13  1  0.82430800  0.74480600  0.64567100  1
  C  C14  1  0.17569200  0.74480600  0.35432900  1
  C  C15  1  0.32430800  0.24480600  0.64567100  1
  C  C16  1  0.67569200  0.24480600  0.35432900  1
  C  C17  1  0.44192100  0.78892600  0.84679700  1
  C  C18  1  0.55807900  0.78892600  0.15320300  1
  C  C19  1  0.94192100  0.28892600  0.84679700  1
  C  C20  1  0.05807900  0.28892600  0.15320300  1
  C  C21  1  0.40426200  0.78950700  0.76874100  1
  C  C22  1  0.59573800  0.78950700  0.23125900  1
  C  C23  1  0.90426200  0.28950700  0.76874100  1
  C  C24  1  0.09573800  0.28950700  0.23125900  1
  C  C25  1  0.36984100  0.75325700  0.72814500  1
  C  C26  1  0.63015900  0.75325700  0.27185500  1
  C  C27  1  0.86984100  0.25325700  0.72814500  1
  C  C28  1  0.13015900  0.25325700  0.27185500  1
  C  C29  1  0.37410100  0.71734400  0.76730700  1
  C  C30  1  0.62589900  0.71734400  0.23269300  1
  C  C31  1  0.87410100  0.21734400  0.76730700  1
  C  C32  1  0.12589900  0.21734400  0.23269300  1
  C  C33  1  0.41190000  0.71717600  0.84516900  1
  C  C34  1  0.58810000  0.71717600  0.15483100  1
  C  C35  1  0.91190000  0.21717600  0.84516900  1
  C  C36  1  0.08810000  0.21717600  0.15483100  1
  C  C37  1  0.44569700  0.75299300  0.88492900  1
  C  C38  1  0.55430300  0.75299300  0.11507100  1
  C  C39  1  0.94569700  0.25299300  0.88492900  1
  C  C40  1  0.05430300  0.25299300  0.11507100  1
  C  C41  1  0.48398800  0.75315000  0.96597200  1
  C  C42  1  0.51601200  0.75315000  0.03402800  1
  C  C43  1  0.98398800  0.25315000  0.96597200  1
  C  C44  1  0.01601200  0.25315000  0.03402800  1
  C  C45  1  0.85763000  0.83672600  0.45803100  1
  C  C46  1  0.14237000  0.83672600  0.54196900  1
  C  C47  1  0.35763000  0.33672600  0.45803100  1
  C  C48  1  0.64237000  0.33672600  0.54196900  1
  C  C49  1  0.83999100  0.84120800  0.49858000  1
  C  C50  1  0.16000900  0.84120800  0.50142000  1
  C  C51  1  0.33999000  0.34120800  0.49858000  1
  C  C52  1  0.66001000  0.34120800  0.50142000  1
  C  C53  1  0.85457600  0.87973000  0.53843800  1
  C  C54  1  0.14542400  0.87973000  0.46156200  1
  C  C55  1  0.35457600  0.37973000  0.53843800  1
  C  C56  1  0.64542400  0.37973000  0.46156200  1
  C  C57  1  0.88743500  0.91115800  0.53848800  1
  C  C58  1  0.11256500  0.91115800  0.46151200  1
  C  C59  1  0.38743500  0.41115800  0.53848900  1
  C  C60  1  0.61256500  0.41115800  0.46151200  1
  C  C61  1  0.90336100  0.90547700  0.49543500  1
  C  C62  1  0.09663900  0.90547700  0.50456500  1
  C  C63  1  0.40336100  0.40547700  0.49543500  1
  C  C64  1  0.59663900  0.40547700  0.50456500  1
  C  C65  1  0.88624800  0.86764900  0.45492900  1
  C  C66  1  0.11375200  0.86764900  0.54507100  1
  C  C67  1  0.38624800  0.36764900  0.45492900  1
  C  C68  1  0.61375200  0.36764900  0.54507100  1
  C  C69  1  0.89087200  0.84271100  0.40487000  1
  C  C70  1  0.10912800  0.84271100  0.59513000  1
  C  C71  1  0.39087200  0.34271100  0.40487000  1
  C  C72  1  0.60912800  0.34271100  0.59513000  1
  C  C73  1  0.85666700  0.80646500  0.40784000  1
  C  C74  1  0.14333300  0.80646500  0.59216000  1
  C  C75  1  0.35666700  0.30646500  0.40784000  1
  C  C76  1  0.64333300  0.30646500  0.59216000  1
  C  C77  1  0.04809200  0.71248000  0.15604700  1
  C  C78  1  0.95190800  0.71248000  0.84395400  1
  C  C79  1  0.54809200  0.21248000  0.15604700  1
  C  C80  1  0.45190800  0.21248000  0.84395400  1
  C  C81  1  0.08650900  0.71490100  0.23406800  1
  C  C82  1  0.91349000  0.71490100  0.76593200  1
  C  C83  1  0.58651000  0.21490100  0.23406800  1
  C  C84  1  0.41349100  0.21490100  0.76593200  1
  C  C85  1  0.13382800  0.74230900  0.27145700  1
  C  C86  1  0.86617200  0.74230900  0.72854300  1
  C  C87  1  0.63382800  0.24230900  0.27145700  1
  C  C88  1  0.36617200  0.24230900  0.72854300  1
  C  C89  1  0.14219500  0.76714500  0.22997000  1
  C  C90  1  0.85780500  0.76714500  0.77003000  1
  C  C91  1  0.64219500  0.26714500  0.22997000  1
  C  C92  1  0.35780500  0.26714500  0.77003000  1
  C  C93  1  0.10379700  0.76459700  0.15222400  1
  C  C94  1  0.89620300  0.76459700  0.84777600  1
  C  C95  1  0.60379700  0.26459700  0.15222400  1
  C  C96  1  0.39620300  0.26459700  0.84777600  1
  C  C97  1  0.05684300  0.73728500  0.11519700  1
  C  C98  1  0.94315700  0.73728500  0.88480300  1
  C  C99  1  0.55684300  0.23728500  0.11519700  1
  C  C100  1  0.44315700  0.23728500  0.88480300  1
  C  C101  1  0.01672500  0.73573000  0.03407700  1
  C  C102  1  0.98327500  0.73573000  0.96592400  1
  C  C103  1  0.51672500  0.23573000  0.03407700  1
  C  C104  1  0.48327500  0.23573000  0.96592400  1
  C  C105  1  0.63893100  0.61853800  0.46011200  1
  C  C106  1  0.36106900  0.61853800  0.53988800  1
  C  C107  1  0.13893000  0.11853700  0.46011200  1
  C  C108  1  0.86107000  0.11853700  0.53988800  1
  C  C109  1  0.65751200  0.65529500  0.50352600  1
  C  C110  1  0.34248800  0.65529600  0.49647400  1
  C  C111  1  0.15751300  0.15529600  0.50352600  1
  C  C112  1  0.84248700  0.15529600  0.49647400  1
  C  C113  1  0.64425100  0.65886900  0.54985900  1
  C  C114  1  0.35574900  0.65886900  0.45014100  1
  C  C115  1  0.14425100  0.15886900  0.54985900  1
  C  C116  1  0.85574900  0.15886900  0.45014100  1
  C  C117  1  0.61429900  0.62568900  0.55212900  1
  C  C118  1  0.38570100  0.62568900  0.44787100  1
  C  C119  1  0.11429900  0.12568900  0.55212900  1
  C  C120  1  0.88570100  0.12568900  0.44787100  1
  C  C121  1  0.59485000  0.58969000  0.50526400  1
  C  C122  1  0.40515000  0.58969000  0.49473600  1
  C  C123  1  0.09485000  0.08969000  0.50526400  1
  C  C124  1  0.90515000  0.08969000  0.49473600  1
  C  C125  1  0.60790700  0.58813000  0.45938700  1
  C  C126  1  0.39209300  0.58812900  0.54061300  1
  C  C127  1  0.10790700  0.08813000  0.45938700  1
  C  C128  1  0.89209300  0.08813000  0.54061300  1
  C  C129  1  0.60121600  0.56094900  0.40171500  1
  C  C130  1  0.39878400  0.56094900  0.59828600  1
  C  C131  1  0.10121600  0.06094900  0.40171500  1
  C  C132  1  0.89878400  0.06094900  0.59828500  1
  C  C133  1  0.63743500  0.59692900  0.40217800  1
  C  C134  1  0.36256500  0.59692900  0.59782200  1
  C  C135  1  0.13743500  0.09692900  0.40217800  1
  C  C136  1  0.86256500  0.09692900  0.59782200  1
  C  C137  1  0.43915100  0.55563600  0.49656400  1
  C  C138  1  0.56084900  0.55563600  0.50343600  1
  C  C139  1  0.93915100  0.05563600  0.49656400  1
  C  C140  1  0.06084900  0.05563600  0.50343600  1
  C  C141  1  0.93893400  0.93767800  0.49674000  1
  C  C142  1  0.06106600  0.93767800  0.50326000  1
  C  C143  1  0.43893400  0.43767800  0.49674000  1
  C  C144  1  0.56106600  0.43767800  0.50326000  1
  Br  Br1  1  0.39921400  0.84268900  0.72220200  1
  Br  Br2  1  0.60078600  0.84268900  0.27779800  1
  Br  Br3  1  0.89921400  0.34268900  0.72220200  1
  Br  Br4  1  0.10078600  0.34268900  0.27779800  1
  O  O1  1  0.81655300  0.76663100  0.49355600  1
  O  O2  1  0.18344700  0.76663100  0.50644400  1
  O  O3  1  0.31655300  0.26663100  0.49355600  1
  O  O4  1  0.68344700  0.26663100  0.50644500  1
  O  O5  1  0.76682400  0.81921400  0.50104500  1
  O  O6  1  0.23317600  0.81921400  0.49895500  1
  O  O7  1  0.26682400  0.31921400  0.50104500  1
  O  O8  1  0.73317600  0.31921400  0.49895500  1
  O  O9  1  0.71708400  0.72559600  0.38692100  1
  O  O10  1  0.28291600  0.72559600  0.61307900  1
  O  O11  1  0.21708400  0.22559600  0.38692100  1
  O  O12  1  0.78291600  0.22559600  0.61307900  1
  O  O13  1  0.66483300  0.77556900  0.39429100  1
  O  O14  1  0.33516700  0.77556900  0.60570900  1
  O  O15  1  0.16483300  0.27556900  0.39429100  1
  O  O16  1  0.83516700  0.27556900  0.60570900  1
  O  O17  1  0.72702400  0.67719000  0.49394200  1
  O  O18  1  0.27297600  0.67719000  0.50605800  1
  O  O19  1  0.22702400  0.17718900  0.49394200  1
  O  O20  1  0.77297600  0.17719000  0.50605800  1
  O  O21  1  0.67748800  0.72977500  0.50176900  1
  O  O22  1  0.32251200  0.72977500  0.49823100  1
  O  O23  1  0.17748800  0.22977500  0.50176900  1
  O  O24  1  0.82251200  0.22977500  0.49823100  1
  O  O25  1  0.83201300  0.72067600  0.60655800  1
  O  O26  1  0.16798700  0.72067600  0.39344200  1
  O  O27  1  0.33201300  0.22067600  0.60655800  1
  O  O28  1  0.66798700  0.22067600  0.39344200  1
  O  O29  1  0.77989300  0.77075900  0.61384200  1
  O  O30  1  0.22010700  0.77075900  0.38615800  1
  O  O31  1  0.27989300  0.27075900  0.61384200  1
  O  O32  1  0.72010700  0.27075900  0.38615800  1
  O  O33  1  0.42418600  0.54251800  0.43243300  1
  O  O34  1  0.57581400  0.54251800  0.56756700  1
  O  O35  1  0.92418600  0.04251800  0.43243300  1
  O  O36  1  0.07581400  0.04251800  0.56756700  1
  O  O37  1  0.48353900  0.53992500  0.56258400  1
  O  O38  1  0.51646100  0.53992500  0.43741600  1
  O  O39  1  0.98353900  0.03992500  0.56258400  1
  O  O40  1  0.01646100  0.03992500  0.43741700  1
  O  O41  1  0.92416800  0.95052100  0.43254900  1
  O  O42  1  0.07583200  0.95052100  0.56745100  1
  O  O43  1  0.42416800  0.45052100  0.43254900  1
  O  O44  1  0.57583300  0.45052100  0.56745100  1
  O  O45  1  0.98364400  0.95309600  0.56269400  1
  O  O46  1  0.01635600  0.95309600  0.43730600  1
  O  O47  1  0.48364400  0.45309600  0.56269400  1
  O  O48  1  0.51635600  0.45309600  0.43730600  1
