# generated using pymatgen
data_ZnH7C23N(O2F)2
_symmetry_space_group_name_H-M   'P 1'
_cell_length_a   8.56677300
_cell_length_b   13.43706500
_cell_length_c   17.51587500
_cell_angle_alpha   90.00000000
_cell_angle_beta   90.00000000
_cell_angle_gamma   90.00000000
_symmetry_Int_Tables_number   1
_chemical_formula_structural   ZnH7C23N(O2F)2
_chemical_formula_sum   'Zn2 H14 C46 N2 O8 F4'
_cell_volume   2016.29240626
_cell_formula_units_Z   2
loop_
 _symmetry_equiv_pos_site_id
 _symmetry_equiv_pos_as_xyz
  1  'x, y, z'
loop_
 _atom_site_type_symbol
 _atom_site_label
 _atom_site_symmetry_multiplicity
 _atom_site_fract_x
 _atom_site_fract_y
 _atom_site_fract_z
 _atom_site_occupancy
  Zn  Zn1  1  0.50000000  0.50715300  0.08623100  1
  Zn  Zn2  1  0.50000000  0.49284700  0.91376900  1
  H  H1  1  0.24948800  0.83685700  0.00439000  1
  H  H2  1  0.75051200  0.16314300  0.99561000  1
  H  H3  1  0.24948700  0.16314300  0.99561000  1
  H  H4  1  0.75051200  0.83685700  0.00439000  1
  H  H5  1  0.00000000  0.56813000  0.97057700  1
  H  H6  1  0.00000000  0.43187000  0.02942300  1
  H  H7  1  0.50000000  0.35609800  0.18951500  1
  H  H8  1  0.50000000  0.64390200  0.81048500  1
  H  H9  1  0.50000000  0.66803800  0.19528300  1
  H  H10  1  0.50000000  0.33196200  0.80471700  1
  H  H11  1  0.50000000  0.16600800  0.42287000  1
  H  H12  1  0.50000000  0.83399200  0.57713000  1
  H  H13  1  0.50000000  0.83963800  0.43848500  1
  H  H14  1  0.50000000  0.16036200  0.56151500  1
  C  C1  1  0.13940000  0.69506600  0.99138700  1
  C  C2  1  0.86060000  0.30493400  0.00861300  1
  C  C3  1  0.13940000  0.30493400  0.00861300  1
  C  C4  1  0.86060000  0.69506600  0.99138700  1
  C  C5  1  0.14019100  0.79706000  0.00000000  1
  C  C6  1  0.85980900  0.20294000  0.00000000  1
  C  C7  1  0.14019100  0.20294000  0.00000000  1
  C  C8  1  0.85980900  0.79706000  0.00000000  1
  C  C9  1  0.00000000  0.84837000  0.00046600  1
  C  C10  1  0.00000000  0.15163000  0.99953400  1
  C  C11  1  0.00000000  0.64642700  0.98197400  1
  C  C12  1  0.00000000  0.35357400  0.01802600  1
  C  C13  1  0.00000000  0.95516500  0.00051000  1
  C  C14  1  0.00000000  0.04483500  0.99949000  1
  C  C15  1  0.28119100  0.63479600  0.99482400  1
  C  C16  1  0.71880900  0.36520400  0.00517600  1
  C  C17  1  0.28119100  0.36520400  0.00517600  1
  C  C18  1  0.71880900  0.63479600  0.99482400  1
  C  C19  1  0.50000000  0.42391400  0.22261500  1
  C  C20  1  0.50000000  0.57608600  0.77738500  1
  C  C21  1  0.50000000  0.59815100  0.22581200  1
  C  C22  1  0.50000000  0.40184900  0.77418800  1
  C  C23  1  0.50000000  0.32886900  0.33830400  1
  C  C24  1  0.50000000  0.67113100  0.66169600  1
  C  C25  1  0.50000000  0.68401700  0.34621700  1
  C  C26  1  0.50000000  0.31598300  0.65378300  1
  C  C27  1  0.50000000  0.41960400  0.30123500  1
  C  C28  1  0.50000000  0.58039600  0.69876500  1
  C  C29  1  0.50000000  0.59648500  0.30486400  1
  C  C30  1  0.50000000  0.40351500  0.69513600  1
  C  C31  1  0.50000000  0.50649400  0.34264300  1
  C  C32  1  0.50000000  0.49350600  0.65735700  1
  C  C33  1  0.50000000  0.23500900  0.45455900  1
  C  C34  1  0.50000000  0.76499100  0.54544100  1
  C  C35  1  0.50000000  0.76820400  0.46682500  1
  C  C36  1  0.50000000  0.23179600  0.53317500  1
  C  C37  1  0.50000000  0.32544800  0.41710300  1
  C  C38  1  0.50000000  0.67455200  0.58289700  1
  C  C39  1  0.50000000  0.68098400  0.42515100  1
  C  C40  1  0.50000000  0.31901600  0.57484900  1
  C  C41  1  0.50000000  0.41271100  0.45860300  1
  C  C42  1  0.50000000  0.58729000  0.54139700  1
  C  C43  1  0.50000000  0.59054800  0.46262900  1
  C  C44  1  0.50000000  0.40945200  0.53737100  1
  C  C45  1  0.50000000  0.50325700  0.42131600  1
  C  C46  1  0.50000000  0.49674300  0.57868400  1
  N  N1  1  0.50000000  0.51220900  0.18625500  1
  N  N2  1  0.50000000  0.48779100  0.81374500  1
  O  O1  1  0.33270100  0.59585000  0.93099100  1
  O  O2  1  0.66729900  0.40415000  0.06900900  1
  O  O3  1  0.66600400  0.39116200  0.93761200  1
  O  O4  1  0.33399500  0.60883800  0.06238800  1
  O  O5  1  0.33270100  0.40415000  0.06900900  1
  O  O6  1  0.66729900  0.59585000  0.93099100  1
  O  O7  1  0.66600400  0.60883800  0.06238800  1
  O  O8  1  0.33399500  0.39116200  0.93761200  1
  F  F1  1  0.50000000  0.24321600  0.29739200  1
  F  F2  1  0.50000000  0.75678400  0.70260800  1
  F  F3  1  0.50000000  0.77278100  0.30941900  1
  F  F4  1  0.50000000  0.22721900  0.69058100  1
