# generated using pymatgen
data_ZnH14C23(NO3)2
_symmetry_space_group_name_H-M   'P 1'
_cell_length_a   23.44084700
_cell_length_b   10.97427900
_cell_length_c   9.83423900
_cell_angle_alpha   90.00453100
_cell_angle_beta   89.99608900
_cell_angle_gamma   90.00860700
_symmetry_Int_Tables_number   1
_chemical_formula_structural   ZnH14C23(NO3)2
_chemical_formula_sum   'Zn2 H28 C46 N4 O12'
_cell_volume   2529.82248772
_cell_formula_units_Z   2
loop_
 _symmetry_equiv_pos_site_id
 _symmetry_equiv_pos_as_xyz
  1  'x, y, z'
loop_
 _atom_site_type_symbol
 _atom_site_label
 _atom_site_symmetry_multiplicity
 _atom_site_fract_x
 _atom_site_fract_y
 _atom_site_fract_z
 _atom_site_occupancy
  Zn  Zn1  1  0.50180500  0.49344900  0.66418000  1
  Zn  Zn2  1  0.50159000  0.49284000  0.35461700  1
  H  H1  1  0.95028800  0.23655400  0.67364800  1
  H  H2  1  0.05290500  0.23742900  0.67552400  1
  H  H3  1  0.94826400  0.77082200  0.35677600  1
  H  H4  1  0.21985000  0.65685900  0.64038900  1
  H  H5  1  0.32413100  0.64855300  0.63565000  1
  H  H6  1  0.21238600  0.33701200  0.39559300  1
  H  H7  1  0.78697100  0.49527700  0.72743500  1
  H  H8  1  0.68335400  0.49139500  0.72716700  1
  H  H9  1  0.68403600  0.50299500  0.29175800  1
  H  H10  1  0.78783700  0.50566600  0.29383900  1
  H  H11  1  0.49917100  0.10389800  0.29004500  1
  H  H12  1  0.49835200  0.88259200  0.28979600  1
  H  H13  1  0.46566300  0.88250700  0.81824500  1
  H  H14  1  0.54609500  0.88119800  0.81084000  1
  H  H15  1  0.46647200  0.10363300  0.81875800  1
  H  H16  1  0.54689600  0.10258500  0.81146300  1
  H  H17  1  0.57951500  0.58663300  0.13514100  1
  H  H18  1  0.57985200  0.58699400  0.88503500  1
  H  H19  1  0.37101700  0.44124400  0.88487500  1
  H  H20  1  0.40822000  0.28875400  0.88336000  1
  H  H21  1  0.37095900  0.44031900  0.13200500  1
  H  H22  1  0.40831300  0.28753400  0.13191800  1
  H  H23  1  0.08436500  0.85826600  0.41565400  1
  H  H24  1  0.08392700  0.78307100  0.24949100  1
  H  H25  1  0.02521300  0.87487300  0.30288900  1
  H  H26  1  0.36880800  0.28637000  0.38933600  1
  H  H27  1  0.30364200  0.20765100  0.42286400  1
  H  H28  1  0.31099900  0.29279300  0.26777100  1
  C  C1  1  0.50243300  0.25471400  0.50931900  1
  C  C2  1  0.39009100  0.49026000  0.50994400  1
  C  C3  1  0.50096100  0.73155500  0.50914100  1
  C  C4  1  0.61343900  0.49510400  0.50910700  1
  C  C5  1  0.88353000  0.59676800  0.45644500  1
  C  C6  1  0.88393300  0.40861000  0.56859300  1
  C  C7  1  0.94292800  0.40879000  0.57091300  1
  C  C8  1  0.97253700  0.50493500  0.51459800  1
  C  C9  1  0.94262100  0.59935900  0.45722600  1
  C  C10  1  0.97235500  0.31305400  0.62873600  1
  C  C11  1  0.03097200  0.31371000  0.62984000  1
  C  C12  1  0.06067900  0.40992700  0.57309800  1
  C  C13  1  0.03157500  0.50631500  0.51549300  1
  C  C14  1  0.06163300  0.60298600  0.45901700  1
  C  C15  1  0.03075300  0.69982300  0.40153500  1
  C  C16  1  0.97176100  0.69631800  0.40149500  1
  C  C17  1  0.11945200  0.40965400  0.57380000  1
  C  C18  1  0.12140800  0.59838000  0.46162000  1
  C  C19  1  0.24100600  0.58502700  0.58455500  1
  C  C20  1  0.29975100  0.57966500  0.58274800  1
  C  C21  1  0.32761700  0.48899800  0.51148200  1
  C  C22  1  0.29582900  0.39969700  0.44536000  1
  C  C23  1  0.23703200  0.40593300  0.44777500  1
  C  C24  1  0.20943400  0.49842000  0.51630000  1
  C  C25  1  0.76441400  0.49618600  0.63155100  1
  C  C26  1  0.70561600  0.49455000  0.63102400  1
  C  C27  1  0.67603400  0.49685400  0.50933400  1
  C  C28  1  0.70603200  0.50121000  0.38828800  1
  C  C29  1  0.76487600  0.50338700  0.38915100  1
  C  C30  1  0.79430700  0.50067000  0.51074000  1
  C  C31  1  0.50348400  0.05351200  0.62516600  1
  C  C32  1  0.50218400  0.12129400  0.50795700  1
  C  C33  1  0.50032900  0.05668700  0.38642600  1
  C  C34  1  0.49981400  0.92967700  0.38624000  1
  C  C35  1  0.50113000  0.86490900  0.50760000  1
  C  C36  1  0.50299900  0.93243300  0.62492600  1
  C  C37  1  0.50538500  0.92151800  0.77512200  1
  C  C38  1  0.50591700  0.06372700  0.77543900  1
  C  C39  1  0.46000200  0.44252500  0.07569600  1
  C  C40  1  0.54467300  0.54416900  0.08099900  1
  C  C41  1  0.54486500  0.54441500  0.93854000  1
  C  C42  1  0.46010700  0.44304400  0.94216200  1
  C  C43  1  0.40430800  0.38096800  0.92833600  1
  C  C44  1  0.40423400  0.38024300  0.08817400  1
  C  C45  1  0.05803400  0.80988300  0.33903500  1
  C  C46  1  0.32199800  0.29140400  0.37735700  1
  N  N1  1  0.85520100  0.50198000  0.51169900  1
  N  N2  1  0.14859000  0.50270500  0.51826600  1
  N  N3  1  0.50133600  0.49231600  0.15116400  1
  N  N4  1  0.50168900  0.49286900  0.86759900  1
  O  O1  1  0.50225800  0.31175800  0.62687500  1
  O  O2  1  0.50229000  0.31138300  0.39188700  1
  O  O3  1  0.41678300  0.49280200  0.62722500  1
  O  O4  1  0.41653500  0.49068600  0.39207300  1
  O  O5  1  0.50135300  0.67505300  0.62674500  1
  O  O6  1  0.50076000  0.67427700  0.39217300  1
  O  O7  1  0.58679000  0.49478800  0.62631000  1
  O  O8  1  0.58659300  0.49423600  0.39205000  1
  O  O9  1  0.85403200  0.69029700  0.40319100  1
  O  O10  1  0.85498500  0.31367200  0.62047400  1
  O  O11  1  0.14798600  0.31706100  0.63185100  1
  O  O12  1  0.15332400  0.68634400  0.40500900  1
