# generated using pymatgen
data_Cu3H30(C19O6)2
_symmetry_space_group_name_H-M   'P 1'
_cell_length_a   23.64065200
_cell_length_b   31.82124500
_cell_length_c   23.63953600
_cell_angle_alpha   90.00000000
_cell_angle_beta   90.00000000
_cell_angle_gamma   90.00000000
_symmetry_Int_Tables_number   1
_chemical_formula_structural   Cu3H30(C19O6)2
_chemical_formula_sum   'Cu12 H120 C152 O48'
_cell_volume   17783.43145392
_cell_formula_units_Z   4
loop_
 _symmetry_equiv_pos_site_id
 _symmetry_equiv_pos_as_xyz
  1  'x, y, z'
loop_
 _atom_site_type_symbol
 _atom_site_label
 _atom_site_symmetry_multiplicity
 _atom_site_fract_x
 _atom_site_fract_y
 _atom_site_fract_z
 _atom_site_occupancy
  Cu  Cu1  1  0.55162700  0.00242100  0.49125500  1
  Cu  Cu2  1  0.05162700  0.50242100  0.99125500  1
  Cu  Cu3  1  0.43885200  0.00254000  0.49126800  1
  Cu  Cu4  1  0.93885200  0.50254000  0.99126800  1
  Cu  Cu5  1  0.49365800  0.50237500  0.43530800  1
  Cu  Cu6  1  0.49366300  0.50248800  0.54807200  1
  Cu  Cu7  1  0.99365800  0.00237500  0.93530800  1
  Cu  Cu8  1  0.99366300  0.00248800  0.04807200  1
  Cu  Cu9  1  0.49378800  0.96050900  0.99101800  1
  Cu  Cu10  1  0.49364600  0.04423900  0.99154500  1
  Cu  Cu11  1  0.99378800  0.46050900  0.49101800  1
  Cu  Cu12  1  0.99364600  0.54423900  0.49154500  1
  H  H1  1  0.53841100  0.72646200  0.40562900  1
  H  H2  1  0.52583000  0.27838900  0.58283200  1
  H  H3  1  0.55539500  0.27904000  0.41724500  1
  H  H4  1  0.54728700  0.72521300  0.57291000  1
  H  H5  1  0.03841100  0.22646200  0.90562900  1
  H  H6  1  0.02583000  0.77838900  0.08283200  1
  H  H7  1  0.05539500  0.77904000  0.91724500  1
  H  H8  1  0.04728700  0.22521300  0.07291000  1
  H  H9  1  0.39741800  0.72705500  0.49740600  1
  H  H10  1  0.39750800  0.27828600  0.47492300  1
  H  H11  1  0.89741800  0.22705500  0.99740600  1
  H  H12  1  0.89750800  0.77828600  0.97492300  1
  H  H13  1  0.40136400  0.80629100  0.41468500  1
  H  H14  1  0.40942900  0.75653500  0.37876300  1
  H  H15  1  0.49736800  0.77860200  0.33513100  1
  H  H16  1  0.49956100  0.82618100  0.37665900  1
  H  H17  1  0.40989400  0.85012000  0.33172000  1
  H  H18  1  0.40868800  0.80271800  0.28938000  1
  H  H19  1  0.50234300  0.86984400  0.29006600  1
  H  H20  1  0.44915200  0.86257300  0.23600800  1
  H  H21  1  0.50186900  0.82232600  0.24781800  1
  H  H22  1  0.39153200  0.19818900  0.55633100  1
  H  H23  1  0.39484500  0.24777500  0.59345900  1
  H  H24  1  0.47724300  0.22561200  0.64707300  1
  H  H25  1  0.48409600  0.17808300  0.60593900  1
  H  H26  1  0.38968400  0.15431700  0.63993300  1
  H  H27  1  0.38366100  0.20167900  0.68194100  1
  H  H28  1  0.47650400  0.13436000  0.69219700  1
  H  H29  1  0.41732400  0.14170400  0.73960900  1
  H  H30  1  0.47121000  0.18184600  0.73417500  1
  H  H31  1  0.48788900  0.20002400  0.36907700  1
  H  H32  1  0.45407400  0.24988300  0.35506300  1
  H  H33  1  0.36663200  0.22674200  0.39988900  1
  H  H34  1  0.39907400  0.17830000  0.42302000  1
  H  H35  1  0.41523300  0.15760000  0.32312200  1
  H  H36  1  0.38324800  0.20626400  0.29964800  1
  H  H37  1  0.32573800  0.13779300  0.37121900  1
  H  H38  1  0.31493800  0.14719900  0.29655500  1
  H  H39  1  0.29356900  0.18641500  0.34763400  1
  H  H40  1  0.42427200  0.75486500  0.61523500  1
  H  H41  1  0.40940700  0.80436300  0.58082200  1
  H  H42  1  0.50741300  0.82903700  0.60733200  1
  H  H43  1  0.51844600  0.78005900  0.64429800  1
  H  H44  1  0.43699900  0.79546900  0.70654500  1
  H  H45  1  0.42369000  0.84377900  0.66834300  1
  H  H46  1  0.53286500  0.82180600  0.73245200  1
  H  H47  1  0.47757700  0.85673800  0.75667800  1
  H  H48  1  0.51863700  0.87025400  0.69478100  1
  H  H49  1  0.90136400  0.30629100  0.91468500  1
  H  H50  1  0.90942900  0.25653500  0.87876300  1
  H  H51  1  0.99736800  0.27860200  0.83513100  1
  H  H52  1  0.99956100  0.32618100  0.87665900  1
  H  H53  1  0.90989400  0.35012000  0.83172000  1
  H  H54  1  0.90868800  0.30271800  0.78938000  1
  H  H55  1  0.00234300  0.36984400  0.79006600  1
  H  H56  1  0.94915200  0.36257300  0.73600800  1
  H  H57  1  0.00186900  0.32232600  0.74781800  1
  H  H58  1  0.89153200  0.69818900  0.05633100  1
  H  H59  1  0.89484500  0.74777500  0.09345900  1
  H  H60  1  0.97724300  0.72561200  0.14707300  1
  H  H61  1  0.98409600  0.67808300  0.10593900  1
  H  H62  1  0.88968400  0.65431700  0.13993300  1
  H  H63  1  0.88366100  0.70167900  0.18194100  1
  H  H64  1  0.97650400  0.63436000  0.19219700  1
  H  H65  1  0.91732400  0.64170400  0.23960900  1
  H  H66  1  0.97121000  0.68184600  0.23417500  1
  H  H67  1  0.98788900  0.70002400  0.86907700  1
  H  H68  1  0.95407400  0.74988300  0.85506300  1
  H  H69  1  0.86663200  0.72674200  0.89988900  1
  H  H70  1  0.89907400  0.67830000  0.92302000  1
  H  H71  1  0.91523300  0.65760000  0.82312200  1
  H  H72  1  0.88324800  0.70626400  0.79964800  1
  H  H73  1  0.82573800  0.63779300  0.87121900  1
  H  H74  1  0.81493800  0.64719900  0.79655500  1
  H  H75  1  0.79356900  0.68641500  0.84763400  1
  H  H76  1  0.92427200  0.25486500  0.11523500  1
  H  H77  1  0.90940700  0.30436300  0.08082200  1
  H  H78  1  0.00741300  0.32903700  0.10733200  1
  H  H79  1  0.01844600  0.28005900  0.14429800  1
  H  H80  1  0.93699900  0.29546900  0.20654500  1
  H  H81  1  0.92369000  0.34377900  0.16834300  1
  H  H82  1  0.03286500  0.32180600  0.23245200  1
  H  H83  1  0.97757700  0.35673800  0.25667800  1
  H  H84  1  0.01863700  0.37025400  0.19478100  1
  H  H85  1  0.60991800  0.80407500  0.44933100  1
  H  H86  1  0.63523400  0.75442800  0.47653300  1
  H  H87  1  0.62351300  0.77983300  0.57480200  1
  H  H88  1  0.59632600  0.82933500  0.54907300  1
  H  H89  1  0.68661900  0.84221500  0.49820400  1
  H  H90  1  0.71403700  0.79287100  0.52469900  1
  H  H91  1  0.67377900  0.86762000  0.59667900  1
  H  H92  1  0.74640000  0.85287000  0.58311500  1
  H  H93  1  0.70101700  0.81823800  0.62336500  1
  H  H94  1  0.61661700  0.20292600  0.47417700  1
  H  H95  1  0.60274100  0.20227600  0.54948700  1
  H  H96  1  0.63144800  0.27734500  0.55598400  1
  H  H97  1  0.64520800  0.27807600  0.48070700  1
  H  H98  1  0.71699500  0.22171300  0.49280900  1
  H  H99  1  0.70314900  0.22088800  0.56810600  1
  H  H100  1  0.74561500  0.29670200  0.49954700  1
  H  H101  1  0.78767700  0.26375500  0.54554600  1
  H  H102  1  0.73179600  0.29584600  0.57492100  1
  H  H103  1  0.10991800  0.30407500  0.94933100  1
  H  H104  1  0.13523400  0.25442800  0.97653300  1
  H  H105  1  0.12351300  0.27983300  0.07480200  1
  H  H106  1  0.09632600  0.32933500  0.04907300  1
  H  H107  1  0.18661900  0.34221500  0.99820400  1
  H  H108  1  0.21403700  0.29287100  0.02469900  1
  H  H109  1  0.17377900  0.36762000  0.09667900  1
  H  H110  1  0.24640000  0.35287000  0.08311500  1
  H  H111  1  0.20101700  0.31823800  0.12336500  1
  H  H112  1  0.11661700  0.70292600  0.97417700  1
  H  H113  1  0.10274100  0.70227600  0.04948700  1
  H  H114  1  0.13144800  0.77734500  0.05598400  1
  H  H115  1  0.14520800  0.77807600  0.98070700  1
  H  H116  1  0.21699500  0.72171300  0.99280900  1
  H  H117  1  0.20314900  0.72088800  0.06810600  1
  H  H118  1  0.24561500  0.79670200  0.99954700  1
  H  H119  1  0.28767700  0.76375500  0.04554600  1
  H  H120  1  0.23179600  0.79584600  0.07492100  1
  C  C1  1  0.49518700  0.00190200  0.38278500  1
  C  C2  1  0.49521900  0.00298400  0.59976400  1
  C  C3  1  0.99518700  0.50190200  0.88278500  1
  C  C4  1  0.99521900  0.50298400  0.09976400  1
  C  C5  1  0.49449700  0.92194900  0.49242500  1
  C  C6  1  0.49563700  0.08302300  0.49101400  1
  C  C7  1  0.99449700  0.42194900  0.99242500  1
  C  C8  1  0.99563700  0.58302300  0.99101400  1
  C  C9  1  0.51835200  0.73865300  0.44471200  1
  C  C10  1  0.51104100  0.26618600  0.54147300  1
  C  C11  1  0.52731400  0.26666700  0.45091100  1
  C  C12  1  0.52348700  0.73815300  0.53645300  1
  C  C13  1  0.01835200  0.23865300  0.94471200  1
  C  C14  1  0.01104100  0.76618600  0.04147300  1
  C  C15  1  0.02731400  0.76666700  0.95091100  1
  C  C16  1  0.02348700  0.23815300  0.03645300  1
  C  C17  1  0.46619500  0.76626900  0.44869600  1
  C  C18  1  0.45983500  0.23852900  0.53097800  1
  C  C19  1  0.47565400  0.23910500  0.44222700  1
  C  C20  1  0.47124100  0.76588200  0.53877400  1
  C  C21  1  0.96619500  0.26626900  0.94869600  1
  C  C22  1  0.95983500  0.73852900  0.03097800  1
  C  C23  1  0.97565400  0.73910500  0.94222700  1
  C  C24  1  0.97124100  0.26588200  0.03877400  1
  C  C25  1  0.49413500  0.87695500  0.49223600  1
  C  C26  1  0.49528700  0.12803100  0.49042900  1
  C  C27  1  0.99413500  0.37695500  0.99223600  1
  C  C28  1  0.99528700  0.62803100  0.99042900  1
  C  C29  1  0.49399100  0.62816000  0.49149000  1
  C  C30  1  0.49317800  0.37669900  0.49192100  1
  C  C31  1  0.99399100  0.12816000  0.99149000  1
  C  C32  1  0.99317800  0.87669900  0.99192100  1
  C  C33  1  0.54658000  0.76577500  0.48942000  1
  C  C34  1  0.54453500  0.23921100  0.50043400  1
  C  C35  1  0.04658000  0.26577500  0.98942000  1
  C  C36  1  0.04453500  0.73921100  0.00043400  1
  C  C37  1  0.49475500  0.79322900  0.49244700  1
  C  C38  1  0.49367400  0.21175100  0.49085700  1
  C  C39  1  0.99475500  0.29322900  0.99244700  1
  C  C40  1  0.99367400  0.71175100  0.99085700  1
  C  C41  1  0.49417500  0.71193200  0.49183400  1
  C  C42  1  0.49286200  0.29295000  0.49171900  1
  C  C43  1  0.99417500  0.21193200  0.99183400  1
  C  C44  1  0.99286200  0.79295000  0.99171900  1
  C  C45  1  0.44148000  0.73885000  0.49505000  1
  C  C46  1  0.44086900  0.26613100  0.48207200  1
  C  C47  1  0.94148000  0.23885000  0.99505000  1
  C  C48  1  0.94086900  0.76613100  0.98207200  1
  C  C49  1  0.49420500  0.83915100  0.49224600  1
  C  C50  1  0.49478400  0.16584000  0.49035900  1
  C  C51  1  0.99420500  0.33915100  0.99224600  1
  C  C52  1  0.99478400  0.66584000  0.99035900  1
  C  C53  1  0.49394100  0.66600800  0.49156900  1
  C  C54  1  0.49287000  0.33886000  0.49190100  1
  C  C55  1  0.99394100  0.16600800  0.99156900  1
  C  C56  1  0.99287000  0.83886000  0.99190100  1
  C  C57  1  0.49505000  0.00162100  0.32212000  1
  C  C58  1  0.49510300  0.00315700  0.66043300  1
  C  C59  1  0.99505000  0.50162100  0.82212000  1
  C  C60  1  0.99510300  0.50315700  0.16043300  1
  C  C61  1  0.49475700  0.00147200  0.27116200  1
  C  C62  1  0.49481400  0.00323600  0.71139200  1
  C  C63  1  0.99475700  0.50147200  0.77116200  1
  C  C64  1  0.99481400  0.50323600  0.21139200  1
  C  C65  1  0.49426300  0.00143400  0.21145500  1
  C  C66  1  0.49431300  0.00325400  0.77110000  1
  C  C67  1  0.99426300  0.50143400  0.71145500  1
  C  C68  1  0.99431300  0.50325400  0.27110000  1
  C  C69  1  0.49375000  0.00151200  0.16049700  1
  C  C70  1  0.49378900  0.00320100  0.82206000  1
  C  C71  1  0.99375000  0.50151200  0.66049700  1
  C  C72  1  0.99378900  0.50320100  0.32206000  1
  C  C73  1  0.60217500  0.50189700  0.49168300  1
  C  C74  1  0.10217500  0.00189700  0.99168300  1
  C  C75  1  0.49431400  0.58309300  0.49154000  1
  C  C76  1  0.49382400  0.42175400  0.49184600  1
  C  C77  1  0.99431400  0.08309300  0.99154000  1
  C  C78  1  0.99382400  0.92175400  0.99184600  1
  C  C79  1  0.38517700  0.50220800  0.49169200  1
  C  C80  1  0.88517700  0.00220800  0.99169200  1
  C  C81  1  0.38516400  0.00227600  0.99129100  1
  C  C82  1  0.88516400  0.50227600  0.49129100  1
  C  C83  1  0.49305900  0.00169300  0.09983000  1
  C  C84  1  0.49308100  0.00304400  0.88273000  1
  C  C85  1  0.99305900  0.50169300  0.59983000  1
  C  C86  1  0.99308100  0.50304400  0.38273000  1
  C  C87  1  0.60220400  0.00248100  0.99131200  1
  C  C88  1  0.10220400  0.50248100  0.49131200  1
  C  C89  1  0.66284900  0.50212900  0.49165800  1
  C  C90  1  0.16284900  0.00212900  0.99165800  1
  C  C91  1  0.71381200  0.50221400  0.49159000  1
  C  C92  1  0.21381200  0.00221400  0.99159000  1
  C  C93  1  0.27352600  0.00223800  0.99147900  1
  C  C94  1  0.77352600  0.50223800  0.49147900  1
  C  C95  1  0.32449000  0.00224300  0.99138300  1
  C  C96  1  0.82449000  0.50224300  0.49138300  1
  C  C97  1  0.32450800  0.50251100  0.49167200  1
  C  C98  1  0.82450800  0.00251100  0.99167200  1
  C  C99  1  0.27354700  0.50261300  0.49160700  1
  C  C100  1  0.77354700  0.00261300  0.99160700  1
  C  C101  1  0.71383500  0.00261000  0.99150000  1
  C  C102  1  0.21383500  0.50261000  0.49150000  1
  C  C103  1  0.66287400  0.00255500  0.99140600  1
  C  C104  1  0.16287400  0.50255500  0.49140600  1
  C  C105  1  0.43241500  0.78292700  0.39899100  1
  C  C106  1  0.47131800  0.80319000  0.35573700  1
  C  C107  1  0.43635700  0.82567200  0.31129000  1
  C  C108  1  0.47506400  0.84643600  0.26852100  1
  C  C109  1  0.42027500  0.22154200  0.57597000  1
  C  C110  1  0.45369500  0.20112400  0.62345900  1
  C  C111  1  0.41363800  0.17868400  0.66340600  1
  C  C112  1  0.44695100  0.15780800  0.71040900  1
  C  C113  1  0.45652300  0.22309100  0.38494700  1
  C  C114  1  0.39872700  0.20256700  0.38944300  1
  C  C115  1  0.38360300  0.18215300  0.33351300  1
  C  C116  1  0.32562800  0.16209400  0.33759200  1
  C  C117  1  0.44325500  0.78182200  0.59237700  1
  C  C118  1  0.48627300  0.80321000  0.63045100  1
  C  C119  1  0.45678400  0.82124600  0.68195000  1
  C  C120  1  0.49934200  0.84398500  0.71883800  1
  C  C121  1  0.93241500  0.28292700  0.89899100  1
  C  C122  1  0.97131800  0.30319000  0.85573700  1
  C  C123  1  0.93635700  0.32567200  0.81129000  1
  C  C124  1  0.97506400  0.34643600  0.76852100  1
  C  C125  1  0.92027500  0.72154200  0.07597000  1
  C  C126  1  0.95369500  0.70112400  0.12345900  1
  C  C127  1  0.91363800  0.67868400  0.16340600  1
  C  C128  1  0.94695100  0.65780800  0.21040900  1
  C  C129  1  0.95652300  0.72309100  0.88494700  1
  C  C130  1  0.89872700  0.70256700  0.88944300  1
  C  C131  1  0.88360300  0.68215300  0.83351300  1
  C  C132  1  0.82562800  0.66209400  0.83759200  1
  C  C133  1  0.94325500  0.28182200  0.09237700  1
  C  C134  1  0.98627300  0.30321000  0.13045100  1
  C  C135  1  0.95678400  0.32124600  0.18195000  1
  C  C136  1  0.99934200  0.34398500  0.21883800  1
  C  C137  1  0.60695000  0.78150600  0.48494900  1
  C  C138  1  0.62498600  0.80276500  0.53955100  1
  C  C139  1  0.68478900  0.81931500  0.53351600  1
  C  C140  1  0.70258800  0.84091900  0.58778500  1
  C  C141  1  0.60339500  0.22217000  0.51097700  1
  C  C142  1  0.64466400  0.25814600  0.51916100  1
  C  C143  1  0.70347700  0.24082400  0.52963200  1
  C  C144  1  0.74479300  0.27669400  0.53794700  1
  C  C145  1  0.10695000  0.28150600  0.98494900  1
  C  C146  1  0.12498600  0.30276500  0.03955100  1
  C  C147  1  0.18478900  0.31931500  0.03351600  1
  C  C148  1  0.20258800  0.34091900  0.08778500  1
  C  C149  1  0.10339500  0.72217000  0.01097700  1
  C  C150  1  0.14466400  0.75814600  0.01916100  1
  C  C151  1  0.20347700  0.74082400  0.02963200  1
  C  C152  1  0.24479300  0.77669400  0.03794700  1
  O  O1  1  0.54405500  0.00371900  0.40900300  1
  O  O2  1  0.54396400  0.00459900  0.57346200  1
  O  O3  1  0.04405500  0.50371900  0.90900300  1
  O  O4  1  0.04396400  0.50459900  0.07346200  1
  O  O5  1  0.44638200  0.00043500  0.40913300  1
  O  O6  1  0.44652700  0.00115100  0.57341500  1
  O  O7  1  0.94638200  0.50043500  0.90913300  1
  O  O8  1  0.94652700  0.50115100  0.07341500  1
  O  O9  1  0.54346000  0.94114800  0.48973000  1
  O  O10  1  0.54453700  0.06374000  0.48854000  1
  O  O11  1  0.04346000  0.44114800  0.98973000  1
  O  O12  1  0.04453700  0.56374000  0.98854000  1
  O  O13  1  0.44591800  0.94169100  0.48963600  1
  O  O14  1  0.44699500  0.06330400  0.48868500  1
  O  O15  1  0.94591800  0.44169100  0.98963600  1
  O  O16  1  0.94699500  0.56330400  0.98868500  1
  O  O17  1  0.57588400  0.50382200  0.44298200  1
  O  O18  1  0.57589000  0.50391900  0.54038500  1
  O  O19  1  0.07588400  0.00382200  0.94298200  1
  O  O20  1  0.07589000  0.00391900  0.04038500  1
  O  O21  1  0.49170000  0.56354400  0.44275600  1
  O  O22  1  0.49135900  0.44133600  0.54051700  1
  O  O23  1  0.49135600  0.44123900  0.44310000  1
  O  O24  1  0.49170500  0.56363900  0.54039000  1
  O  O25  1  0.99170000  0.06354400  0.94275600  1
  O  O26  1  0.99135900  0.94133600  0.04051700  1
  O  O27  1  0.99135600  0.94123900  0.94310000  1
  O  O28  1  0.99170500  0.06363900  0.04039000  1
  O  O29  1  0.41142900  0.50407500  0.44287100  1
  O  O30  1  0.41143100  0.50417300  0.54050900  1
  O  O31  1  0.91142900  0.00407500  0.94287100  1
  O  O32  1  0.91143100  0.00417300  0.04050900  1
  O  O33  1  0.41148600  0.96594800  0.99327800  1
  O  O34  1  0.41136600  0.03864500  0.98927400  1
  O  O35  1  0.91148600  0.46594800  0.49327800  1
  O  O36  1  0.91136600  0.53864500  0.48927400  1
  O  O37  1  0.49574200  0.96556800  0.07336200  1
  O  O38  1  0.49563400  0.03917800  0.90920000  1
  O  O39  1  0.49581500  0.03798600  0.07374600  1
  O  O40  1  0.49595300  0.96676300  0.90881800  1
  O  O41  1  0.99574200  0.46556800  0.57336200  1
  O  O42  1  0.99563400  0.53917800  0.40920000  1
  O  O43  1  0.99581500  0.53798600  0.57374600  1
  O  O44  1  0.99595300  0.46676300  0.40881800  1
  O  O45  1  0.57589900  0.96634100  0.99350900  1
  O  O46  1  0.57577600  0.03856400  0.98907600  1
  O  O47  1  0.07589900  0.46634100  0.49350900  1
  O  O48  1  0.07577600  0.53856400  0.48907600  1
