# generated using pymatgen
data_Fe2H25C46N3O19
_symmetry_space_group_name_H-M   'P 1'
_cell_length_a   15.77870300
_cell_length_b   9.31463100
_cell_length_c   20.36425800
_cell_angle_alpha   93.53432000
_cell_angle_beta   100.75990100
_cell_angle_gamma   97.08205200
_symmetry_Int_Tables_number   1
_chemical_formula_structural   Fe2H25C46N3O19
_chemical_formula_sum   'Fe2 H25 C46 N3 O19'
_cell_volume   2906.91275773
_cell_formula_units_Z   1
loop_
 _symmetry_equiv_pos_site_id
 _symmetry_equiv_pos_as_xyz
  1  'x, y, z'
loop_
 _atom_site_type_symbol
 _atom_site_label
 _atom_site_symmetry_multiplicity
 _atom_site_fract_x
 _atom_site_fract_y
 _atom_site_fract_z
 _atom_site_occupancy
  Fe  Fe1  1  0.47892800  0.00652700  0.85482700  1
  Fe  Fe2  1  0.48959300  0.03845600  0.15194800  1
  H  H1  1  0.19801200  0.97095900  0.84619800  1
  H  H2  1  0.05383100  0.96356100  0.87471900  1
  H  H3  1  0.16876400  0.07415400  0.07959700  1
  H  H4  1  0.80030600  0.97377800  0.92703500  1
  H  H5  1  0.76869500  0.05937000  0.16081100  1
  H  H6  1  0.48326300  0.46192600  0.82822700  1
  H  H7  1  0.49130100  0.72850500  0.66586600  1
  H  H8  1  0.47066800  0.26752200  0.63191900  1
  H  H9  1  0.37699700  0.35094100  0.53496800  1
  H  H10  1  0.38171500  0.36992700  0.41689000  1
  H  H11  1  0.60609300  0.69032900  0.47177300  1
  H  H12  1  0.49676100  0.58806000  0.17900200  1
  H  H13  1  0.48417300  0.32057000  0.34043600  1
  H  H14  1  0.64422700  0.78883900  0.58857500  1
  H  H15  1  0.76527300  0.80968500  0.67265500  1
  H  H16  1  0.81705100  0.65475800  0.65184900  1
  H  H17  1  0.77052000  0.66275300  0.72644800  1
  H  H18  1  0.53939600  0.90351100  0.38313800  1
  H  H19  1  0.46306600  0.04564300  0.43949700  1
  H  H20  1  0.37850800  0.94797600  0.47469600  1
  H  H21  1  0.35235500  0.01254900  0.39240000  1
  H  H22  1  0.98775300  0.12870200  0.13519800  1
  H  H23  1  0.08058100  0.96656600  0.20520000  1
  H  H24  1  0.02717500  0.88776700  0.26838900  1
  H  H25  1  0.04635500  0.08309700  0.26699600  1
  C  C1  1  0.19279300  0.99242300  0.89795800  1
  C  C2  1  0.11148900  0.98951300  0.91369400  1
  C  C3  1  0.10383300  0.02181500  0.97891400  1
  C  C4  1  0.17722200  0.05375500  0.02858500  1
  C  C5  1  0.25953700  0.05536900  0.01377900  1
  C  C6  1  0.26714300  0.02776200  0.94710700  1
  C  C7  1  0.01940300  0.01969700  0.99580300  1
  C  C8  1  0.94882400  0.01833500  0.01052500  1
  C  C9  1  0.79150000  0.98980100  0.97818800  1
  C  C10  1  0.70899700  0.98712200  0.99269100  1
  C  C11  1  0.70093200  0.00935500  0.05947200  1
  C  C12  1  0.77494800  0.03945500  0.10918600  1
  C  C13  1  0.85684800  0.04171600  0.09418400  1
  C  C14  1  0.86479200  0.01697200  0.02821200  1
  C  C15  1  0.46941500  0.20855400  0.75874800  1
  C  C16  1  0.35121000  0.04125800  0.92570200  1
  C  C17  1  0.63444000  0.97366100  0.93589100  1
  C  C18  1  0.48742900  0.73730900  0.79844300  1
  C  C19  1  0.48724800  0.31186000  0.20784400  1
  C  C20  1  0.33453100  0.07315100  0.07036900  1
  C  C21  1  0.61663700  0.99798700  0.08043600  1
  C  C22  1  0.50742100  0.83916000  0.24597900  1
  C  C23  1  0.48743400  0.60981500  0.75216500  1
  C  C24  1  0.48856000  0.62272200  0.68498600  1
  C  C25  1  0.48358700  0.49974000  0.64166700  1
  C  C26  1  0.47449700  0.36389200  0.66532200  1
  C  C27  1  0.47626100  0.35115000  0.73255100  1
  C  C28  1  0.48378800  0.47382900  0.77587600  1
  C  C29  1  0.42799000  0.42520500  0.52157100  1
  C  C30  1  0.43057300  0.43589400  0.45472000  1
  C  C31  1  0.49290400  0.53417600  0.43630400  1
  C  C32  1  0.55450400  0.61794800  0.48550700  1
  C  C33  1  0.55317500  0.60587900  0.55251600  1
  C  C34  1  0.48810300  0.51167900  0.57082500  1
  C  C35  1  0.50054400  0.68591500  0.34145600  1
  C  C36  1  0.50211500  0.69861400  0.27426400  1
  C  C37  1  0.49536700  0.57583600  0.23121100  1
  C  C38  1  0.48929400  0.43966100  0.25441100  1
  C  C39  1  0.48787500  0.42651400  0.32146800  1
  C  C40  1  0.49379000  0.54915400  0.36507900  1
  C  C41  1  0.67828100  0.61375600  0.63448600  1
  C  C42  1  0.76293600  0.69039500  0.67366100  1
  C  C43  1  0.41872100  0.82611800  0.39666800  1
  C  C44  1  0.40245300  0.96695900  0.42768700  1
  C  C45  1  0.94361600  0.97393400  0.19030600  1
  C  C46  1  0.02993300  0.97821000  0.23555800  1
  N  N1  1  0.61872200  0.68985200  0.60145800  1
  N  N2  1  0.49841600  0.80964800  0.38466100  1
  N  N3  1  0.93164400  0.07477200  0.14584000  1
  O  O1  1  0.50923900  0.19624400  0.82036300  1
  O  O2  1  0.40964100  0.15517200  0.94777000  1
  O  O3  1  0.41963600  0.09720100  0.72275700  1
  O  O4  1  0.36393500  0.94917500  0.87815100  1
  O  O5  1  0.55833500  0.00637300  0.94410100  1
  O  O6  1  0.64699400  0.94632700  0.87472500  1
  O  O7  1  0.48820500  0.86820300  0.77775000  1
  O  O8  1  0.48268700  0.72000100  0.86118300  1
  O  O9  1  0.48210700  0.18064100  0.22817300  1
  O  O10  1  0.49376900  0.32869700  0.14539100  1
  O  O11  1  0.41011600  0.03740900  0.06255400  1
  O  O12  1  0.32258100  0.10557400  0.13129200  1
  O  O13  1  0.57014700  0.94414000  0.27227300  1
  O  O14  1  0.60483000  0.09051700  0.12813800  1
  O  O15  1  0.45721500  0.85152200  0.18813900  1
  O  O16  1  0.55722900  0.88555700  0.05801000  1
  O  O17  1  0.66415900  0.48161700  0.63147500  1
  O  O18  1  0.35912200  0.72616400  0.38162900  1
  O  O19  1  0.88478500  0.87787600  0.19307200  1
