# generated using pymatgen
data_Fe2H22C53(NO5)4
_symmetry_space_group_name_H-M   'P 1'
_cell_length_a   14.91417500
_cell_length_b   25.78426000
_cell_length_c   11.50223900
_cell_angle_alpha   51.73037000
_cell_angle_beta   78.94401700
_cell_angle_gamma   101.06353800
_symmetry_Int_Tables_number   1
_chemical_formula_structural   Fe2H22C53(NO5)4
_chemical_formula_sum   'Fe2 H22 C53 N4 O20'
_cell_volume   3118.91869209
_cell_formula_units_Z   1
loop_
 _symmetry_equiv_pos_site_id
 _symmetry_equiv_pos_as_xyz
  1  'x, y, z'
loop_
 _atom_site_type_symbol
 _atom_site_label
 _atom_site_symmetry_multiplicity
 _atom_site_fract_x
 _atom_site_fract_y
 _atom_site_fract_z
 _atom_site_occupancy
  Fe  Fe1  1  0.50206400  0.99798600  0.26865500  1
  Fe  Fe2  1  0.49986300  0.99908500  0.75441700  1
  H  H1  1  0.76970800  0.96806300  0.77380500  1
  H  H2  1  0.92541700  0.96556100  0.81219700  1
  H  H3  1  0.85405500  0.01500100  0.10187800  1
  H  H4  1  0.07954900  0.03590900  0.20486300  1
  H  H5  1  0.23481900  0.03237700  0.24424900  1
  H  H6  1  0.14889300  0.98512100  0.91748600  1
  H  H7  1  0.98005000  0.66082300  0.70502900  1
  H  H8  1  0.87038800  0.56001000  0.75328200  1
  H  H9  1  0.01984000  0.33739800  0.31543900  1
  H  H10  1  0.13042800  0.43831300  0.26568100  1
  H  H11  1  0.72336200  0.22471800  0.35648300  1
  H  H12  1  0.74738400  0.25955100  0.87861000  1
  H  H13  1  0.84072000  0.36028700  0.84372000  1
  H  H14  1  0.27567100  0.77479100  0.66428800  1
  H  H15  1  0.16214100  0.63482100  0.17518400  1
  H  H16  1  0.22396600  0.75151400  0.21684300  1
  H  H17  1  0.34732600  0.75095200  0.16622300  1
  H  H18  1  0.10925300  0.64585200  0.47338100  1
  H  H19  1  0.04785800  0.51558400  0.70501500  1
  H  H20  1  0.13326300  0.44520100  0.69419400  1
  H  H21  1  0.28078200  0.50537100  0.45025800  1
  H  H22  1  0.34259800  0.63587600  0.21742100  1
  C  C1  1  0.78807600  0.97772500  0.84702300  1
  C  C2  1  0.87587000  0.97689400  0.86747900  1
  C  C3  1  0.90196000  0.99200800  0.95509300  1
  C  C4  1  0.83752100  0.00569400  0.02731500  1
  C  C5  1  0.74880800  0.00582000  0.00798700  1
  C  C6  1  0.72571000  0.99389200  0.91365100  1
  C  C7  1  0.12856800  0.02410200  0.15021100  1
  C  C8  1  0.21612800  0.02267000  0.17125700  1
  C  C9  1  0.27773600  0.00570700  0.10584800  1
  C  C10  1  0.25414200  0.99365800  0.01182300  1
  C  C11  1  0.16578500  0.99457000  0.99166000  1
  C  C12  1  0.10199500  0.00888400  0.06300200  1
  C  C13  1  0.37925700  0.89345300  0.59035700  1
  C  C14  1  0.36384900  0.99676000  0.14612600  1
  C  C15  1  0.67654300  0.01254100  0.09849700  1
  C  C16  1  0.62916300  0.12487900  0.15542300  1
  C  C17  1  0.37059300  0.87327200  0.86743500  1
  C  C18  1  0.32548300  0.98610200  0.92209700  1
  C  C19  1  0.63902700  0.00196900  0.87479200  1
  C  C20  1  0.62072800  0.10430300  0.43372200  1
  C  C21  1  0.15110300  0.57394900  0.05359400  1
  C  C22  1  0.09783600  0.65244600  0.85642600  1
  C  C23  1  0.03580700  0.59600400  0.88177200  1
  C  C24  1  0.03108800  0.52758900  0.99623500  1
  C  C25  1  0.08921300  0.51644700  0.08239600  1
  C  C26  1  0.97739600  0.60739400  0.79504900  1
  C  C27  1  0.91529400  0.55040500  0.82252000  1
  C  C28  1  0.91108500  0.48180000  0.93730400  1
  C  C29  1  0.96869200  0.47061900  0.02427800  1
  C  C30  1  0.96401500  0.40222700  0.13881500  1
  C  C31  1  0.02246600  0.39082000  0.22543100  1
  C  C32  1  0.08508600  0.44787400  0.19710300  1
  C  C33  1  0.85044000  0.42440300  0.96440800  1
  C  C34  1  0.90209900  0.34578600  0.16422800  1
  C  C35  1  0.72937800  0.23262000  0.25096300  1
  C  C36  1  0.67836600  0.17513000  0.27080300  1
  C  C37  1  0.68498100  0.18444200  0.13720400  1
  C  C38  1  0.74199400  0.25159000  0.98407400  1
  C  C39  1  0.79337700  0.30884600  0.96428500  1
  C  C40  1  0.78807800  0.29945700  0.09765200  1
  C  C41  1  0.27049300  0.76577600  0.77090600  1
  C  C42  1  0.32126900  0.82253700  0.75339100  1
  C  C43  1  0.31660000  0.81211100  0.88825800  1
  C  C44  1  0.26437100  0.74300800  0.04151400  1
  C  C45  1  0.21042500  0.68720500  0.05752000  1
  C  C46  1  0.21282500  0.69845800  0.92299800  1
  C  C47  1  0.26845100  0.72803500  0.18842700  1
  C  C48  1  0.22993700  0.64906800  0.33049100  1
  C  C49  1  0.14729500  0.61532300  0.46752200  1
  C  C50  1  0.11265900  0.54209200  0.59791200  1
  C  C51  1  0.16053600  0.50258800  0.59182500  1
  C  C52  1  0.24317500  0.53629500  0.45514700  1
  C  C53  1  0.27780200  0.60946800  0.32462800  1
  N  N1  1  0.99374300  0.99221000  0.97050400  1
  N  N2  1  0.01023900  0.00888500  0.04754900  1
  N  N3  1  0.15401500  0.64073900  0.94270700  1
  N  N4  1  0.84682300  0.35755100  0.07670200  1
  O  O1  1  0.45190800  0.90139700  0.48838200  1
  O  O2  1  0.38145300  0.94004900  0.19296500  1
  O  O3  1  0.35342900  0.94744200  0.54161200  1
  O  O4  1  0.41102500  0.03715500  0.16637500  1
  O  O5  1  0.58338400  0.99447400  0.11494600  1
  O  O6  1  0.70172800  0.02839700  0.17943800  1
  O  O7  1  0.56857600  0.06175600  0.29887700  1
  O  O8  1  0.63653000  0.13546000  0.02612100  1
  O  O9  1  0.43481900  0.93485100  0.72429700  1
  O  O10  1  0.35536800  0.86726500  0.99210400  1
  O  O11  1  0.41772900  0.00106700  0.91068800  1
  O  O12  1  0.30090200  0.97301000  0.83644900  1
  O  O13  1  0.64784800  0.05081300  0.48265600  1
  O  O14  1  0.59309300  0.96181600  0.85321600  1
  O  O15  1  0.54710100  0.09567000  0.53558200  1
  O  O16  1  0.61922400  0.05754300  0.83144900  1
  O  O17  1  0.21027500  0.56344900  0.13411300  1
  O  O18  1  0.09923600  0.71869200  0.74975900  1
  O  O19  1  0.79356200  0.43504900  0.88038400  1
  O  O20  1  0.90015400  0.27944000  0.27191400  1
