# generated using pymatgen
data_CuH7C15(N5O2)2
_symmetry_space_group_name_H-M   'P 1'
_cell_length_a   21.58610000
_cell_length_b   19.68640000
_cell_length_c   7.05280000
_cell_angle_alpha   82.55880000
_cell_angle_beta   106.34600000
_cell_angle_gamma   122.38400000
_symmetry_Int_Tables_number   1
_chemical_formula_structural   CuH7C15(N5O2)2
_chemical_formula_sum   'Cu2 H14 C30 N20 O8'
_cell_volume   2427.85158317
_cell_formula_units_Z   2
loop_
 _symmetry_equiv_pos_site_id
 _symmetry_equiv_pos_as_xyz
  1  'x, y, z'
loop_
 _atom_site_type_symbol
 _atom_site_label
 _atom_site_symmetry_multiplicity
 _atom_site_fract_x
 _atom_site_fract_y
 _atom_site_fract_z
 _atom_site_occupancy
  Cu  Cu1  1  0.50000000  0.50000000  0.00000000  1
  Cu  Cu2  1  0.50000000  0.50000000  0.50000000  1
  H  H1  1  0.49982000  0.22684000  0.65444000  1
  H  H2  1  0.49992000  0.10064000  0.69877000  1
  H  H3  1  0.49992000  0.10064000  0.08948000  1
  H  H4  1  0.50008000  0.89936000  0.91052000  1
  H  H5  1  0.50008000  0.89936000  0.30123000  1
  H  H6  1  0.50018000  0.77315000  0.34556000  1
  H  H7  1  0.22983000  0.22968000  0.31539000  1
  H  H8  1  0.22984000  0.22962000  0.91459000  1
  H  H9  1  0.77018000  0.77034000  0.08542000  1
  H  H10  1  0.77017000  0.77034000  0.68458000  1
  H  H11  1  0.04041000  0.04032000  0.85476000  1
  H  H12  1  0.04040000  0.04039000  0.18563000  1
  H  H13  1  0.95960000  0.95962000  0.81431000  1
  H  H14  1  0.95961000  0.95962000  0.14522000  1
  C  C1  1  0.68539000  0.68563000  0.34259000  1
  C  C2  1  0.49975000  0.31319000  0.31732000  1
  C  C3  1  0.31461000  0.31437000  0.65741000  1
  C  C4  1  0.50025000  0.68681000  0.68268000  1
  C  C5  1  0.49981000  0.23677000  0.34499000  1
  C  C6  1  0.49984000  0.19984000  0.53013000  1
  C  C7  1  0.49990000  0.12806000  0.55567000  1
  C  C8  1  0.49993000  0.09175000  0.39685000  1
  C  C9  1  0.49990000  0.12816000  0.21267000  1
  C  C10  1  0.49984000  0.19990000  0.18649000  1
  C  C11  1  0.50010000  0.87184000  0.78733000  1
  C  C12  1  0.50007000  0.90825000  0.60316000  1
  C  C13  1  0.50010000  0.87194000  0.44433000  1
  C  C14  1  0.50016000  0.80016000  0.46987000  1
  C  C15  1  0.50019000  0.76323000  0.65501000  1
  C  C16  1  0.50016000  0.80010000  0.81351000  1
  C  C17  1  0.24245000  0.24226000  0.62130000  1
  C  C18  1  0.20495000  0.20480000  0.43049000  1
  C  C19  1  0.13324000  0.13315000  0.39409000  1
  C  C20  1  0.09691000  0.09682000  0.54847000  1
  C  C21  1  0.13325000  0.13311000  0.73922000  1
  C  C22  1  0.20495000  0.20477000  0.77459000  1
  C  C23  1  0.03045000  0.03041000  0.51521000  1
  C  C24  1  0.96956000  0.96957000  0.48473000  1
  C  C25  1  0.90311000  0.90316000  0.45150000  1
  C  C26  1  0.86677000  0.86686000  0.26077000  1
  C  C27  1  0.79506000  0.79520000  0.22541000  1
  C  C28  1  0.75756000  0.75773000  0.37869000  1
  C  C29  1  0.79506000  0.79520000  0.56949000  1
  C  C30  1  0.86677000  0.86686000  0.60587000  1
  N  N1  1  0.58520000  0.58456000  0.19902000  1
  N  N2  1  0.64779000  0.64806000  0.16668000  1
  N  N3  1  0.50063000  0.41489000  0.37511000  1
  N  N4  1  0.49972000  0.35100000  0.46072000  1
  N  N5  1  0.41480000  0.41544000  0.61338000  1
  N  N6  1  0.35221000  0.35194000  0.51912000  1
  N  N7  1  0.49937000  0.58511000  0.81249000  1
  N  N8  1  0.50028000  0.64900000  0.85348000  1
  N  N9  1  0.41480000  0.41544000  0.80098000  1
  N  N10  1  0.35221000  0.35194000  0.83332000  1
  N  N11  1  0.49937000  0.58511000  0.62489000  1
  N  N12  1  0.50028000  0.64900000  0.53928000  1
  N  N13  1  0.58520000  0.58456000  0.38662000  1
  N  N14  1  0.64779000  0.64806000  0.48088000  1
  N  N15  1  0.50063000  0.41489000  0.18751000  1
  N  N16  1  0.49972000  0.35100000  0.14652000  1
  N  N17  1  0.49998000  0.01823000  0.41840000  1
  N  N18  1  0.50001000  0.98177000  0.58160000  1
  N  N19  1  0.49981000  0.23766000  0.98570000  1
  N  N20  1  0.50019000  0.76234000  0.01430000  1
  O  O1  1  0.45018000  0.27034000  0.90459000  1
  O  O2  1  0.54941000  0.24185000  0.87078000  1
  O  O3  1  0.45066000  0.67440000  0.02997000  1
  O  O4  1  0.54975000  0.81341000  0.19466000  1
  O  O5  1  0.09618000  0.09605000  0.90825000  1
  O  O6  1  0.09617000  0.09613000  0.18796000  1
  O  O7  1  0.90384000  0.90389000  0.81199000  1
  O  O8  1  0.90384000  0.90389000  0.09174000  1
