# generated using pymatgen
data_Zn2H21C32N7O8
_symmetry_space_group_name_H-M   'P 1'
_cell_length_a   16.49240000
_cell_length_b   17.47660000
_cell_length_c   10.90090000
_cell_angle_alpha   89.85160000
_cell_angle_beta   92.28630000
_cell_angle_gamma   84.44930000
_symmetry_Int_Tables_number   1
_chemical_formula_structural   Zn2H21C32N7O8
_chemical_formula_sum   'Zn2 H21 C32 N7 O8'
_cell_volume   3124.69031232
_cell_formula_units_Z   1
loop_
 _symmetry_equiv_pos_site_id
 _symmetry_equiv_pos_as_xyz
  1  'x, y, z'
loop_
 _atom_site_type_symbol
 _atom_site_label
 _atom_site_symmetry_multiplicity
 _atom_site_fract_x
 _atom_site_fract_y
 _atom_site_fract_z
 _atom_site_occupancy
  Zn  Zn1  1  0.60091000  0.49602000  0.50642000  1
  Zn  Zn2  1  0.39909000  0.50400000  0.49359000  1
  H  H1  1  0.27350000  0.42169000  0.62610000  1
  H  H2  1  0.12343000  0.42801000  0.61592000  1
  H  H3  1  0.11362000  0.60226000  0.33542000  1
  H  H4  1  0.26377000  0.59662000  0.34449000  1
  H  H5  1  0.88637000  0.39776000  0.66461000  1
  H  H6  1  0.87656000  0.57201000  0.38411000  1
  H  H7  1  0.72650000  0.57833000  0.37393000  1
  H  H8  1  0.73623000  0.40339000  0.65554000  1
  H  H9  1  0.38328000  0.25841000  0.49275000  1
  H  H10  1  0.39229000  0.11681000  0.49315000  1
  H  H11  1  0.65388000  0.10670000  0.51004000  1
  H  H12  1  0.64590000  0.24837000  0.50972000  1
  H  H13  1  0.34612000  0.89332000  0.48986000  1
  H  H14  1  0.60770000  0.88321000  0.50676000  1
  H  H15  1  0.61672000  0.74161000  0.50715000  1
  H  H16  1  0.35410000  0.75165000  0.49019000  1
  H  H17  1  0.62369000  0.49500000  0.11519000  1
  H  H18  1  0.37643000  0.50462000  0.10048000  1
  H  H19  1  0.62358000  0.49514000  0.89953000  1
  H  H20  1  0.34163000  0.46857000  0.77636000  1
  H  H21  1  0.29446000  0.54554000  0.88499000  1
  C  C1  1  0.50882000  0.35020000  0.50099000  1
  C  C2  1  0.49988000  0.50005000  0.73927000  1
  C  C3  1  0.49118000  0.64982000  0.49891000  1
  C  C4  1  0.50014000  0.49971000  0.26074000  1
  C  C5  1  0.23923000  0.46130000  0.56233000  1
  C  C6  1  0.15389000  0.46481000  0.55669000  1
  C  C7  1  0.10795000  0.51569000  0.47477000  1
  C  C8  1  0.14848000  0.56288000  0.39880000  1
  C  C9  1  0.23377000  0.55957000  0.40414000  1
  C  C10  1  0.85152000  0.43714000  0.60122000  1
  C  C11  1  0.89204000  0.48432000  0.52526000  1
  C  C12  1  0.84610000  0.53521000  0.44334000  1
  C  C13  1  0.76077000  0.53872000  0.43770000  1
  C  C14  1  0.76622000  0.44045000  0.59588000  1
  C  C15  1  0.51393000  0.26446000  0.50121000  1
  C  C16  1  0.44265000  0.22589000  0.49655000  1
  C  C17  1  0.44764000  0.14536000  0.49676000  1
  C  C18  1  0.52389000  0.10178000  0.50163000  1
  C  C19  1  0.59487000  0.13978000  0.50627000  1
  C  C20  1  0.59017000  0.22026000  0.50608000  1
  C  C21  1  0.40513000  0.86025000  0.49363000  1
  C  C22  1  0.47611000  0.89825000  0.49827000  1
  C  C23  1  0.55236000  0.85466000  0.50314000  1
  C  C24  1  0.55735000  0.77413000  0.50336000  1
  C  C25  1  0.48607000  0.73556000  0.49870000  1
  C  C26  1  0.40983000  0.77976000  0.49383000  1
  C  C27  1  0.49994000  0.49996000  0.87151000  1
  C  C28  1  0.50007000  0.49980000  0.12850000  1
  C  C29  1  0.42696000  0.50276000  0.93186000  1
  C  C30  1  0.57305000  0.49700000  0.06815000  1
  C  C31  1  0.42703000  0.50268000  0.05947000  1
  C  C32  1  0.57299000  0.49708000  0.94054000  1
  N  N1  1  0.28037000  0.50869000  0.48604000  1
  N  N2  1  0.02046000  0.52060000  0.46687000  1
  N  N3  1  0.97954000  0.47942000  0.53316000  1
  N  N4  1  0.71963000  0.49133000  0.51398000  1
  N  N5  1  0.53098000  0.01921000  0.50198000  1
  N  N6  1  0.46902000  0.98081000  0.49792000  1
  N  N7  1  0.34732000  0.50590000  0.85787000  1
  O  O1  1  0.58923000  0.38595000  0.50657000  1
  O  O2  1  0.42376000  0.39251000  0.49542000  1
  O  O3  1  0.41711000  0.50330000  0.67160000  1
  O  O4  1  0.58258000  0.49687000  0.68221000  1
  O  O5  1  0.41077000  0.61407000  0.49367000  1
  O  O6  1  0.57624000  0.60751000  0.50435000  1
  O  O7  1  0.58289000  0.49656000  0.32841000  1
  O  O8  1  0.41741000  0.50329000  0.31779000  1
