# generated using pymatgen
data_Zn2H32C47N2ClO8
_symmetry_space_group_name_H-M   'P 1'
_cell_length_a   28.31640000
_cell_length_b   17.57240000
_cell_length_c   16.73770000
_cell_angle_alpha   90.04070000
_cell_angle_beta   89.87270000
_cell_angle_gamma   89.74790000
_symmetry_Int_Tables_number   1
_chemical_formula_structural   Zn2H32C47N2ClO8
_chemical_formula_sum   'Zn4 H64 C94 N4 Cl2 O16'
_cell_volume   8328.36039270
_cell_formula_units_Z   2
loop_
 _symmetry_equiv_pos_site_id
 _symmetry_equiv_pos_as_xyz
  1  'x, y, z'
loop_
 _atom_site_type_symbol
 _atom_site_label
 _atom_site_symmetry_multiplicity
 _atom_site_fract_x
 _atom_site_fract_y
 _atom_site_fract_z
 _atom_site_occupancy
  Zn  Zn1  1  0.50000000  0.50001000  0.59904000  1
  Zn  Zn2  1  0.50001000  0.50002000  0.40096000  1
  Zn  Zn3  1  0.87943000  0.49814000  0.40088000  1
  Zn  Zn4  1  0.87942000  0.49838000  0.59896000  1
  H  H1  1  0.55301000  0.41500000  0.26939000  1
  H  H2  1  0.55306000  0.41491000  0.12654000  1
  H  H3  1  0.44696000  0.58510000  0.12706000  1
  H  H4  1  0.55303000  0.41486000  0.87293000  1
  H  H5  1  0.44701000  0.58504000  0.73062000  1
  H  H6  1  0.44697000  0.58512000  0.87347000  1
  H  H7  1  0.50018000  0.25696000  0.62619000  1
  H  H8  1  0.50010000  0.12090000  0.62634000  1
  H  H9  1  0.49997000  0.12067000  0.37363000  1
  H  H10  1  0.49995000  0.87934000  0.62640000  1
  H  H11  1  0.49979000  0.74307000  0.37383000  1
  H  H12  1  0.49986000  0.87913000  0.37368000  1
  H  H13  1  0.76968000  0.59509000  0.60093000  1
  H  H14  1  0.60923000  0.59583000  0.60077000  1
  H  H15  1  0.65123000  0.41805000  0.41446000  1
  H  H16  1  0.72863000  0.41769000  0.41453000  1
  H  H17  1  0.03053000  0.49787000  0.37359000  1
  H  H18  1  0.11496000  0.49838000  0.37353000  1
  H  H19  1  0.11457000  0.49816000  0.62625000  1
  H  H20  1  0.26487000  0.49932000  0.37365000  1
  H  H21  1  0.34889000  0.49951000  0.62632000  1
  H  H22  1  0.26446000  0.49901000  0.62637000  1
  H  H23  1  0.82658000  0.41285000  0.73051000  1
  H  H24  1  0.82653000  0.41292000  0.87336000  1
  H  H25  1  0.93231000  0.58214000  0.87288000  1
  H  H26  1  0.82656000  0.41317000  0.12697000  1
  H  H27  1  0.93225000  0.58254000  0.26932000  1
  H  H28  1  0.93229000  0.58245000  0.12647000  1
  H  H29  1  0.87780000  0.25508000  0.37390000  1
  H  H30  1  0.87813000  0.11901000  0.37371000  1
  H  H31  1  0.87827000  0.11908000  0.62643000  1
  H  H32  1  0.87875000  0.87745000  0.37361000  1
  H  H33  1  0.87917000  0.74147000  0.62615000  1
  H  H34  1  0.87884000  0.87754000  0.62632000  1
  H  H35  1  0.40340000  0.59212000  0.27062000  1
  H  H36  1  0.43920000  0.59775000  0.34166000  1
  H  H37  1  0.44233000  0.65528000  0.27032000  1
  H  H38  1  0.55756000  0.34469000  0.72947000  1
  H  H39  1  0.56089000  0.40240000  0.65832000  1
  H  H40  1  0.59658000  0.40769000  0.72956000  1
  H  H41  1  0.47230000  0.25744000  0.31645000  1
  H  H42  1  0.50015000  0.32503000  0.35495000  1
  H  H43  1  0.52766000  0.25678000  0.31605000  1
  H  H44  1  0.47218000  0.74304000  0.68384000  1
  H  H45  1  0.49992000  0.67498000  0.64505000  1
  H  H46  1  0.52754000  0.74275000  0.68368000  1
  H  H47  1  0.02950000  0.54226000  0.68356000  1
  H  H48  1  0.98771000  0.49726000  0.64478000  1
  H  H49  1  0.03006000  0.45305000  0.68350000  1
  H  H50  1  0.34949000  0.54455000  0.31653000  1
  H  H51  1  0.39172000  0.49997000  0.35514000  1
  H  H52  1  0.34983000  0.45534000  0.31624000  1
  H  H53  1  0.97585000  0.58859000  0.72932000  1
  H  H54  1  0.94004000  0.59446000  0.65828000  1
  H  H55  1  0.93680000  0.65210000  0.72963000  1
  H  H56  1  0.82217000  0.34321000  0.27042000  1
  H  H57  1  0.81872000  0.40103000  0.34158000  1
  H  H58  1  0.78302000  0.40657000  0.27034000  1
  H  H59  1  0.90568000  0.25565000  0.68364000  1
  H  H60  1  0.87770000  0.32346000  0.64515000  1
  H  H61  1  0.85032000  0.25551000  0.68403000  1
  H  H62  1  0.90678000  0.74083000  0.31613000  1
  H  H63  1  0.87917000  0.67306000  0.35491000  1
  H  H64  1  0.85142000  0.74105000  0.31629000  1
  C  C1  1  0.50017000  0.35159000  0.49993000  1
  C  C2  1  0.59211000  0.49976000  0.49987000  1
  C  C3  1  0.49979000  0.64844000  0.50008000  1
  C  C4  1  0.40789000  0.50000000  0.50014000  1
  C  C5  1  0.87954000  0.34984000  0.49996000  1
  C  C6  1  0.78731000  0.49886000  0.50006000  1
  C  C7  1  0.87935000  0.64669000  0.49988000  1
  C  C8  1  0.97154000  0.49740000  0.49979000  1
  C  C9  1  0.53045000  0.45119000  0.24030000  1
  C  C10  1  0.53053000  0.45104000  0.15617000  1
  C  C11  1  0.50001000  0.50000000  0.11369000  1
  C  C12  1  0.46948000  0.54898000  0.15647000  1
  C  C13  1  0.46957000  0.54884000  0.24060000  1
  C  C14  1  0.50001000  0.50000000  0.03572000  1
  C  C15  1  0.50001000  0.49999000  0.96428000  1
  C  C16  1  0.50000000  0.49999000  0.88631000  1
  C  C17  1  0.53052000  0.45101000  0.84353000  1
  C  C18  1  0.53042000  0.45116000  0.75940000  1
  C  C19  1  0.46957000  0.54884000  0.75971000  1
  C  C20  1  0.46948000  0.54898000  0.84384000  1
  C  C21  1  0.50012000  0.27095000  0.49995000  1
  C  C22  1  0.50014000  0.22910000  0.57245000  1
  C  C23  1  0.50009000  0.14897000  0.57269000  1
  C  C24  1  0.50003000  0.10830000  0.49999000  1
  C  C25  1  0.50001000  0.14884000  0.42727000  1
  C  C26  1  0.50006000  0.22897000  0.42746000  1
  C  C27  1  0.49999000  0.03403000  0.50001000  1
  C  C28  1  0.49995000  0.96599000  0.50003000  1
  C  C29  1  0.49991000  0.89173000  0.50004000  1
  C  C30  1  0.49991000  0.85118000  0.57275000  1
  C  C31  1  0.49987000  0.77104000  0.57255000  1
  C  C32  1  0.49983000  0.72908000  0.50006000  1
  C  C33  1  0.49982000  0.77093000  0.42756000  1
  C  C34  1  0.49987000  0.85106000  0.42734000  1
  C  C35  1  0.73577000  0.49910000  0.50000000  1
  C  C36  1  0.71147000  0.54851000  0.55171000  1
  C  C37  1  0.71174000  0.44992000  0.44826000  1
  C  C38  1  0.73688000  0.59654000  0.60226000  1
  C  C39  1  0.71403000  0.64651000  0.65456000  1
  C  C40  1  0.64365000  0.49953000  0.49992000  1
  C  C41  1  0.66795000  0.45012000  0.44821000  1
  C  C42  1  0.66769000  0.54871000  0.55166000  1
  C  C43  1  0.64202000  0.59698000  0.60216000  1
  C  C44  1  0.66460000  0.64674000  0.65451000  1
  C  C45  1  0.02158000  0.49771000  0.49982000  1
  C  C46  1  0.04770000  0.49793000  0.42735000  1
  C  C47  1  0.09743000  0.49823000  0.42717000  1
  C  C48  1  0.12251000  0.49832000  0.49990000  1
  C  C49  1  0.09720000  0.49810000  0.57259000  1
  C  C50  1  0.04747000  0.49780000  0.57234000  1
  C  C51  1  0.16860000  0.49859000  0.49993000  1
  C  C52  1  0.21083000  0.49884000  0.49996000  1
  C  C53  1  0.25691000  0.49912000  0.50000000  1
  C  C54  1  0.28223000  0.49936000  0.42731000  1
  C  C55  1  0.33196000  0.49965000  0.42757000  1
  C  C56  1  0.35785000  0.49971000  0.50009000  1
  C  C57  1  0.33172000  0.49947000  0.57256000  1
  C  C58  1  0.28199000  0.49918000  0.57273000  1
  C  C59  1  0.84907000  0.44887000  0.75961000  1
  C  C60  1  0.84898000  0.44881000  0.84374000  1
  C  C61  1  0.87942000  0.49754000  0.88623000  1
  C  C62  1  0.90985000  0.54618000  0.84346000  1
  C  C63  1  0.90976000  0.54595000  0.75933000  1
  C  C64  1  0.87942000  0.49763000  0.96420000  1
  C  C65  1  0.87942000  0.49770000  0.03564000  1
  C  C66  1  0.87942000  0.49780000  0.11361000  1
  C  C67  1  0.84900000  0.44914000  0.15638000  1
  C  C68  1  0.84910000  0.44939000  0.24051000  1
  C  C69  1  0.90976000  0.54650000  0.24023000  1
  C  C70  1  0.90985000  0.54655000  0.15609000  1
  C  C71  1  0.87783000  0.26921000  0.50014000  1
  C  C72  1  0.87789000  0.22728000  0.42763000  1
  C  C73  1  0.87809000  0.14714000  0.42737000  1
  C  C74  1  0.87823000  0.10656000  0.50006000  1
  C  C75  1  0.87817000  0.14718000  0.57279000  1
  C  C76  1  0.87797000  0.22732000  0.57262000  1
  C  C77  1  0.87841000  0.03229000  0.50003000  1
  C  C78  1  0.87858000  0.96425000  0.49999000  1
  C  C79  1  0.87876000  0.88998000  0.49997000  1
  C  C80  1  0.87884000  0.84935000  0.42724000  1
  C  C81  1  0.87903000  0.76921000  0.42743000  1
  C  C82  1  0.87916000  0.72733000  0.49991000  1
  C  C83  1  0.87908000  0.76926000  0.57242000  1
  C  C84  1  0.87889000  0.84940000  0.57266000  1
  C  C85  1  0.43536000  0.60373000  0.28504000  1
  C  C86  1  0.56463000  0.39625000  0.71495000  1
  C  C87  1  0.50004000  0.27107000  0.34595000  1
  C  C88  1  0.49988000  0.72894000  0.65406000  1
  C  C89  1  0.02118000  0.49757000  0.65382000  1
  C  C90  1  0.35826000  0.49990000  0.34610000  1
  C  C91  1  0.94387000  0.60048000  0.71490000  1
  C  C92  1  0.81500000  0.39484000  0.28495000  1
  C  C93  1  0.87791000  0.26951000  0.65413000  1
  C  C94  1  0.87911000  0.72701000  0.34591000  1
  N  N1  1  0.50001000  0.50002000  0.28445000  1
  N  N2  1  0.50000000  0.50000000  0.71555000  1
  N  N3  1  0.87941000  0.49736000  0.71547000  1
  N  N4  1  0.87943000  0.49800000  0.28437000  1
  Cl  Cl1  1  0.74617000  0.70691000  0.71813000  1
  Cl  Cl2  1  0.63214000  0.70744000  0.71802000  1
  O  O1  1  0.50034000  0.39025000  0.58111000  1
  O  O2  1  0.50011000  0.39027000  0.41872000  1
  O  O3  1  0.56809000  0.49983000  0.41864000  1
  O  O4  1  0.56812000  0.49992000  0.58104000  1
  O  O5  1  0.49975000  0.60978000  0.41888000  1
  O  O6  1  0.49980000  0.60975000  0.58128000  1
  O  O7  1  0.43191000  0.50004000  0.58136000  1
  O  O8  1  0.43188000  0.50023000  0.41896000  1
  O  O9  1  0.87929000  0.38841000  0.41878000  1
  O  O10  1  0.87952000  0.38862000  0.58117000  1
  O  O11  1  0.81133000  0.49880000  0.58128000  1
  O  O12  1  0.81130000  0.49871000  0.41888000  1
  O  O13  1  0.87947000  0.60812000  0.58106000  1
  O  O14  1  0.87941000  0.60791000  0.41867000  1
  O  O15  1  0.94752000  0.49757000  0.41856000  1
  O  O16  1  0.94754000  0.49795000  0.58096000  1
