# generated using pymatgen
data_Cu2H24C42S5N3O23
_symmetry_space_group_name_H-M   'P 1'
_cell_length_a   27.91540000
_cell_length_b   17.37220000
_cell_length_c   15.85000000
_cell_angle_alpha   89.99440000
_cell_angle_beta   89.99310000
_cell_angle_gamma   89.86600000
_symmetry_Int_Tables_number   1
_chemical_formula_structural   Cu2H24C42S5N3O23
_chemical_formula_sum   'Cu4 H48 C84 S10 N6 O46'
_cell_volume   7686.46668964
_cell_formula_units_Z   2
loop_
 _symmetry_equiv_pos_site_id
 _symmetry_equiv_pos_as_xyz
  1  'x, y, z'
loop_
 _atom_site_type_symbol
 _atom_site_label
 _atom_site_symmetry_multiplicity
 _atom_site_fract_x
 _atom_site_fract_y
 _atom_site_fract_z
 _atom_site_occupancy
  Cu  Cu1  1  0.50001000  0.50000000  0.41971000  1
  Cu  Cu2  1  0.50000000  0.49999000  0.58029000  1
  Cu  Cu3  1  0.87768000  0.49944000  0.58030000  1
  Cu  Cu4  1  0.87769000  0.49999000  0.41972000  1
  H  H1  1  0.44646000  0.58616000  0.28476000  1
  H  H2  1  0.44640000  0.58623000  0.13391000  1
  H  H3  1  0.55356000  0.41384000  0.28474000  1
  H  H4  1  0.44642000  0.58612000  0.71525000  1
  H  H5  1  0.55356000  0.41386000  0.71525000  1
  H  H6  1  0.55361000  0.41378000  0.86610000  1
  H  H7  1  0.49994000  0.25981000  0.36670000  1
  H  H8  1  0.49991000  0.12219000  0.36656000  1
  H  H9  1  0.50013000  0.25977000  0.63331000  1
  H  H10  1  0.49983000  0.74021000  0.36668000  1
  H  H11  1  0.50008000  0.74019000  0.63329000  1
  H  H12  1  0.50009000  0.87782000  0.63342000  1
  H  H13  1  0.77011000  0.59706000  0.39368000  1
  H  H14  1  0.60737000  0.59719000  0.39366000  1
  H  H15  1  0.64968000  0.41729000  0.59008000  1
  H  H16  1  0.72818000  0.41723000  0.59009000  1
  H  H17  1  0.02716000  0.49967000  0.63332000  1
  H  H18  1  0.11280000  0.49976000  0.63345000  1
  H  H19  1  0.02718000  0.49997000  0.36670000  1
  H  H20  1  0.35052000  0.50002000  0.63332000  1
  H  H21  1  0.35053000  0.50023000  0.36671000  1
  H  H22  1  0.26488000  0.50015000  0.36658000  1
  H  H23  1  0.93102000  0.58849000  0.71559000  1
  H  H24  1  0.93109000  0.58805000  0.86644000  1
  H  H25  1  0.82433000  0.41634000  0.71494000  1
  H  H26  1  0.93106000  0.58650000  0.28510000  1
  H  H27  1  0.82433000  0.41440000  0.28442000  1
  H  H28  1  0.82428000  0.41484000  0.13358000  1
  H  H29  1  0.87597000  0.25907000  0.63629000  1
  H  H30  1  0.87632000  0.12144000  0.63589000  1
  H  H31  1  0.87578000  0.25995000  0.36967000  1
  H  H32  1  0.87730000  0.73947000  0.63427000  1
  H  H33  1  0.87705000  0.74036000  0.36766000  1
  H  H34  1  0.87671000  0.87799000  0.36807000  1
  H  H35  1  0.62163000  0.41114000  0.01810000  1
  H  H36  1  0.44480000  0.69554000  0.98185000  1
  H  H37  1  0.54720000  0.01631000  0.71991000  1
  H  H38  1  0.54682000  0.98327000  0.27979000  1
  H  H39  1  0.17871000  0.42462000  0.27989000  1
  H  H40  1  0.19927000  0.42423000  0.72001000  1
  H  H41  1  0.75626000  0.41282000  0.98157000  1
  H  H42  1  0.93243000  0.69683000  0.01893000  1
  H  H43  1  0.82928000  0.01685000  0.28212000  1
  H  H44  1  0.82973000  0.98230000  0.72211000  1
  H  H45  1  0.77367000  0.67929000  0.24545000  1
  H  H46  1  0.73057000  0.76241000  0.27158000  1
  H  H47  1  0.60358000  0.73273000  0.30408000  1
  H  H48  1  0.64662000  0.70916000  0.21293000  1
  C  C1  1  0.58984000  0.49982000  0.50000000  1
  C  C2  1  0.41016000  0.50017000  0.50001000  1
  C  C3  1  0.49995000  0.64436000  0.49999000  1
  C  C4  1  0.50006000  0.35563000  0.50001000  1
  C  C5  1  0.78784000  0.49968000  0.50001000  1
  C  C6  1  0.96753000  0.49975000  0.50000000  1
  C  C7  1  0.87740000  0.64408000  0.50059000  1
  C  C8  1  0.87797000  0.35535000  0.49943000  1
  C  C9  1  0.46926000  0.54948000  0.25392000  1
  C  C10  1  0.46916000  0.54962000  0.16508000  1
  C  C11  1  0.50000000  0.49999000  0.12006000  1
  C  C12  1  0.53084000  0.45037000  0.16507000  1
  C  C13  1  0.53076000  0.45052000  0.25391000  1
  C  C14  1  0.49999000  0.50000000  0.03772000  1
  C  C15  1  0.49999000  0.50000000  0.96228000  1
  C  C16  1  0.49999000  0.49999000  0.87995000  1
  C  C17  1  0.46914000  0.54960000  0.83493000  1
  C  C18  1  0.46923000  0.54945000  0.74608000  1
  C  C19  1  0.53075000  0.45053000  0.74608000  1
  C  C20  1  0.53084000  0.45038000  0.83493000  1
  C  C21  1  0.50004000  0.27406000  0.50001000  1
  C  C22  1  0.49998000  0.23168000  0.42345000  1
  C  C23  1  0.49996000  0.15062000  0.42322000  1
  C  C24  1  0.50001000  0.10953000  0.49999000  1
  C  C25  1  0.50007000  0.15059000  0.57678000  1
  C  C26  1  0.50009000  0.23165000  0.57656000  1
  C  C27  1  0.50000000  0.03441000  0.49999000  1
  C  C28  1  0.49999000  0.96558000  0.49998000  1
  C  C29  1  0.49997000  0.89046000  0.49998000  1
  C  C30  1  0.49990000  0.84939000  0.42320000  1
  C  C31  1  0.49989000  0.76833000  0.42343000  1
  C  C32  1  0.49995000  0.72593000  0.49999000  1
  C  C33  1  0.50003000  0.76832000  0.57654000  1
  C  C34  1  0.50004000  0.84938000  0.57677000  1
  C  C35  1  0.73557000  0.49972000  0.50001000  1
  C  C36  1  0.71100000  0.54966000  0.44549000  1
  C  C37  1  0.71110000  0.44981000  0.55453000  1
  C  C38  1  0.73685000  0.59841000  0.39224000  1
  C  C39  1  0.71376000  0.64893000  0.33708000  1
  C  C40  1  0.64212000  0.49979000  0.50000000  1
  C  C41  1  0.66666667  0.44984000  0.55452000  1
  C  C42  1  0.66659000  0.54969000  0.44548000  1
  C  C43  1  0.64063000  0.59848000  0.39223000  1
  C  C44  1  0.66361000  0.64897000  0.33708000  1
  C  C45  1  0.01829000  0.49981000  0.50001000  1
  C  C46  1  0.04467000  0.49975000  0.57656000  1
  C  C47  1  0.09511000  0.49980000  0.57679000  1
  C  C48  1  0.12068000  0.49991000  0.50002000  1
  C  C49  1  0.09512000  0.49997000  0.42323000  1
  C  C50  1  0.04468000  0.49992000  0.42346000  1
  C  C51  1  0.16743000  0.49996000  0.50002000  1
  C  C52  1  0.21026000  0.50000000  0.50003000  1
  C  C53  1  0.25701000  0.50004000  0.50002000  1
  C  C54  1  0.28257000  0.50001000  0.57680000  1
  C  C55  1  0.33301000  0.50005000  0.57657000  1
  C  C56  1  0.35940000  0.50013000  0.50001000  1
  C  C57  1  0.33302000  0.50017000  0.42346000  1
  C  C58  1  0.28257000  0.50012000  0.42324000  1
  C  C59  1  0.90831000  0.55174000  0.74629000  1
  C  C60  1  0.90841000  0.55158000  0.83513000  1
  C  C61  1  0.87769000  0.50185000  0.87996000  1
  C  C62  1  0.84696000  0.45242000  0.83475000  1
  C  C63  1  0.84704000  0.45288000  0.74591000  1
  C  C64  1  0.87769000  0.50156000  0.96230000  1
  C  C65  1  0.87770000  0.50131000  0.03773000  1
  C  C66  1  0.87770000  0.50102000  0.12007000  1
  C  C67  1  0.90843000  0.55042000  0.16528000  1
  C  C68  1  0.90834000  0.54997000  0.25412000  1
  C  C69  1  0.84705000  0.45114000  0.25374000  1
  C  C70  1  0.84696000  0.45130000  0.16489000  1
  C  C71  1  0.87584000  0.27377000  0.50304000  1
  C  C72  1  0.87600000  0.23113000  0.57943000  1
  C  C73  1  0.87621000  0.15007000  0.57934000  1
  C  C74  1  0.87625000  0.10925000  0.50240000  1
  C  C75  1  0.87609000  0.15057000  0.42578000  1
  C  C76  1  0.87589000  0.23163000  0.42632000  1
  C  C77  1  0.87644000  0.03413000  0.50212000  1
  C  C78  1  0.87661000  0.96530000  0.50186000  1
  C  C79  1  0.87680000  0.89018000  0.50156000  1
  C  C80  1  0.87697000  0.84885000  0.57817000  1
  C  C81  1  0.87717000  0.76779000  0.57763000  1
  C  C82  1  0.87721000  0.72565000  0.50091000  1
  C  C83  1  0.87703000  0.76830000  0.42452000  1
  C  C84  1  0.87683000  0.84936000  0.42461000  1
  S  S1  1  0.56959000  0.38803000  0.11198000  1
  S  S2  1  0.43037000  0.61192000  0.88800000  1
  S  S3  1  0.50013000  0.10215000  0.67323000  1
  S  S4  1  0.49981000  0.89782000  0.32675000  1
  S  S5  1  0.12527000  0.50011000  0.32678000  1
  S  S6  1  0.25243000  0.49990000  0.67326000  1
  S  S7  1  0.80836000  0.38996000  0.88759000  1
  S  S8  1  0.94705000  0.61287000  0.11245000  1
  S  S9  1  0.87615000  0.10247000  0.32914000  1
  S  S10  1  0.87695000  0.89694000  0.67482000  1
  N  N1  1  0.50001000  0.50000000  0.30038000  1
  N  N2  1  0.49999000  0.49999000  0.69962000  1
  N  N3  1  0.87767000  0.50247000  0.69964000  1
  N  N4  1  0.87770000  0.50040000  0.30039000  1
  N  N5  1  0.74181000  0.70152000  0.27963000  1
  N  N6  1  0.63545000  0.70160000  0.27962000  1
  O  O1  1  0.56229000  0.49997000  0.42512000  1
  O  O2  1  0.43759000  0.50025000  0.42513000  1
  O  O3  1  0.49988000  0.60030000  0.42512000  1
  O  O4  1  0.50001000  0.39992000  0.42513000  1
  O  O5  1  0.50011000  0.39969000  0.57488000  1
  O  O6  1  0.50001000  0.60007000  0.57487000  1
  O  O7  1  0.43766000  0.50012000  0.57488000  1
  O  O8  1  0.56241000  0.49972000  0.57487000  1
  O  O9  1  0.81540000  0.49953000  0.57489000  1
  O  O10  1  0.94010000  0.49962000  0.57488000  1
  O  O11  1  0.87758000  0.59976000  0.57529000  1
  O  O12  1  0.87792000  0.39938000  0.57449000  1
  O  O13  1  0.87781000  0.39967000  0.42473000  1
  O  O14  1  0.87744000  0.60005000  0.42553000  1
  O  O15  1  0.94003000  0.50001000  0.42513000  1
  O  O16  1  0.81528000  0.49979000  0.42514000  1
  O  O17  1  0.61770000  0.43505000  0.07361000  1
  O  O18  1  0.58919000  0.32025000  0.17016000  1
  O  O19  1  0.54485000  0.35016000  0.03172000  1
  O  O20  1  0.45968000  0.68919000  0.92633000  1
  O  O21  1  0.38821000  0.64347000  0.82983000  1
  O  O22  1  0.40679000  0.57220000  0.96829000  1
  O  O23  1  0.55493000  0.06693000  0.69648000  1
  O  O24  1  0.48424000  0.15528000  0.75014000  1
  O  O25  1  0.46593000  0.02905000  0.67189000  1
  O  O26  1  0.55458000  0.93259000  0.30319000  1
  O  O27  1  0.48378000  0.84482000  0.24993000  1
  O  O28  1  0.46563000  0.97121000  0.32827000  1
  O  O29  1  0.14721000  0.41212000  0.30329000  1
  O  O30  1  0.09220000  0.52580000  0.24994000  1
  O  O31  1  0.17075000  0.55510000  0.32827000  1
  O  O32  1  0.23081000  0.41183000  0.69657000  1
  O  O33  1  0.28541000  0.52552000  0.75014000  1
  O  O34  1  0.20675000  0.55481000  0.67189000  1
  O  O35  1  0.76014000  0.43692000  0.92615000  1
  O  O36  1  0.78891000  0.32241000  0.82915000  1
  O  O37  1  0.83319000  0.35178000  0.96771000  1
  O  O38  1  0.91756000  0.69031000  0.07442000  1
  O  O39  1  0.98914000  0.64416000  0.17075000  1
  O  O40  1  0.97073000  0.57340000  0.03201000  1
  O  O41  1  0.82143000  0.06740000  0.30576000  1
  O  O42  1  0.89191000  0.15584000  0.25244000  1
  O  O43  1  0.91052000  0.02931000  0.33020000  1
  O  O44  1  0.82210000  0.93171000  0.69851000  1
  O  O45  1  0.89311000  0.84365000  0.75143000  1
  O  O46  1  0.91096000  0.97029000  0.67358000  1
