# generated using pymatgen
data_CrH4C8NO7
_symmetry_space_group_name_H-M   'P 1'
_cell_length_a   22.19710000
_cell_length_b   15.28410000
_cell_length_c   6.81200000
_cell_angle_alpha   90.00000000
_cell_angle_beta   90.00040000
_cell_angle_gamma   46.47850000
_symmetry_Int_Tables_number   1
_chemical_formula_structural   CrH4C8NO7
_chemical_formula_sum   'Cr4 H16 C32 N4 O28'
_cell_volume   1675.78480099
_cell_formula_units_Z   4
loop_
 _symmetry_equiv_pos_site_id
 _symmetry_equiv_pos_as_xyz
  1  'x, y, z'
loop_
 _atom_site_type_symbol
 _atom_site_label
 _atom_site_symmetry_multiplicity
 _atom_site_fract_x
 _atom_site_fract_y
 _atom_site_fract_z
 _atom_site_occupancy
  Cr  Cr1  1  0.50001000  0.49998000  0.00000000  1
  Cr  Cr2  1  0.50001000  0.49998000  0.50000000  1
  Cr  Cr3  1  0.00006000  0.49985000  0.00000000  1
  Cr  Cr4  1  0.00007000  0.49984000  0.50000000  1
  H  H1  1  0.49994000  0.38339000  0.25000000  1
  H  H2  1  0.50001000  0.61669000  0.75000000  1
  H  H3  1  0.00013000  0.61644000  0.25000000  1
  H  H4  1  0.00006000  0.38313000  0.75000000  1
  H  H5  1  0.80422000  0.49728000  0.54813000  1
  H  H6  1  0.80422000  0.49728000  0.95187000  1
  H  H7  1  0.69585000  0.50254000  0.54813000  1
  H  H8  1  0.19588000  0.50249000  0.45187000  1
  H  H9  1  0.19588000  0.50248000  0.04813000  1
  H  H10  1  0.30420000  0.49733000  0.45187000  1
  H  H11  1  0.80412000  0.89424000  0.04813000  1
  H  H12  1  0.80412000  0.89424000  0.45187000  1
  H  H13  1  0.69579000  0.10574000  0.04813000  1
  H  H14  1  0.19582000  0.10584000  0.95187000  1
  H  H15  1  0.19583000  0.10584000  0.54813000  1
  H  H16  1  0.30416000  0.89434000  0.95187000  1
  C  C1  1  0.61902000  0.50627000  0.25000000  1
  C  C2  1  0.38098000  0.74438000  0.25000000  1
  C  C3  1  0.61898000  0.25570000  0.75000000  1
  C  C4  1  0.38100000  0.49368000  0.75000000  1
  C  C5  1  0.88105000  0.49355000  0.25000000  1
  C  C6  1  0.11910000  0.25544000  0.25000000  1
  C  C7  1  0.88110000  0.74412000  0.75000000  1
  C  C8  1  0.11908000  0.50614000  0.75000000  1
  C  C9  1  0.68547000  0.50305000  0.25000000  1
  C  C10  1  0.81460000  0.49678000  0.25000000  1
  C  C11  1  0.71797000  0.50147000  0.07393000  1
  C  C12  1  0.78210000  0.49835000  0.42607000  1
  C  C13  1  0.78210000  0.49836000  0.07393000  1
  C  C14  1  0.71797000  0.50147000  0.42607000  1
  C  C15  1  0.31458000  0.49684000  0.75000000  1
  C  C16  1  0.18550000  0.50298000  0.75000000  1
  C  C17  1  0.28209000  0.49838000  0.92607000  1
  C  C18  1  0.21799000  0.50144000  0.57393000  1
  C  C19  1  0.21799000  0.50143000  0.92607000  1
  C  C20  1  0.28208000  0.49839000  0.57393000  1
  C  C21  1  0.68541000  0.12601000  0.75000000  1
  C  C22  1  0.81450000  0.87398000  0.75000000  1
  C  C23  1  0.71790000  0.06257000  0.57393000  1
  C  C24  1  0.78201000  0.93742000  0.92607000  1
  C  C25  1  0.78200000  0.93742000  0.57393000  1
  C  C26  1  0.71790000  0.06257000  0.92607000  1
  C  C27  1  0.31454000  0.87407000  0.25000000  1
  C  C28  1  0.18545000  0.12610000  0.25000000  1
  C  C29  1  0.28205000  0.93752000  0.42607000  1
  C  C30  1  0.21794000  0.06266000  0.07393000  1
  C  C31  1  0.21794000  0.06266000  0.42607000  1
  C  C32  1  0.28205000  0.93752000  0.07393000  1
  N  N1  1  0.68313000  0.50316000  0.88172000  1
  N  N2  1  0.31691000  0.49673000  0.11827000  1
  N  N3  1  0.68308000  0.13056000  0.38173000  1
  N  N4  1  0.31688000  0.86952000  0.61827000  1
  O  O1  1  0.42034000  0.66753000  0.09395000  1
  O  O2  1  0.57964000  0.50819000  0.09395000  1
  O  O3  1  0.57964000  0.50819000  0.40605000  1
  O  O4  1  0.57961000  0.33255000  0.59395000  1
  O  O5  1  0.42036000  0.49181000  0.90605000  1
  O  O6  1  0.42035000  0.49181000  0.59395000  1
  O  O7  1  0.57961000  0.33255000  0.90605000  1
  O  O8  1  0.42034000  0.66753000  0.40605000  1
  O  O9  1  0.50000000  0.44541000  0.25000000  1
  O  O10  1  0.50001000  0.55461000  0.75000000  1
  O  O11  1  0.07973000  0.33229000  0.09395000  1
  O  O12  1  0.92043000  0.49164000  0.09395000  1
  O  O13  1  0.92043000  0.49164000  0.40605000  1
  O  O14  1  0.92046000  0.66727000  0.59395000  1
  O  O15  1  0.07972000  0.50801000  0.90605000  1
  O  O16  1  0.07972000  0.50801000  0.59395000  1
  O  O17  1  0.92046000  0.66727000  0.90605000  1
  O  O18  1  0.07973000  0.33229000  0.40605000  1
  O  O19  1  0.00007000  0.55441000  0.25000000  1
  O  O20  1  0.00006000  0.44521000  0.75000000  1
  O  O21  1  0.66514000  0.42694000  0.85666000  1
  O  O22  1  0.66711000  0.58104000  0.71915000  1
  O  O23  1  0.40773000  0.41527000  0.14334000  1
  O  O24  1  0.26009000  0.57656000  0.28084000  1
  O  O25  1  0.59225000  0.23075000  0.35666000  1
  O  O26  1  0.73989000  0.09675000  0.21915000  1
  O  O27  1  0.33484000  0.75734000  0.64334000  1
  O  O28  1  0.33292000  0.91532000  0.78084000  1
