# generated using pymatgen
data_Zn4H23C48N4(ClO4)5
_symmetry_space_group_name_H-M   'P 1'
_cell_length_a   28.47350000
_cell_length_b   10.90060000
_cell_length_c   10.01700000
_cell_angle_alpha   90.03580000
_cell_angle_beta   89.87020000
_cell_angle_gamma   89.86660000
_symmetry_Int_Tables_number   1
_chemical_formula_structural   Zn4H23C48N4(ClO4)5
_chemical_formula_sum   'Zn4 H23 C48 N4 Cl5 O20'
_cell_volume   3109.04174879
_cell_formula_units_Z   1
loop_
 _symmetry_equiv_pos_site_id
 _symmetry_equiv_pos_as_xyz
  1  'x, y, z'
loop_
 _atom_site_type_symbol
 _atom_site_label
 _atom_site_symmetry_multiplicity
 _atom_site_fract_x
 _atom_site_fract_y
 _atom_site_fract_z
 _atom_site_occupancy
  Zn  Zn1  1  0.50000000  0.50002000  0.66548000  1
  Zn  Zn2  1  0.50000000  0.50001000  0.33451000  1
  Zn  Zn3  1  0.11717000  0.49785000  0.33473000  1
  Zn  Zn4  1  0.11716000  0.49812000  0.66570000  1
  H  H1  1  0.55062000  0.36843000  0.11692000  1
  H  H2  1  0.44940000  0.63159000  0.11777000  1
  H  H3  1  0.55061000  0.36844000  0.88223000  1
  H  H4  1  0.50008000  0.10802000  0.70271000  1
  H  H5  1  0.49999000  0.10768000  0.29723000  1
  H  H6  1  0.49997000  0.89236000  0.70277000  1
  H  H7  1  0.96730000  0.49865000  0.28940000  1
  H  H8  1  0.96688000  0.49879000  0.71127000  1
  H  H9  1  0.65028000  0.49962000  0.28890000  1
  H  H10  1  0.64987000  0.49990000  0.71077000  1
  H  H11  1  0.26750000  0.49800000  0.29733000  1
  H  H12  1  0.26711000  0.49756000  0.70280000  1
  H  H13  1  0.35006000  0.49909000  0.29743000  1
  H  H14  1  0.06668000  0.36622000  0.88323000  1
  H  H15  1  0.16768000  0.62872000  0.88251000  1
  H  H16  1  0.06667000  0.36642000  0.11792000  1
  H  H17  1  0.11659000  0.10582000  0.29774000  1
  H  H18  1  0.11667000  0.10582000  0.70322000  1
  H  H19  1  0.11688000  0.89015000  0.29759000  1
  H  H20  1  0.83621000  0.49921000  0.73566000  1
  H  H21  1  0.83668000  0.49905000  0.26456000  1
  H  H22  1  0.78049000  0.49947000  0.73557000  1
  H  H23  1  0.78095000  0.49916000  0.26447000  1
  C  C1  1  0.50012000  0.26075000  0.49992000  1
  C  C2  1  0.59161000  0.49997000  0.49975000  1
  C  C3  1  0.49985000  0.73928000  0.50008000  1
  C  C4  1  0.40840000  0.49964000  0.50025000  1
  C  C5  1  0.11724000  0.25872000  0.50020000  1
  C  C6  1  0.02556000  0.49854000  0.50043000  1
  C  C7  1  0.11712000  0.73725000  0.50022000  1
  C  C8  1  0.20877000  0.49701000  0.49999000  1
  C  C9  1  0.47011000  0.57773000  0.93082000  1
  C  C10  1  0.52990000  0.42230000  0.06918000  1
  C  C11  1  0.47012000  0.57772000  0.06968000  1
  C  C12  1  0.52990000  0.42231000  0.93031000  1
  C  C13  1  0.49992000  0.87152000  0.50004000  1
  C  C14  1  0.50005000  0.12851000  0.49996000  1
  C  C15  1  0.49992000  0.93611000  0.38028000  1
  C  C16  1  0.50004000  0.06392000  0.61972000  1
  C  C17  1  0.49999000  0.06372000  0.38025000  1
  C  C18  1  0.49998000  0.93631000  0.61976000  1
  C  C19  1  0.97579000  0.49870000  0.50035000  1
  C  C20  1  0.95005000  0.49873000  0.37917000  1
  C  C21  1  0.90060000  0.49889000  0.37873000  1
  C  C22  1  0.87541000  0.49901000  0.50018000  1
  C  C23  1  0.90035000  0.49897000  0.62171000  1
  C  C24  1  0.94981000  0.49882000  0.62144000  1
  C  C25  1  0.82958000  0.49916000  0.50010000  1
  C  C26  1  0.78759000  0.49930000  0.50003000  1
  C  C27  1  0.74175000  0.49945000  0.49997000  1
  C  C28  1  0.71681000  0.49945000  0.37844000  1
  C  C29  1  0.66736000  0.49962000  0.37872000  1
  C  C30  1  0.64137000  0.49979000  0.49982000  1
  C  C31  1  0.66712000  0.49978000  0.62099000  1
  C  C32  1  0.71658000  0.49961000  0.62142000  1
  C  C33  1  0.35777000  0.49897000  0.50018000  1
  C  C34  1  0.25939000  0.49767000  0.50006000  1
  C  C35  1  0.33289000  0.49852000  0.61989000  1
  C  C36  1  0.28427000  0.49813000  0.38035000  1
  C  C37  1  0.28404000  0.49787000  0.61982000  1
  C  C38  1  0.33312000  0.49878000  0.38041000  1
  C  C39  1  0.14700000  0.57514000  0.06943000  1
  C  C40  1  0.08735000  0.41999000  0.93099000  1
  C  C41  1  0.14701000  0.57502000  0.93057000  1
  C  C42  1  0.08735000  0.42011000  0.06986000  1
  C  C43  1  0.11695000  0.86949000  0.50031000  1
  C  C44  1  0.11660000  0.12648000  0.50049000  1
  C  C45  1  0.11688000  0.93418000  0.62009000  1
  C  C46  1  0.11667000  0.06179000  0.38071000  1
  C  C47  1  0.11671000  0.06179000  0.62018000  1
  C  C48  1  0.11684000  0.93418000  0.38062000  1
  N  N1  1  0.50000000  0.50002000  0.86017000  1
  N  N2  1  0.50001000  0.50001000  0.13983000  1
  N  N3  1  0.11717000  0.49769000  0.14004000  1
  N  N4  1  0.11718000  0.49745000  0.86038000  1
  Cl  Cl1  1  0.43213000  0.67649000  0.84330000  1
  Cl  Cl2  1  0.49985000  0.85527000  0.22814000  1
  Cl  Cl3  1  0.36365000  0.49876000  0.77210000  1
  Cl  Cl4  1  0.18491000  0.67373000  0.15700000  1
  Cl  Cl5  1  0.11702000  0.85346000  0.77221000  1
  O  O1  1  0.50031000  0.32308000  0.63557000  1
  O  O2  1  0.50007000  0.32310000  0.36422000  1
  O  O3  1  0.56772000  0.49997000  0.36404000  1
  O  O4  1  0.56775000  0.50014000  0.63540000  1
  O  O5  1  0.49979000  0.67696000  0.36443000  1
  O  O6  1  0.49985000  0.67694000  0.63578000  1
  O  O7  1  0.43229000  0.49981000  0.63596000  1
  O  O8  1  0.43226000  0.50010000  0.36460000  1
  O  O9  1  0.11701000  0.32093000  0.36458000  1
  O  O10  1  0.11724000  0.32118000  0.63592000  1
  O  O11  1  0.04944000  0.49850000  0.63615000  1
  O  O12  1  0.04942000  0.49844000  0.36479000  1
  O  O13  1  0.11723000  0.67504000  0.63585000  1
  O  O14  1  0.11718000  0.67479000  0.36450000  1
  O  O15  1  0.18488000  0.49722000  0.36427000  1
  O  O16  1  0.18490000  0.49773000  0.63563000  1
  O  O17  1  0.87465000  0.49910000  0.75374000  1
  O  O18  1  0.87516000  0.49892000  0.24662000  1
  O  O19  1  0.74201000  0.49961000  0.75353000  1
  O  O20  1  0.74251000  0.49927000  0.24640000  1
