# generated using pymatgen
data_Li2Zn4H10C32S4O19
_symmetry_space_group_name_H-M   'P 1'
_cell_length_a   20.72040000
_cell_length_b   24.40820000
_cell_length_c   38.14490000
_cell_angle_alpha   79.71120000
_cell_angle_beta   74.23970000
_cell_angle_gamma   64.88980000
_symmetry_Int_Tables_number   1
_chemical_formula_structural   Li2Zn4H10C32S4O19
_chemical_formula_sum   'Li8 Zn16 H40 C128 S16 O76'
_cell_volume   16767.31891806
_cell_formula_units_Z   4
loop_
 _symmetry_equiv_pos_site_id
 _symmetry_equiv_pos_as_xyz
  1  'x, y, z'
loop_
 _atom_site_type_symbol
 _atom_site_label
 _atom_site_symmetry_multiplicity
 _atom_site_fract_x
 _atom_site_fract_y
 _atom_site_fract_z
 _atom_site_occupancy
  Li  Li1  1  0.33696000  0.03261000  0.67747000  1
  Li  Li2  1  0.16315000  0.71743000  0.57247000  1
  Li  Li3  1  0.85498000  0.87146000  0.41847000  1
  Li  Li4  1  0.64491000  0.37849000  0.33160000  1
  Li  Li5  1  0.64536000  0.68653000  0.02351000  1
  Li  Li6  1  0.85512000  0.56337000  0.72658000  1
  Li  Li7  1  0.54710000  0.21729000  0.07267000  1
  Li  Li8  1  0.95313000  0.53246000  0.17759000  1
  Zn  Zn1  1  0.39478000  0.54306000  0.51436000  1
  Zn  Zn2  1  0.52870000  0.49518000  0.44740000  1
  Zn  Zn3  1  0.52871000  0.41869000  0.52389000  1
  Zn  Zn4  1  0.54780000  0.54308000  0.51435000  1
  Zn  Zn5  1  0.10535000  0.20695000  0.73562000  1
  Zn  Zn6  1  0.97139000  0.33131000  0.72613000  1
  Zn  Zn7  1  0.97149000  0.25480000  0.80261000  1
  Zn  Zn8  1  0.95232000  0.20691000  0.73567000  1
  Zn  Zn9  1  0.97128000  0.75476000  0.30268000  1
  Zn  Zn10  1  0.95225000  0.70685000  0.23571000  1
  Zn  Zn11  1  0.10525000  0.70685000  0.23575000  1
  Zn  Zn12  1  0.97135000  0.83123000  0.22618000  1
  Zn  Zn13  1  0.52900000  0.91858000  0.02398000  1
  Zn  Zn14  1  0.54799000  0.04301000  0.01443000  1
  Zn  Zn15  1  0.39498000  0.04291000  0.01450000  1
  Zn  Zn16  1  0.52883000  0.99510000  0.94750000  1
  H  H1  1  0.03252000  0.04838000  0.68281000  1
  H  H2  1  0.09363000  0.95654000  0.65219000  1
  H  H3  1  0.29779000  0.95656000  0.65214000  1
  H  H4  1  0.20232000  0.79348000  0.59781000  1
  H  H5  1  0.46759000  0.70163000  0.56718000  1
  H  H6  1  0.40646000  0.79348000  0.59780000  1
  H  H7  1  0.86562000  0.00252000  0.26628000  1
  H  H8  1  0.80437000  0.09444000  0.29684000  1
  H  H9  1  0.80431000  0.99242000  0.39889000  1
  H  H10  1  0.69561000  0.25753000  0.35118000  1
  H  H11  1  0.63439000  0.24741000  0.48379000  1
  H  H12  1  0.69563000  0.15550000  0.45322000  1
  H  H13  1  0.63452000  0.84932000  0.88190000  1
  H  H14  1  0.69575000  0.75753000  0.85122000  1
  H  H15  1  0.69596000  0.65543000  0.95325000  1
  H  H16  1  0.80449000  0.59447000  0.79684000  1
  H  H17  1  0.86584000  0.40059000  0.86820000  1
  H  H18  1  0.80462000  0.49239000  0.89887000  1
  H  H19  1  0.26381000  0.20149000  0.06728000  1
  H  H20  1  0.20245000  0.29335000  0.09790000  1
  H  H21  1  0.40655000  0.29334000  0.09798000  1
  H  H22  1  0.09368000  0.45642000  0.15227000  1
  H  H23  1  0.23644000  0.54829000  0.18292000  1
  H  H24  1  0.29779000  0.45643000  0.15231000  1
  H  H25  1  0.41632000  0.26697000  0.61828000  1
  H  H26  1  0.08372000  0.48308000  0.63169000  1
  H  H27  1  0.69842000  0.56088000  0.32435000  1
  H  H28  1  0.80153000  0.68907000  0.42568000  1
  H  H29  1  0.41629000  0.56086000  0.32437000  1
  H  H30  1  0.08370000  0.68902000  0.42573000  1
  H  H31  1  0.73662000  0.51558000  0.59918000  1
  H  H32  1  0.76340000  0.23453000  0.65072000  1
  H  H33  1  0.08404000  0.18909000  0.92560000  1
  H  H34  1  0.41657000  0.06100000  0.82416000  1
  H  H35  1  0.76359000  0.09332000  0.79192000  1
  H  H36  1  0.73699000  0.15654000  0.95817000  1
  H  H37  1  0.76355000  0.73433000  0.15081000  1
  H  H38  1  0.73682000  0.01537000  0.09929000  1
  H  H39  1  0.08382000  0.98293000  0.13182000  1
  H  H40  1  0.41640000  0.76680000  0.11850000  1
  C  C1  1  0.37772000  0.56111000  0.43889000  1
  C  C2  1  0.59175000  0.36234000  0.45413000  1
  C  C3  1  0.37773000  0.43887000  0.56113000  1
  C  C4  1  0.62228000  0.43889000  0.56111000  1
  C  C5  1  0.40825000  0.63766000  0.54588000  1
  C  C6  1  0.62227000  0.56113000  0.43887000  1
  C  C7  1  0.12234000  0.31116000  0.68885000  1
  C  C8  1  0.90840000  0.38763000  0.79590000  1
  C  C9  1  0.12250000  0.18888000  0.81108000  1
  C  C10  1  0.87793000  0.18882000  0.81116000  1
  C  C11  1  0.09187000  0.11235000  0.70411000  1
  C  C12  1  0.87778000  0.31111000  0.68893000  1
  C  C13  1  0.87772000  0.68881000  0.31118000  1
  C  C14  1  0.09183000  0.61225000  0.20421000  1
  C  C15  1  0.12224000  0.68882000  0.31123000  1
  C  C16  1  0.12235000  0.81104000  0.18898000  1
  C  C17  1  0.90824000  0.88759000  0.29594000  1
  C  C18  1  0.87783000  0.81103000  0.18892000  1
  C  C19  1  0.62261000  0.93883000  0.06115000  1
  C  C20  1  0.40843000  0.13753000  0.04601000  1
  C  C21  1  0.37808000  0.93867000  0.06127000  1
  C  C22  1  0.37779000  0.06097000  0.93905000  1
  C  C23  1  0.59198000  0.86227000  0.95420000  1
  C  C24  1  0.62232000  0.06113000  0.93893000  1
  C  C25  1  0.12815000  0.05792000  0.68596000  1
  C  C26  1  0.08844000  0.02962000  0.67655000  1
  C  C27  1  0.12432000  0.97552000  0.65851000  1
  C  C28  1  0.20133000  0.94812000  0.64936000  1
  C  C29  1  0.24180000  0.97554000  0.65848000  1
  C  C30  1  0.20557000  0.02963000  0.67651000  1
  C  C31  1  0.23474000  0.89798000  0.63264000  1
  C  C32  1  0.26535000  0.85205000  0.61733000  1
  C  C33  1  0.29877000  0.80191000  0.60062000  1
  C  C34  1  0.25831000  0.77450000  0.59148000  1
  C  C35  1  0.29454000  0.72040000  0.57345000  1
  C  C36  1  0.37196000  0.69210000  0.56402000  1
  C  C37  1  0.41166000  0.72040000  0.57344000  1
  C  C38  1  0.37578000  0.77450000  0.59148000  1
  C  C39  1  0.87194000  0.94204000  0.31408000  1
  C  C40  1  0.85309000  0.99960000  0.29423000  1
  C  C41  1  0.81702000  0.05379000  0.31218000  1
  C  C42  1  0.79872000  0.05186000  0.35067000  1
  C  C43  1  0.81698000  0.99509000  0.37090000  1
  C  C44  1  0.85305000  0.94107000  0.35279000  1
  C  C45  1  0.76529000  0.10200000  0.36738000  1
  C  C46  1  0.73467000  0.14794000  0.38268000  1
  C  C47  1  0.70124000  0.19808000  0.39939000  1
  C  C48  1  0.68296000  0.25486000  0.37916000  1
  C  C49  1  0.64690000  0.30887000  0.39728000  1
  C  C50  1  0.62804000  0.30790000  0.43598000  1
  C  C51  1  0.64690000  0.25033000  0.45583000  1
  C  C52  1  0.68297000  0.19614000  0.43789000  1
  C  C53  1  0.34203000  0.35702000  0.60457000  1
  C  C54  1  0.15801000  0.39303000  0.64540000  1
  C  C55  1  0.32681000  0.41342000  0.58659000  1
  C  C56  1  0.17323000  0.33663000  0.66338000  1
  C  C57  1  0.22115000  0.40183000  0.62293000  1
  C  C58  1  0.27889000  0.34821000  0.62704000  1
  C  C59  1  0.69638000  0.58535000  0.37622000  1
  C  C60  1  0.80357000  0.66460000  0.37381000  1
  C  C61  1  0.67319000  0.58658000  0.41341000  1
  C  C62  1  0.82677000  0.66337000  0.33662000  1
  C  C63  1  0.75410000  0.63530000  0.38945000  1
  C  C64  1  0.74586000  0.61465000  0.36058000  1
  C  C65  1  0.34200000  0.58533000  0.37625000  1
  C  C66  1  0.15798000  0.66456000  0.37386000  1
  C  C67  1  0.32679000  0.58656000  0.41344000  1
  C  C68  1  0.17319000  0.66332000  0.33667000  1
  C  C69  1  0.22112000  0.63526000  0.38948000  1
  C  C70  1  0.27886000  0.61462000  0.36062000  1
  C  C71  1  0.70918000  0.44026000  0.59816000  1
  C  C72  1  0.79083000  0.30985000  0.65174000  1
  C  C73  1  0.67321000  0.41344000  0.58657000  1
  C  C74  1  0.82681000  0.33668000  0.66333000  1
  C  C75  1  0.74589000  0.34825000  0.62701000  1
  C  C76  1  0.75412000  0.40187000  0.62289000  1
  C  C77  1  0.62827000  0.80784000  0.93604000  1
  C  C78  1  0.64708000  0.80884000  0.89734000  1
  C  C79  1  0.68314000  0.75483000  0.87921000  1
  C  C80  1  0.70147000  0.69805000  0.89942000  1
  C  C81  1  0.68326000  0.69608000  0.93792000  1
  C  C82  1  0.64719000  0.75026000  0.95587000  1
  C  C83  1  0.73489000  0.64792000  0.88270000  1
  C  C84  1  0.76551000  0.60199000  0.86738000  1
  C  C85  1  0.79893000  0.55186000  0.85067000  1
  C  C86  1  0.81717000  0.55382000  0.81217000  1
  C  C87  1  0.85323000  0.49964000  0.79422000  1
  C  C88  1  0.87212000  0.44207000  0.81406000  1
  C  C89  1  0.85330000  0.44107000  0.85276000  1
  C  C90  1  0.81724000  0.49508000  0.87088000  1
  C  C91  1  0.15828000  0.16464000  0.87371000  1
  C  C92  1  0.34233000  0.08544000  0.87605000  1
  C  C93  1  0.17345000  0.16343000  0.83652000  1
  C  C94  1  0.32716000  0.08666000  0.91324000  1
  C  C95  1  0.27916000  0.11473000  0.86044000  1
  C  C96  1  0.22145000  0.13536000  0.88932000  1
  C  C97  1  0.79106000  0.13253000  0.82904000  1
  C  C98  1  0.70952000  0.11734000  0.92105000  1
  C  C99  1  0.82704000  0.16335000  0.83663000  1
  C  C100  1  0.67354000  0.08651000  0.91345000  1
  C  C101  1  0.75442000  0.13525000  0.88947000  1
  C  C102  1  0.74616000  0.11461000  0.86061000  1
  C  C103  1  0.37211000  0.19197000  0.06415000  1
  C  C104  1  0.29469000  0.22027000  0.07356000  1
  C  C105  1  0.25844000  0.27437000  0.09159000  1
  C  C106  1  0.29887000  0.30178000  0.10075000  1
  C  C107  1  0.37588000  0.27436000  0.09164000  1
  C  C108  1  0.41179000  0.22026000  0.07361000  1
  C  C109  1  0.26543000  0.35191000  0.11746000  1
  C  C110  1  0.23479000  0.39785000  0.13277000  1
  C  C111  1  0.20136000  0.44799000  0.14948000  1
  C  C112  1  0.12435000  0.47540000  0.15860000  1
  C  C113  1  0.08845000  0.52951000  0.17663000  1
  C  C114  1  0.12813000  0.55781000  0.18607000  1
  C  C115  1  0.20555000  0.52951000  0.17666000  1
  C  C116  1  0.24180000  0.47541000  0.15863000  1
  C  C117  1  0.79098000  0.80965000  0.15185000  1
  C  C118  1  0.70940000  0.94006000  0.09825000  1
  C  C119  1  0.82694000  0.83648000  0.16346000  1
  C  C120  1  0.67344000  0.91323000  0.08664000  1
  C  C121  1  0.75430000  0.90167000  0.12299000  1
  C  C122  1  0.74607000  0.84804000  0.12710000  1
  C  C123  1  0.15809000  0.89288000  0.14555000  1
  C  C124  1  0.34213000  0.85685000  0.10477000  1
  C  C125  1  0.17329000  0.83649000  0.16353000  1
  C  C126  1  0.32693000  0.91325000  0.08679000  1
  C  C127  1  0.27897000  0.84806000  0.12722000  1
  C  C128  1  0.22125000  0.90168000  0.12310000  1
  S  S1  1  0.23468000  0.45973000  0.59572000  1
  S  S2  1  0.26537000  0.29032000  0.65425000  1
  S  S3  1  0.70988000  0.62345000  0.43199000  1
  S  S4  1  0.79007000  0.62651000  0.31804000  1
  S  S5  1  0.23466000  0.62341000  0.43203000  1
  S  S6  1  0.26533000  0.62647000  0.31807000  1
  S  S7  1  0.69147000  0.33965000  0.60491000  1
  S  S8  1  0.80855000  0.41047000  0.64499000  1
  S  S9  1  0.26558000  0.12659000  0.81790000  1
  S  S10  1  0.23503000  0.12349000  0.93185000  1
  S  S11  1  0.80883000  0.17272000  0.88269000  1
  S  S12  1  0.69175000  0.07714000  0.86739000  1
  S  S13  1  0.80870000  0.91026000  0.14511000  1
  S  S14  1  0.69168000  0.83945000  0.10498000  1
  S  S15  1  0.26542000  0.79017000  0.15442000  1
  S  S16  1  0.23480000  0.95957000  0.09590000  1
  O  O1  1  0.50000000  0.50000000  0.50000000  1
  O  O2  1  0.34850000  0.56872000  0.47349000  1
  O  O3  1  0.57674000  0.41297000  0.43352000  1
  O  O4  1  0.44695000  0.40316000  0.55464000  1
  O  O5  1  0.44694000  0.53352000  0.42427000  1
  O  O6  1  0.34851000  0.49458000  0.54763000  1
  O  O7  1  0.57675000  0.35674000  0.48974000  1
  O  O8  1  0.59526000  0.40317000  0.55463000  1
  O  O9  1  0.47949000  0.61515000  0.53837000  1
  O  O10  1  0.60930000  0.49460000  0.54761000  1
  O  O11  1  0.36701000  0.61514000  0.53838000  1
  O  O12  1  0.59525000  0.53353000  0.42426000  1
  O  O13  1  0.60929000  0.56873000  0.47347000  1
  O  O14  1  0.00014000  0.24999000  0.75001000  1
  O  O15  1  0.15159000  0.25545000  0.70235000  1
  O  O16  1  0.92337000  0.39324000  0.76029000  1
  O  O17  1  0.05328000  0.21646000  0.82571000  1
  O  O18  1  0.05312000  0.34687000  0.69536000  1
  O  O19  1  0.15168000  0.18129000  0.77648000  1
  O  O20  1  0.92344000  0.33700000  0.81651000  1
  O  O21  1  0.90496000  0.21643000  0.82576000  1
  O  O22  1  0.02063000  0.13485000  0.71164000  1
  O  O23  1  0.89088000  0.18123000  0.77656000  1
  O  O24  1  0.13311000  0.13488000  0.71160000  1
  O  O25  1  0.90480000  0.34683000  0.69541000  1
  O  O26  1  0.89078000  0.25539000  0.70243000  1
  O  O27  1  0.00003000  0.74992000  0.25008000  1
  O  O28  1  0.90472000  0.71641000  0.32580000  1
  O  O29  1  0.02058000  0.63477000  0.21170000  1
  O  O30  1  0.15149000  0.68120000  0.27663000  1
  O  O31  1  0.89073000  0.68120000  0.27657000  1
  O  O32  1  0.05301000  0.71642000  0.32583000  1
  O  O33  1  0.13305000  0.63477000  0.21173000  1
  O  O34  1  0.15156000  0.75533000  0.20249000  1
  O  O35  1  0.92328000  0.89318000  0.26033000  1
  O  O36  1  0.05313000  0.84675000  0.19546000  1
  O  O37  1  0.92323000  0.83697000  0.31656000  1
  O  O38  1  0.89080000  0.75532000  0.20243000  1
  O  O39  1  0.90484000  0.84675000  0.19542000  1
  O  O40  1  0.50020000  0.99990000  0.00010000  1
  O  O41  1  0.59561000  0.90308000  0.05468000  1
  O  O42  1  0.47967000  0.11506000  0.03847000  1
  O  O43  1  0.34879000  0.99438000  0.04779000  1
  O  O44  1  0.60957000  0.99455000  0.04766000  1
  O  O45  1  0.44731000  0.90299000  0.05475000  1
  O  O46  1  0.36720000  0.11498000  0.03853000  1
  O  O47  1  0.34862000  0.06855000  0.97366000  1
  O  O48  1  0.57690000  0.91291000  0.93360000  1
  O  O49  1  0.44700000  0.03341000  0.92441000  1
  O  O50  1  0.57703000  0.85665000  0.98981000  1
  O  O51  1  0.60940000  0.06872000  0.97353000  1
  O  O52  1  0.59531000  0.03351000  0.92434000  1
  O  O53  1  0.24476000  0.05344000  0.68444000  1
  O  O54  1  0.25536000  0.69659000  0.56552000  1
  O  O55  1  0.86891000  0.88975000  0.37237000  1
  O  O56  1  0.63102000  0.36019000  0.37770000  1
  O  O57  1  0.63138000  0.74653000  0.99132000  1
  O  O58  1  0.86906000  0.50336000  0.75877000  1
  O  O59  1  0.48271000  0.19645000  0.06570000  1
  O  O60  1  0.01754000  0.55331000  0.18455000  1
  O  O61  1  0.41837000  0.30829000  0.60115000  1
  O  O62  1  0.08168000  0.44176000  0.64882000  1
  O  O63  1  0.67220000  0.55584000  0.35358000  1
  O  O64  1  0.82776000  0.69411000  0.39646000  1
  O  O65  1  0.41834000  0.55583000  0.35359000  1
  O  O66  1  0.08165000  0.69406000  0.39651000  1
  O  O67  1  0.70234000  0.50451000  0.58607000  1
  O  O68  1  0.79767000  0.24561000  0.66383000  1
  O  O69  1  0.08196000  0.19413000  0.89638000  1
  O  O70  1  0.41865000  0.05595000  0.85338000  1
  O  O71  1  0.79786000  0.11854000  0.79088000  1
  O  O72  1  0.70272000  0.13132000  0.95920000  1
  O  O73  1  0.79781000  0.74541000  0.16394000  1
  O  O74  1  0.70256000  0.00430000  0.08616000  1
  O  O75  1  0.08176000  0.94161000  0.14896000  1
  O  O76  1  0.41846000  0.80812000  0.10136000  1
