# generated using pymatgen
data_Cu4H15C48Br8N4Cl5O16
_symmetry_space_group_name_H-M   'P 1'
_cell_length_a   28.07250000
_cell_length_b   10.70030000
_cell_length_c   9.12930000
_cell_angle_alpha   89.99920000
_cell_angle_beta   90.00100000
_cell_angle_gamma   89.88870000
_symmetry_Int_Tables_number   1
_chemical_formula_structural   Cu4H15C48Br8N4Cl5O16
_chemical_formula_sum   'Cu4 H15 C48 Br8 N4 Cl5 O16'
_cell_volume   2742.29204443
_cell_formula_units_Z   1
loop_
 _symmetry_equiv_pos_site_id
 _symmetry_equiv_pos_as_xyz
  1  'x, y, z'
loop_
 _atom_site_type_symbol
 _atom_site_label
 _atom_site_symmetry_multiplicity
 _atom_site_fract_x
 _atom_site_fract_y
 _atom_site_fract_z
 _atom_site_occupancy
  Cu  Cu1  1  0.50000000  0.49999000  0.36060000  1
  Cu  Cu2  1  0.50000000  0.49999000  0.63939000  1
  Cu  Cu3  1  0.11884000  0.49934000  0.63942000  1
  Cu  Cu4  1  0.11883000  0.50012000  0.36063000  1
  H  H1  1  0.44881000  0.63437000  0.12875000  1
  H  H2  1  0.55119000  0.36562000  0.12876000  1
  H  H3  1  0.44881000  0.63437000  0.87124000  1
  H  H4  1  0.49990000  0.10985000  0.27755000  1
  H  H5  1  0.50014000  0.10984000  0.72245000  1
  H  H6  1  0.49987000  0.89015000  0.27755000  1
  H  H7  1  0.26755000  0.49982000  0.72245000  1
  H  H8  1  0.26755000  0.50015000  0.27755000  1
  H  H9  1  0.35129000  0.49997000  0.72245000  1
  H  H10  1  0.16982000  0.63580000  0.87177000  1
  H  H11  1  0.06781000  0.36714000  0.87078000  1
  H  H12  1  0.16983000  0.63508000  0.12928000  1
  H  H13  1  0.11812000  0.10897000  0.72478000  1
  H  H14  1  0.11786000  0.11019000  0.27987000  1
  H  H15  1  0.11845000  0.88927000  0.72395000  1
  C  C1  1  0.58934000  0.49976000  0.50001000  1
  C  C2  1  0.41066000  0.50023000  0.49999000  1
  C  C3  1  0.49997000  0.73438000  0.49999000  1
  C  C4  1  0.50004000  0.26561000  0.50000000  1
  C  C5  1  0.02950000  0.49957000  0.50005000  1
  C  C6  1  0.20818000  0.49989000  0.50000000  1
  C  C7  1  0.11855000  0.73411000  0.50091000  1
  C  C8  1  0.11912000  0.26534000  0.49914000  1
  C  C9  1  0.53023000  0.42063000  0.92381000  1
  C  C10  1  0.46977000  0.57935000  0.07618000  1
  C  C11  1  0.53023000  0.42064000  0.07619000  1
  C  C12  1  0.46977000  0.57935000  0.92381000  1
  C  C13  1  0.49999000  0.86910000  0.50000000  1
  C  C14  1  0.50002000  0.13089000  0.50000000  1
  C  C15  1  0.50007000  0.93499000  0.63138000  1
  C  C16  1  0.49994000  0.06499000  0.36862000  1
  C  C17  1  0.50008000  0.06499000  0.63138000  1
  C  C18  1  0.49992000  0.93500000  0.36862000  1
  C  C19  1  0.97902000  0.49958000  0.50005000  1
  C  C20  1  0.95279000  0.49941000  0.63296000  1
  C  C21  1  0.90262000  0.49942000  0.63336000  1
  C  C22  1  0.87720000  0.49961000  0.50005000  1
  C  C23  1  0.90262000  0.49977000  0.36675000  1
  C  C24  1  0.95278000  0.49976000  0.36714000  1
  C  C25  1  0.83072000  0.49963000  0.50006000  1
  C  C26  1  0.78812000  0.49964000  0.50006000  1
  C  C27  1  0.74164000  0.49966000  0.50005000  1
  C  C28  1  0.71621000  0.49946000  0.63334000  1
  C  C29  1  0.66605000  0.49949000  0.63294000  1
  C  C30  1  0.63982000  0.49972000  0.50002000  1
  C  C31  1  0.66606000  0.49992000  0.36711000  1
  C  C32  1  0.71622000  0.49989000  0.36673000  1
  C  C33  1  0.35931000  0.50014000  0.50000000  1
  C  C34  1  0.25953000  0.49997000  0.50000000  1
  C  C35  1  0.33419000  0.50020000  0.36862000  1
  C  C36  1  0.28464000  0.49992000  0.63138000  1
  C  C37  1  0.28464000  0.50011000  0.36862000  1
  C  C38  1  0.33420000  0.50000000  0.63138000  1
  C  C39  1  0.08870000  0.42157000  0.07592000  1
  C  C40  1  0.14894000  0.58066000  0.92414000  1
  C  C41  1  0.08869000  0.42199000  0.92355000  1
  C  C42  1  0.14894000  0.58024000  0.07651000  1
  C  C43  1  0.11835000  0.86883000  0.50142000  1
  C  C44  1  0.11796000  0.13062000  0.50240000  1
  C  C45  1  0.11818000  0.93509000  0.37029000  1
  C  C46  1  0.11814000  0.06436000  0.63354000  1
  C  C47  1  0.11798000  0.06508000  0.37078000  1
  C  C48  1  0.11833000  0.93437000  0.63305000  1
  Br  Br1  1  0.98811000  0.49914000  0.83289000  1
  Br  Br2  1  0.98810000  0.50001000  0.16721000  1
  Br  Br3  1  0.86695000  0.50005000  0.16741000  1
  Br  Br4  1  0.86696000  0.49917000  0.83270000  1
  Br  Br5  1  0.75188000  0.49912000  0.83269000  1
  Br  Br6  1  0.75189000  0.50019000  0.16740000  1
  Br  Br7  1  0.63074000  0.50026000  0.16718000  1
  Br  Br8  1  0.63073000  0.49918000  0.83286000  1
  N  N1  1  0.50000000  0.49999000  0.84657000  1
  N  N2  1  0.50000000  0.49999000  0.15342000  1
  N  N3  1  0.11882000  0.50069000  0.15346000  1
  N  N4  1  0.11881000  0.50154000  0.84660000  1
  Cl  Cl1  1  0.56866000  0.31978000  0.82744000  1
  Cl  Cl2  1  0.50015000  0.85276000  0.79834000  1
  Cl  Cl3  1  0.36553000  0.50037000  0.20165000  1
  Cl  Cl4  1  0.05041000  0.32048000  0.17193000  1
  Cl  Cl5  1  0.11820000  0.85332000  0.20302000  1
  O  O1  1  0.56194000  0.49998000  0.37000000  1
  O  O2  1  0.43794000  0.50037000  0.37000000  1
  O  O3  1  0.49989000  0.66284000  0.37000000  1
  O  O4  1  0.49999000  0.33752000  0.37000000  1
  O  O5  1  0.50010000  0.33715000  0.63000000  1
  O  O6  1  0.50003000  0.66247000  0.62999000  1
  O  O7  1  0.43801000  0.50018000  0.62999000  1
  O  O8  1  0.56207000  0.49957000  0.63000000  1
  O  O9  1  0.05690000  0.49941000  0.63005000  1
  O  O10  1  0.18090000  0.49969000  0.63001000  1
  O  O11  1  0.11873000  0.66221000  0.63064000  1
  O  O12  1  0.11907000  0.33689000  0.62941000  1
  O  O13  1  0.11895000  0.33724000  0.36941000  1
  O  O14  1  0.11858000  0.66257000  0.37065000  1
  O  O15  1  0.18082000  0.50022000  0.37002000  1
  O  O16  1  0.05677000  0.49972000  0.37005000  1
