# generated using pymatgen
data_Zn4H24C42N4O17
_symmetry_space_group_name_H-M   'P 1'
_cell_length_a   17.95090000
_cell_length_b   21.25370000
_cell_length_c   33.10870000
_cell_angle_alpha   79.39650000
_cell_angle_beta   74.27090000
_cell_angle_gamma   65.02010000
_symmetry_Int_Tables_number   1
_chemical_formula_structural   Zn4H24C42N4O17
_chemical_formula_sum   'Zn16 H96 C168 N16 O68'
_cell_volume   10986.29950485
_cell_formula_units_Z   4
loop_
 _symmetry_equiv_pos_site_id
 _symmetry_equiv_pos_as_xyz
  1  'x, y, z'
loop_
 _atom_site_type_symbol
 _atom_site_label
 _atom_site_symmetry_multiplicity
 _atom_site_fract_x
 _atom_site_fract_y
 _atom_site_fract_z
 _atom_site_occupancy
  Zn  Zn1  1  0.37881000  0.54932000  0.51644000  1
  Zn  Zn2  1  0.53288000  0.49484000  0.43940000  1
  Zn  Zn3  1  0.53288000  0.40653000  0.52772000  1
  Zn  Zn4  1  0.12119000  0.20068000  0.73356000  1
  Zn  Zn5  1  0.96712000  0.34348000  0.72228000  1
  Zn  Zn6  1  0.96712000  0.25516000  0.81060000  1
  Zn  Zn7  1  0.94456000  0.20068000  0.73356000  1
  Zn  Zn8  1  0.55543000  0.54932000  0.51644000  1
  Zn  Zn9  1  0.96712000  0.75516000  0.31060000  1
  Zn  Zn10  1  0.94456000  0.70068000  0.23356000  1
  Zn  Zn11  1  0.12119000  0.70068000  0.23356000  1
  Zn  Zn12  1  0.96712000  0.84348000  0.22228000  1
  Zn  Zn13  1  0.53288000  0.90652000  0.02772000  1
  Zn  Zn14  1  0.55543000  0.04932000  0.01644000  1
  Zn  Zn15  1  0.37880000  0.04932000  0.01644000  1
  Zn  Zn16  1  0.53288000  0.99484000  0.93940000  1
  H  H1  1  0.26513000  0.02051000  0.67351000  1
  H  H2  1  0.04085000  0.02051000  0.67351000  1
  H  H3  1  0.65299000  0.32658000  0.36744000  1
  H  H4  1  0.65299000  0.21445000  0.47957000  1
  H  H5  1  0.84701000  0.92342000  0.38256000  1
  H  H6  1  0.84701000  0.03555000  0.27043000  1
  H  H7  1  0.09048000  0.43532000  0.70476000  1
  H  H8  1  0.26944000  0.52480000  0.61528000  1
  H  H9  1  0.35249000  0.30759000  0.57376000  1
  H  H10  1  0.26617000  0.26443000  0.61692000  1
  H  H11  1  0.76944000  0.77480000  0.36528000  1
  H  H12  1  0.59048000  0.68532000  0.45476000  1
  H  H13  1  0.76617000  0.51443000  0.36692000  1
  H  H14  1  0.85249000  0.55759000  0.32376000  1
  H  H15  1  0.06646000  0.62271000  0.37729000  1
  H  H16  1  0.24542000  0.53323000  0.46677000  1
  H  H17  1  0.37284000  0.64326000  0.35674000  1
  H  H18  1  0.28652000  0.68642000  0.31358000  1
  H  H19  1  0.74542000  0.28323000  0.71677000  1
  H  H20  1  0.56646000  0.37271000  0.62729000  1
  H  H21  1  0.78652000  0.43642000  0.56358000  1
  H  H22  1  0.87284000  0.39326000  0.60674000  1
  H  H23  1  0.84701000  0.53556000  0.77043000  1
  H  H24  1  0.84701000  0.42342000  0.88256000  1
  H  H25  1  0.65299000  0.71445000  0.97957000  1
  H  H26  1  0.65299000  0.82658000  0.86744000  1
  H  H27  1  0.40951000  0.97521000  0.88472000  1
  H  H28  1  0.23056000  0.06469000  0.79524000  1
  H  H29  1  0.14751000  0.23558000  0.88308000  1
  H  H30  1  0.23383000  0.19241000  0.92625000  1
  H  H31  1  0.75458000  0.03323000  0.96677000  1
  H  H32  1  0.93354000  0.12271000  0.87729000  1
  H  H33  1  0.71348000  0.18642000  0.81358000  1
  H  H34  1  0.62716000  0.14326000  0.85674000  1
  H  H35  1  0.04085000  0.52052000  0.17350000  1
  H  H36  1  0.26513000  0.52052000  0.17350000  1
  H  H37  1  0.45914000  0.22949000  0.07649000  1
  H  H38  1  0.23487000  0.22949000  0.07649000  1
  H  H39  1  0.59048000  0.02479000  0.11528000  1
  H  H40  1  0.76944000  0.93532000  0.20476000  1
  H  H41  1  0.85249000  0.76443000  0.11692000  1
  H  H42  1  0.76616000  0.80759000  0.07376000  1
  H  H43  1  0.43354000  0.87271000  0.12729000  1
  H  H44  1  0.25458000  0.78323000  0.21677000  1
  H  H45  1  0.12716000  0.89326000  0.10674000  1
  H  H46  1  0.21348000  0.93642000  0.06358000  1
  H  H47  1  0.98380000  0.98534000  0.66178000  1
  H  H48  1  0.13092000  0.76466000  0.58822000  1
  H  H49  1  0.36908000  0.98534000  0.66178000  1
  H  H50  1  0.51620000  0.76466000  0.58822000  1
  H  H51  1  0.82356000  0.11098000  0.24190000  1
  H  H52  1  0.67644000  0.33166000  0.31546000  1
  H  H53  1  0.82356000  0.91834000  0.43454000  1
  H  H54  1  0.67644000  0.13902000  0.50810000  1
  H  H55  1  0.67644000  0.83166000  0.81546000  1
  H  H56  1  0.82356000  0.61098000  0.74190000  1
  H  H57  1  0.67644000  0.63902000  0.00810000  1
  H  H58  1  0.82356000  0.41834000  0.93454000  1
  H  H59  1  0.13092000  0.26466000  0.08822000  1
  H  H60  1  0.98380000  0.48534000  0.16178000  1
  H  H61  1  0.51620000  0.26466000  0.08822000  1
  H  H62  1  0.36908000  0.48534000  0.16178000  1
  H  H63  1  0.98232000  0.56371000  0.73299000  1
  H  H64  1  0.05989000  0.59363000  0.74590000  1
  H  H65  1  0.22098000  0.63134000  0.66536000  1
  H  H66  1  0.10058000  0.66567000  0.67387000  1
  H  H67  1  0.72098000  0.88135000  0.41536000  1
  H  H68  1  0.60058000  0.91566000  0.42386000  1
  H  H69  1  0.48232000  0.81371000  0.48299000  1
  H  H70  1  0.55989000  0.84363000  0.49590000  1
  H  H71  1  0.93804000  0.60099000  0.43750000  1
  H  H72  1  0.99506000  0.50523000  0.45628000  1
  H  H73  1  0.16349000  0.44978000  0.51174000  1
  H  H74  1  0.04895000  0.51678000  0.52171000  1
  H  H75  1  0.66349000  0.19978000  0.76174000  1
  H  H76  1  0.54895000  0.26678000  0.77172000  1
  H  H77  1  0.43804000  0.35099000  0.68750000  1
  H  H78  1  0.49506000  0.25523000  0.70628000  1
  H  H79  1  0.51768000  0.86866000  0.83464000  1
  H  H80  1  0.44011000  0.83434000  0.82614000  1
  H  H81  1  0.27902000  0.93630000  0.76701000  1
  H  H82  1  0.39942000  0.90637000  0.75410000  1
  H  H83  1  0.83651000  0.00751000  0.03098000  1
  H  H84  1  0.95105000  0.95904000  0.00247000  1
  H  H85  1  0.06196000  0.04326000  0.91825000  1
  H  H86  1  0.00494000  0.06297000  0.97553000  1
  H  H87  1  0.53401000  0.15719000  0.13951000  1
  H  H88  1  0.50820000  0.13982000  0.19971000  1
  H  H89  1  0.66929000  0.03786000  0.25884000  1
  H  H90  1  0.65227000  0.11947000  0.22005000  1
  H  H91  1  0.56196000  0.79326000  0.16825000  1
  H  H92  1  0.50494000  0.81296000  0.22552000  1
  H  H93  1  0.33651000  0.75751000  0.28098000  1
  H  H94  1  0.45105000  0.70904000  0.25247000  1
  H  H95  1  0.23487000  0.72949000  0.57650000  1
  H  H96  1  0.45915000  0.72949000  0.57650000  1
  C  C1  1  0.23216000  0.00130000  0.66710000  1
  C  C2  1  0.26995000  0.93974000  0.64658000  1
  C  C3  1  0.35738000  0.90571000  0.63524000  1
  C  C4  1  0.09944000  0.00130000  0.66710000  1
  C  C5  1  0.14373000  0.93974000  0.64658000  1
  C  C6  1  0.10168000  0.90571000  0.63524000  1
  C  C7  1  0.35568000  0.71648000  0.57216000  1
  C  C8  1  0.26936000  0.84596000  0.61532000  1
  C  C9  1  0.14432000  0.03352000  0.67784000  1
  C  C10  1  0.23064000  0.90404000  0.63468000  1
  C  C11  1  0.66580000  0.28449000  0.38392000  1
  C  C12  1  0.70684000  0.22130000  0.36503000  1
  C  C13  1  0.72953000  0.21963000  0.32131000  1
  C  C14  1  0.66580000  0.21812000  0.45028000  1
  C  C15  1  0.70684000  0.15819000  0.42814000  1
  C  C16  1  0.72953000  0.09178000  0.44916000  1
  C  C17  1  0.83420000  0.96552000  0.36608000  1
  C  C18  1  0.79316000  0.02871000  0.38498000  1
  C  C19  1  0.77047000  0.03037000  0.42869000  1
  C  C20  1  0.83420000  0.03188000  0.29972000  1
  C  C21  1  0.79316000  0.09182000  0.32186000  1
  C  C22  1  0.77047000  0.15822000  0.30084000  1
  C  C23  1  0.64432000  0.28352000  0.42784000  1
  C  C24  1  0.73064000  0.15404000  0.38468000  1
  C  C25  1  0.85568000  0.96648000  0.32216000  1
  C  C26  1  0.76936000  0.09596000  0.36532000  1
  C  C27  1  0.19862000  0.34931000  0.65069000  1
  C  C28  1  0.18967000  0.41665000  0.65516000  1
  C  C29  1  0.26149000  0.30893000  0.61926000  1
  C  C30  1  0.12611000  0.45502000  0.68694000  1
  C  C31  1  0.11512000  0.52218000  0.69244000  1
  C  C32  1  0.30138000  0.40069000  0.59931000  1
  C  C33  1  0.31033000  0.33333333  0.59484000  1
  C  C34  1  0.23851000  0.44107000  0.63075000  1
  C  C35  1  0.23192000  0.50793000  0.63404000  1
  C  C36  1  0.17026000  0.54975000  0.66487000  1
  C  C37  1  0.80138000  0.65069000  0.34931000  1
  C  C38  1  0.73851000  0.69107000  0.38075000  1
  C  C39  1  0.81032000  0.58335000  0.34484000  1
  C  C40  1  0.73192000  0.75793000  0.38404000  1
  C  C41  1  0.67026000  0.79975000  0.41487000  1
  C  C42  1  0.69862000  0.59931000  0.40069000  1
  C  C43  1  0.76149000  0.55893000  0.36925000  1
  C  C44  1  0.68967000  0.66666667  0.40516000  1
  C  C45  1  0.62611000  0.70502000  0.43694000  1
  C  C46  1  0.61512000  0.77218000  0.44244000  1
  C  C47  1  0.19862000  0.65069000  0.34931000  1
  C  C48  1  0.17736000  0.61310000  0.38690000  1
  C  C49  1  0.27381000  0.66132000  0.33868000  1
  C  C50  1  0.10177000  0.60379000  0.39621000  1
  C  C51  1  0.07831000  0.56673000  0.43327000  1
  C  C52  1  0.30138000  0.59931000  0.40069000  1
  C  C53  1  0.32264000  0.63691000  0.36310000  1
  C  C54  1  0.22619000  0.58868000  0.41132000  1
  C  C55  1  0.20757000  0.55088000  0.44912000  1
  C  C56  1  0.35886000  0.57057000  0.42943000  1
  C  C57  1  0.13346000  0.53916000  0.46084000  1
  C  C58  1  0.80138000  0.34931000  0.65069000  1
  C  C59  1  0.72619000  0.33868000  0.66132000  1
  C  C60  1  0.82264000  0.38691000  0.61310000  1
  C  C61  1  0.70757000  0.30088000  0.69912000  1
  C  C62  1  0.63346000  0.28916000  0.71084000  1
  C  C63  1  0.60509000  0.34236000  0.44745000  1
  C  C64  1  0.69862000  0.40069000  0.59931000  1
  C  C65  1  0.77381000  0.41132000  0.58868000  1
  C  C66  1  0.67736000  0.36310000  0.63690000  1
  C  C67  1  0.60176000  0.35379000  0.64621000  1
  C  C68  1  0.57831000  0.31673000  0.68327000  1
  C  C69  1  0.83420000  0.53188000  0.79972000  1
  C  C70  1  0.79316000  0.59182000  0.82187000  1
  C  C71  1  0.35886000  0.42943000  0.57057000  1
  C  C72  1  0.77047000  0.65822000  0.80084000  1
  C  C73  1  0.83420000  0.46552000  0.86608000  1
  C  C74  1  0.79316000  0.52871000  0.88498000  1
  C  C75  1  0.77047000  0.53037000  0.92869000  1
  C  C76  1  0.66580000  0.71813000  0.95028000  1
  C  C77  1  0.70684000  0.65819000  0.92814000  1
  C  C78  1  0.72953000  0.59179000  0.94916000  1
  C  C79  1  0.64114000  0.42943000  0.57057000  1
  C  C80  1  0.66580000  0.78449000  0.88392000  1
  C  C81  1  0.70684000  0.72130000  0.86503000  1
  C  C82  1  0.72953000  0.71963000  0.82131000  1
  C  C83  1  0.85568000  0.46648000  0.82216000  1
  C  C84  1  0.76936000  0.59596000  0.86532000  1
  C  C85  1  0.64432000  0.78352000  0.92784000  1
  C  C86  1  0.73064000  0.65404000  0.88468000  1
  C  C87  1  0.30138000  0.09931000  0.90069000  1
  C  C88  1  0.31033000  0.05893000  0.86926000  1
  C  C89  1  0.39491000  0.65764000  0.55255000  1
  C  C90  1  0.23851000  0.16665000  0.90516000  1
  C  C91  1  0.37389000  0.99208000  0.86596000  1
  C  C92  1  0.38488000  0.95026000  0.83513000  1
  C  C93  1  0.19862000  0.15069000  0.84931000  1
  C  C94  1  0.18967000  0.19107000  0.88075000  1
  C  C95  1  0.26149000  0.08335000  0.84484000  1
  C  C96  1  0.26808000  0.04498000  0.81306000  1
  C  C97  1  0.32973000  0.97783000  0.80756000  1
  C  C98  1  0.64114000  0.57057000  0.42943000  1
  C  C99  1  0.69862000  0.09931000  0.90069000  1
  C  C100  1  0.77381000  0.08868000  0.91132000  1
  C  C101  1  0.67736000  0.13691000  0.86310000  1
  C  C102  1  0.79243000  0.05088000  0.94912000  1
  C  C103  1  0.86654000  0.03916000  0.96084000  1
  C  C104  1  0.80138000  0.15069000  0.84931000  1
  C  C105  1  0.72619000  0.16132000  0.83868000  1
  C  C106  1  0.82264000  0.11310000  0.88690000  1
  C  C107  1  0.89823000  0.10379000  0.89621000  1
  C  C108  1  0.92169000  0.06673000  0.93327000  1
  C  C109  1  0.09944000  0.50130000  0.16710000  1
  C  C110  1  0.14373000  0.43974000  0.14658000  1
  C  C111  1  0.10168000  0.40571000  0.13524000  1
  C  C112  1  0.23216000  0.50130000  0.16710000  1
  C  C113  1  0.26995000  0.43974000  0.14658000  1
  C  C114  1  0.35737000  0.40571000  0.13524000  1
  C  C115  1  0.40056000  0.24870000  0.08290000  1
  C  C116  1  0.35627000  0.31026000  0.10342000  1
  C  C117  1  0.39832000  0.34429000  0.11476000  1
  C  C118  1  0.26784000  0.24870000  0.08290000  1
  C  C119  1  0.23005000  0.31026000  0.10342000  1
  C  C120  1  0.14262000  0.34429000  0.11476000  1
  C  C121  1  0.14432000  0.53352000  0.17784000  1
  C  C122  1  0.23064000  0.40404000  0.13468000  1
  C  C123  1  0.35568000  0.21648000  0.07216000  1
  C  C124  1  0.26936000  0.34596000  0.11532000  1
  C  C125  1  0.69862000  0.90069000  0.09931000  1
  C  C126  1  0.68967000  0.94107000  0.13074000  1
  C  C127  1  0.76149000  0.83335000  0.09484000  1
  C  C128  1  0.62611000  0.00793000  0.13404000  1
  C  C129  1  0.61512000  0.04975000  0.16487000  1
  C  C130  1  0.80138000  0.84931000  0.15069000  1
  C  C131  1  0.81032000  0.80893000  0.11925000  1
  C  C132  1  0.73851000  0.91665000  0.15516000  1
  C  C133  1  0.73192000  0.95502000  0.18694000  1
  C  C134  1  0.67026000  0.02218000  0.19244000  1
  C  C135  1  0.30138000  0.90069000  0.09931000  1
  C  C136  1  0.32264000  0.86310000  0.13690000  1
  C  C137  1  0.22619000  0.91132000  0.08868000  1
  C  C138  1  0.39823000  0.85379000  0.14621000  1
  C  C139  1  0.42169000  0.81673000  0.18327000  1
  C  C140  1  0.19862000  0.84931000  0.15069000  1
  C  C141  1  0.17736000  0.88691000  0.11310000  1
  C  C142  1  0.27381000  0.83868000  0.16132000  1
  C  C143  1  0.29242000  0.80088000  0.19912000  1
  C  C144  1  0.36654000  0.78916000  0.21084000  1
  C  C145  1  0.14114000  0.32057000  0.67943000  1
  C  C146  1  0.89491000  0.40764000  0.80255000  1
  C  C147  1  0.14114000  0.17943000  0.82057000  1
  C  C148  1  0.85886000  0.17943000  0.82057000  1
  C  C149  1  0.10509000  0.09236000  0.69745000  1
  C  C150  1  0.85886000  0.32057000  0.67943000  1
  C  C151  1  0.85886000  0.67943000  0.32057000  1
  C  C152  1  0.10509000  0.59236000  0.19745000  1
  C  C153  1  0.14114000  0.67943000  0.32057000  1
  C  C154  1  0.14114000  0.82057000  0.17943000  1
  C  C155  1  0.89491000  0.90764000  0.30255000  1
  C  C156  1  0.85886000  0.82057000  0.17943000  1
  C  C157  1  0.64114000  0.92943000  0.07057000  1
  C  C158  1  0.39491000  0.15764000  0.05255000  1
  C  C159  1  0.35886000  0.92943000  0.07057000  1
  C  C160  1  0.35886000  0.07057000  0.92943000  1
  C  C161  1  0.60509000  0.84237000  0.94746000  1
  C  C162  1  0.64114000  0.07057000  0.92943000  1
  C  C163  1  0.26784000  0.74870000  0.58290000  1
  C  C164  1  0.23005000  0.81026000  0.60342000  1
  C  C165  1  0.14262000  0.84430000  0.61476000  1
  C  C166  1  0.40056000  0.74870000  0.58290000  1
  C  C167  1  0.35627000  0.81026000  0.60342000  1
  C  C168  1  0.39832000  0.84430000  0.61476000  1
  N  N1  1  0.04637000  0.56349000  0.72681000  1
  N  N2  1  0.16333000  0.62196000  0.66834000  1
  N  N3  1  0.66333000  0.87196000  0.41834000  1
  N  N4  1  0.54637000  0.81349000  0.47681000  1
  N  N5  1  0.99659000  0.55677000  0.44323000  1
  N  N6  1  0.11354000  0.49830000  0.50171000  1
  N  N7  1  0.61354000  0.24829000  0.75171000  1
  N  N8  1  0.49659000  0.30677000  0.69323000  1
  N  N9  1  0.45362000  0.87804000  0.83167000  1
  N  N10  1  0.33667000  0.93652000  0.77319000  1
  N  N11  1  0.88646000  0.99830000  0.00171000  1
  N  N12  1  0.00341000  0.05677000  0.94323000  1
  N  N13  1  0.54637000  0.12196000  0.16834000  1
  N  N14  1  0.66333000  0.06348000  0.22681000  1
  N  N15  1  0.50341000  0.80677000  0.19323000  1
  N  N16  1  0.38646000  0.74830000  0.25171000  1
  O  O1  1  0.58790000  0.33569000  0.48851000  1
  O  O2  1  0.60977000  0.38849000  0.56317000  1
  O  O3  1  0.47701000  0.63186000  0.54395000  1
  O  O4  1  0.62634000  0.49346000  0.55488000  1
  O  O5  1  0.34718000  0.63186000  0.54395000  1
  O  O6  1  0.60976000  0.53901000  0.41266000  1
  O  O7  1  0.62634000  0.57905000  0.46929000  1
  O  O8  1  0.00000000  0.25000000  0.75000000  1
  O  O9  1  0.17468000  0.25655000  0.69512000  1
  O  O10  1  0.00662000  0.93707000  0.64569000  1
  O  O11  1  0.08938000  0.81293000  0.60431000  1
  O  O12  1  0.41062000  0.93707000  0.64569000  1
  O  O13  1  0.91210000  0.41431000  0.76149000  1
  O  O14  1  0.49338000  0.81293000  0.60431000  1
  O  O15  1  0.79138000  0.16393000  0.25331000  1
  O  O16  1  0.70862000  0.28807000  0.29469000  1
  O  O17  1  0.79138000  0.96193000  0.45531000  1
  O  O18  1  0.70862000  0.08607000  0.49669000  1
  O  O19  1  0.06143000  0.21100000  0.83734000  1
  O  O20  1  0.70862000  0.78807000  0.79469000  1
  O  O21  1  0.79138000  0.66393000  0.75331000  1
  O  O22  1  0.70862000  0.58607000  0.99669000  1
  O  O23  1  0.79138000  0.46193000  0.95531000  1
  O  O24  1  0.08938000  0.31293000  0.10431000  1
  O  O25  1  0.06143000  0.36151000  0.68683000  1
  O  O26  1  0.00662000  0.43707000  0.14569000  1
  O  O27  1  0.49338000  0.31293000  0.10431000  1
  O  O28  1  0.41062000  0.43707000  0.14569000  1
  O  O29  1  0.17468000  0.17095000  0.78071000  1
  O  O30  1  0.91210000  0.34940000  0.82641000  1
  O  O31  1  0.89023000  0.21100000  0.83734000  1
  O  O32  1  0.02299000  0.11815000  0.70605000  1
  O  O33  1  0.87365000  0.17095000  0.78071000  1
  O  O34  1  0.15282000  0.11815000  0.70605000  1
  O  O35  1  0.89023000  0.36151000  0.68683000  1
  O  O36  1  0.87365000  0.25655000  0.69512000  1
  O  O37  1  0.50000000  0.50000000  0.50000000  1
  O  O38  1  0.32532000  0.57905000  0.46929000  1
  O  O39  1  0.00000000  0.75000000  0.25000000  1
  O  O40  1  0.89023000  0.71100000  0.33734000  1
  O  O41  1  0.02299000  0.61815000  0.20605000  1
  O  O42  1  0.17468000  0.67095000  0.28071000  1
  O  O43  1  0.87365000  0.67095000  0.28071000  1
  O  O44  1  0.06143000  0.71100000  0.33734000  1
  O  O45  1  0.15282000  0.61815000  0.20605000  1
  O  O46  1  0.17468000  0.75655000  0.19512000  1
  O  O47  1  0.91209000  0.91431000  0.26149000  1
  O  O48  1  0.06143000  0.86151000  0.18683000  1
  O  O49  1  0.58790000  0.40060000  0.42359000  1
  O  O50  1  0.91209000  0.84940000  0.32641000  1
  O  O51  1  0.87365000  0.75655000  0.19512000  1
  O  O52  1  0.89023000  0.86151000  0.18683000  1
  O  O53  1  0.43857000  0.38849000  0.56317000  1
  O  O54  1  0.50000000  0.00000000  0.00000000  1
  O  O55  1  0.60976000  0.88849000  0.06317000  1
  O  O56  1  0.47701000  0.13186000  0.04395000  1
  O  O57  1  0.32532000  0.99346000  0.05488000  1
  O  O58  1  0.62634000  0.99346000  0.05488000  1
  O  O59  1  0.43857000  0.88849000  0.06317000  1
  O  O60  1  0.34718000  0.13186000  0.04395000  1
  O  O61  1  0.43857000  0.53901000  0.41266000  1
  O  O62  1  0.32532000  0.07905000  0.96929000  1
  O  O63  1  0.58790000  0.90061000  0.92359000  1
  O  O64  1  0.43857000  0.03901000  0.91266000  1
  O  O65  1  0.58790000  0.83569000  0.98851000  1
  O  O66  1  0.62635000  0.07905000  0.96929000  1
  O  O67  1  0.60977000  0.03901000  0.91266000  1
  O  O68  1  0.32532000  0.49346000  0.55488000  1
