# generated using pymatgen
data_ZnH3C10S3NO4
_symmetry_space_group_name_H-M   'P 1'
_cell_length_a   23.43290000
_cell_length_b   17.27290000
_cell_length_c   17.26310000
_cell_angle_alpha   117.25200000
_cell_angle_beta   47.36960000
_cell_angle_gamma   132.66300000
_symmetry_Int_Tables_number   1
_chemical_formula_structural   ZnH3C10S3NO4
_chemical_formula_sum   'Zn4 H12 C40 S12 N4 O16'
_cell_volume   3780.31366125
_cell_formula_units_Z   4
loop_
 _symmetry_equiv_pos_site_id
 _symmetry_equiv_pos_as_xyz
  1  'x, y, z'
loop_
 _atom_site_type_symbol
 _atom_site_label
 _atom_site_symmetry_multiplicity
 _atom_site_fract_x
 _atom_site_fract_y
 _atom_site_fract_z
 _atom_site_occupancy
  Zn  Zn1  1  0.57073000  0.49998000  0.50000000  1
  Zn  Zn2  1  0.42925000  0.49999000  0.49999000  1
  Zn  Zn3  1  0.92928000  0.50001000  0.49996000  1
  Zn  Zn4  1  0.07076000  0.50000000  0.49996000  1
  H  H1  1  0.57062000  0.39168000  0.60880000  1
  H  H2  1  0.92939000  0.60831000  0.39116000  1
  H  H3  1  0.42939000  0.60857000  0.39145000  1
  H  H4  1  0.07062000  0.39140000  0.60850000  1
  H  H5  1  0.23241000  0.13110000  0.50013000  1
  H  H6  1  0.26787000  0.86890000  0.49953000  1
  H  H7  1  0.60105000  0.86915000  0.50069000  1
  H  H8  1  0.89811000  0.13078000  0.50076000  1
  H  H9  1  0.60176000  0.50031000  0.13052000  1
  H  H10  1  0.89875000  0.50043000  0.86942000  1
  H  H11  1  0.39909000  0.50136000  0.86945000  1
  H  H12  1  0.10266000  0.50236000  0.13056000  1
  C  C1  1  0.60270000  0.70532000  0.49979000  1
  C  C2  1  0.60261000  0.50000000  0.29464000  1
  C  C3  1  0.39724000  0.29465000  0.50029000  1
  C  C4  1  0.39756000  0.50033000  0.70535000  1
  C  C5  1  0.89789000  0.50074000  0.70531000  1
  C  C6  1  0.89681000  0.29465000  0.50092000  1
  C  C7  1  0.10218000  0.49936000  0.29462000  1
  C  C8  1  0.10304000  0.70535000  0.49937000  1
  C  C9  1  0.63195000  0.44102000  0.55923000  1
  C  C10  1  0.86806000  0.55897000  0.44073000  1
  C  C11  1  0.78803000  0.53799000  0.46180000  1
  C  C12  1  0.71198000  0.46200000  0.53816000  1
  C  C13  1  0.36806000  0.55911000  0.44088000  1
  C  C14  1  0.13196000  0.44086000  0.55906000  1
  C  C15  1  0.21197000  0.46189000  0.53805000  1
  C  C16  1  0.28804000  0.53808000  0.46189000  1
  C  C17  1  0.25926000  0.10898000  0.50005000  1
  C  C18  1  0.24102000  0.89102000  0.49960000  1
  C  C19  1  0.33859000  0.17717000  0.50011000  1
  C  C20  1  0.16169000  0.82283000  0.49955000  1
  C  C21  1  0.27930000  0.99995000  0.49980000  1
  C  C22  1  0.22098000  0.00005000  0.49986000  1
  C  C23  1  0.64996000  0.89114000  0.50058000  1
  C  C24  1  0.84920000  0.10879000  0.50086000  1
  C  C25  1  0.66126000  0.82280000  0.50016000  1
  C  C26  1  0.83790000  0.17714000  0.50129000  1
  C  C27  1  0.77879000  0.99992000  0.50059000  1
  C  C28  1  0.72037000  0.00002000  0.50086000  1
  C  C29  1  0.65056000  0.50029000  0.10866000  1
  C  C30  1  0.84995000  0.50045000  0.89129000  1
  C  C31  1  0.66147000  0.50015000  0.17715000  1
  C  C32  1  0.83903000  0.50059000  0.82279000  1
  C  C33  1  0.77933000  0.50033000  0.00012000  1
  C  C34  1  0.72118000  0.50041000  0.99982000  1
  C  C35  1  0.35029000  0.50140000  0.89132000  1
  C  C36  1  0.15145000  0.50232000  0.10870000  1
  C  C37  1  0.33908000  0.50094000  0.82283000  1
  C  C38  1  0.16267000  0.50278000  0.17719000  1
  C  C39  1  0.22175000  0.50180000  0.99986000  1
  C  C40  1  0.28000000  0.50192000  0.00016000  1
  S  S1  1  0.77350000  0.58510000  0.41448000  1
  S  S2  1  0.72651000  0.41489000  0.58548000  1
  S  S3  1  0.22650000  0.41466000  0.58526000  1
  S  S4  1  0.27351000  0.58531000  0.41468000  1
  S  S5  1  0.37225000  0.11367000  0.49993000  1
  S  S6  1  0.12803000  0.88633000  0.49973000  1
  S  S7  1  0.75828000  0.88607000  0.50006000  1
  S  S8  1  0.74088000  0.11386000  0.50138000  1
  S  S9  1  0.75836000  0.50014000  0.11409000  1
  S  S10  1  0.74214000  0.50059000  0.88586000  1
  S  S11  1  0.24228000  0.50113000  0.88590000  1
  S  S12  1  0.25946000  0.50259000  0.11412000  1
  N  N1  1  0.65396000  0.49999000  0.49999000  1
  N  N2  1  0.84605000  0.50000000  0.49997000  1
  N  N3  1  0.34603000  0.49999000  0.49998000  1
  N  N4  1  0.15398000  0.49999000  0.49996000  1
  O  O1  1  0.63417000  0.65183000  0.49935000  1
  O  O2  1  0.51790000  0.65181000  0.49988000  1
  O  O3  1  0.51781000  0.50000000  0.34819000  1
  O  O4  1  0.63377000  0.49986000  0.34812000  1
  O  O5  1  0.36591000  0.34814000  0.50045000  1
  O  O6  1  0.48198000  0.34815000  0.50031000  1
  O  O7  1  0.48228000  0.50018000  0.65180000  1
  O  O8  1  0.36612000  0.49993000  0.65187000  1
  O  O9  1  0.86627000  0.50006000  0.65182000  1
  O  O10  1  0.98254000  0.50059000  0.65180000  1
  O  O11  1  0.98176000  0.34821000  0.50068000  1
  O  O12  1  0.86580000  0.34814000  0.50054000  1
  O  O13  1  0.13366000  0.49975000  0.34811000  1
  O  O14  1  0.01759000  0.49962000  0.34813000  1
  O  O15  1  0.01816000  0.65180000  0.49946000  1
  O  O16  1  0.13432000  0.65187000  0.49921000  1
