# generated using pymatgen
data_CuH6C10SO7
_symmetry_space_group_name_H-M   'P 1'
_cell_length_a   21.60930000
_cell_length_b   15.27180000
_cell_length_c   10.00000000
_cell_angle_alpha   90.00000000
_cell_angle_beta   90.00000000
_cell_angle_gamma   134.97000000
_symmetry_Int_Tables_number   1
_chemical_formula_structural   CuH6C10SO7
_chemical_formula_sum   'Cu4 H24 C40 S4 O28'
_cell_volume   2334.76517009
_cell_formula_units_Z   4
loop_
 _symmetry_equiv_pos_site_id
 _symmetry_equiv_pos_as_xyz
  1  'x, y, z'
loop_
 _atom_site_type_symbol
 _atom_site_label
 _atom_site_symmetry_multiplicity
 _atom_site_fract_x
 _atom_site_fract_y
 _atom_site_fract_z
 _atom_site_occupancy
  Cu  Cu1  1  0.49997000  0.49993000  0.62726000  1
  Cu  Cu2  1  0.50003000  0.50006000  0.37274000  1
  Cu  Cu3  1  0.99987000  0.49974000  0.37272000  1
  Cu  Cu4  1  0.00011000  0.50021000  0.62724000  1
  H  H1  1  0.80473000  0.49974000  0.29574000  1
  H  H2  1  0.84568000  0.58123000  0.79992000  1
  H  H3  1  0.76490000  0.41888000  0.79924000  1
  H  H4  1  0.65436000  0.41883000  0.80006000  1
  H  H5  1  0.73514000  0.58118000  0.79911000  1
  H  H6  1  0.19508000  0.49987000  0.29574000  1
  H  H7  1  0.15456000  0.41924000  0.80008000  1
  H  H8  1  0.23533000  0.58159000  0.79908000  1
  H  H9  1  0.34588000  0.58166000  0.79990000  1
  H  H10  1  0.26510000  0.41930000  0.79927000  1
  H  H11  1  0.19520000  0.89038000  0.29534000  1
  H  H12  1  0.23488000  0.88944000  0.79975000  1
  H  H13  1  0.15355000  0.88914000  0.79861000  1
  H  H14  1  0.26414000  0.11017000  0.79958000  1
  H  H15  1  0.34546000  0.11047000  0.79909000  1
  H  H16  1  0.80512000  0.10963000  0.70461000  1
  H  H17  1  0.84615000  0.11012000  0.20044000  1
  H  H18  1  0.76552000  0.11121000  0.20110000  1
  H  H19  1  0.65478000  0.89018000  0.20015000  1
  H  H20  1  0.73541000  0.88910000  0.20113000  1
  H  H21  1  0.67650000  0.62109000  0.15163000  1
  H  H22  1  0.32321000  0.37830000  0.15187000  1
  H  H23  1  0.44499000  0.26793000  0.15183000  1
  H  H24  1  0.67638000  0.73151000  0.84853000  1
  C  C1  1  0.38391000  0.26787000  0.49985000  1
  C  C2  1  0.61608000  0.73212000  0.50014000  1
  C  C3  1  0.38402000  0.50015000  0.50000000  1
  C  C4  1  0.61598000  0.49983000  0.50000000  1
  C  C5  1  0.88419000  0.26785000  0.50049000  1
  C  C6  1  0.11579000  0.73210000  0.49947000  1
  C  C7  1  0.11613000  0.50012000  0.49998000  1
  C  C8  1  0.88385000  0.49982000  0.49998000  1
  C  C9  1  0.81748000  0.49982000  0.49998000  1
  C  C10  1  0.68235000  0.49983000  0.49999000  1
  C  C11  1  0.78368000  0.49990000  0.60561000  1
  C  C12  1  0.71616000  0.49976000  0.39437000  1
  C  C13  1  0.71623000  0.49990000  0.60561000  1
  C  C14  1  0.78360000  0.49976000  0.39437000  1
  C  C15  1  0.78229000  0.50000000  0.75581000  1
  C  C16  1  0.71772000  0.50000000  0.75582000  1
  C  C17  1  0.18250000  0.50013000  0.49998000  1
  C  C18  1  0.31764000  0.50014000  0.49999000  1
  C  C19  1  0.21640000  0.50024000  0.60561000  1
  C  C20  1  0.28374000  0.50003000  0.39437000  1
  C  C21  1  0.28385000  0.50025000  0.60561000  1
  C  C22  1  0.21629000  0.50003000  0.39437000  1
  C  C23  1  0.21791000  0.50040000  0.75581000  1
  C  C24  1  0.28249000  0.50040000  0.75581000  1
  C  C25  1  0.18222000  0.86485000  0.49957000  1
  C  C26  1  0.31748000  0.13512000  0.49976000  1
  C  C27  1  0.21598000  0.93247000  0.60523000  1
  C  C28  1  0.28373000  0.06750000  0.39409000  1
  C  C29  1  0.28349000  0.06737000  0.60533000  1
  C  C30  1  0.21622000  0.93260000  0.39400000  1
  C  C31  1  0.21724000  0.93525000  0.75544000  1
  C  C32  1  0.28188000  0.06441000  0.75553000  1
  C  C33  1  0.81796000  0.13514000  0.50038000  1
  C  C34  1  0.68258000  0.86487000  0.50022000  1
  C  C35  1  0.78412000  0.06750000  0.39472000  1
  C  C36  1  0.71641000  0.93250000  0.60588000  1
  C  C37  1  0.71655000  0.93261000  0.39464000  1
  C  C38  1  0.78399000  0.06740000  0.60596000  1
  C  C39  1  0.78278000  0.06471000  0.24451000  1
  C  C40  1  0.71809000  0.93555000  0.24444000  1
  S  S1  1  0.68214000  0.49962000  0.23604000  1
  S  S2  1  0.31762000  0.49990000  0.23604000  1
  S  S3  1  0.31787000  0.13548000  0.23580000  1
  S  S4  1  0.68229000  0.86454000  0.76417000  1
  O  O1  1  0.41941000  0.33900000  0.61858000  1
  O  O2  1  0.58050000  0.66119000  0.61878000  1
  O  O3  1  0.41950000  0.50028000  0.61868000  1
  O  O4  1  0.58041000  0.49991000  0.61868000  1
  O  O5  1  0.58052000  0.49975000  0.38132000  1
  O  O6  1  0.41956000  0.50003000  0.38132000  1
  O  O7  1  0.58057000  0.66112000  0.38142000  1
  O  O8  1  0.41951000  0.33880000  0.38122000  1
  O  O9  1  0.91967000  0.33882000  0.38165000  1
  O  O10  1  0.08043000  0.66101000  0.38095000  1
  O  O11  1  0.08069000  0.50009000  0.38130000  1
  O  O12  1  0.91942000  0.49974000  0.38130000  1
  O  O13  1  0.91931000  0.49990000  0.61866000  1
  O  O14  1  0.08054000  0.50017000  0.61866000  1
  O  O15  1  0.08046000  0.66126000  0.61830000  1
  O  O16  1  0.91952000  0.33894000  0.61901000  1
  O  O17  1  0.72594000  0.64113000  0.19473000  1
  O  O18  1  0.70798000  0.45832000  0.12091000  1
  O  O19  1  0.57920000  0.41126000  0.22957000  1
  O  O20  1  0.27380000  0.35833000  0.19501000  1
  O  O21  1  0.29168000  0.54100000  0.12083000  1
  O  O22  1  0.42057000  0.58827000  0.22939000  1
  O  O23  1  0.41546000  0.18900000  0.19493000  1
  O  O24  1  0.25092000  0.04268000  0.12050000  1
  O  O25  1  0.33265000  0.25327000  0.22917000  1
  O  O26  1  0.72589000  0.81034000  0.80547000  1
  O  O27  1  0.70822000  0.95754000  0.87935000  1
  O  O28  1  0.57931000  0.74717000  0.77057000  1
