# generated using pymatgen
data_Cu2H13C24S2N20Cl
_symmetry_space_group_name_H-M   'P 1'
_cell_length_a   15.18800000
_cell_length_b   19.95810000
_cell_length_c   7.05280000
_cell_angle_alpha   79.82050000
_cell_angle_beta   103.42600000
_cell_angle_gamma   67.61500000
_symmetry_Int_Tables_number   1
_chemical_formula_structural   Cu2H13C24S2N20Cl
_chemical_formula_sum   'Cu2 H13 C24 S2 N20 Cl1'
_cell_volume   1837.28603360
_cell_formula_units_Z   1
loop_
 _symmetry_equiv_pos_site_id
 _symmetry_equiv_pos_as_xyz
  1  'x, y, z'
loop_
 _atom_site_type_symbol
 _atom_site_label
 _atom_site_symmetry_multiplicity
 _atom_site_fract_x
 _atom_site_fract_y
 _atom_site_fract_z
 _atom_site_occupancy
  Cu  Cu1  1  0.50000000  0.50000000  0.00000000  1
  Cu  Cu2  1  0.50000000  0.50000000  0.50000000  1
  H  H1  1  0.49985000  0.10810000  0.14599000  1
  H  H2  1  0.49995000  0.10804000  0.74581000  1
  H  H3  1  0.50015000  0.89191000  0.25421000  1
  H  H4  1  0.50014000  0.89191000  0.85395000  1
  H  H5  1  0.11266000  0.49991000  0.28016000  1
  H  H6  1  0.45015000  0.30299000  0.94185000  1
  H  H7  1  0.54916000  0.20739000  0.94399000  1
  H  H8  1  0.54922000  0.27019000  0.77128000  1
  H  H9  1  0.45037000  0.24003000  0.83208000  1
  H  H10  1  0.54982000  0.69703000  0.29461000  1
  H  H11  1  0.45080000  0.79265000  0.10217000  1
  H  H12  1  0.45085000  0.72978000  0.99228000  1
  H  H13  1  0.54974000  0.75991000  0.12176000  1
  C  C1  1  0.74654000  0.50020000  0.37317000  1
  C  C2  1  0.49964000  0.31462000  0.34254000  1
  C  C3  1  0.25346000  0.49980000  0.62683000  1
  C  C4  1  0.50035000  0.68538000  0.65747000  1
  C  C5  1  0.49974000  0.24245000  0.37865000  1
  C  C6  1  0.49975000  0.20496000  0.22536000  1
  C  C7  1  0.49984000  0.13325000  0.26073000  1
  C  C8  1  0.49991000  0.09690000  0.45149000  1
  C  C9  1  0.49990000  0.13322000  0.60588000  1
  C  C10  1  0.49981000  0.20493000  0.56949000  1
  C  C11  1  0.49999000  0.03044000  0.48474000  1
  C  C12  1  0.50006000  0.96955000  0.51521000  1
  C  C13  1  0.50013000  0.90309000  0.54848000  1
  C  C14  1  0.50018000  0.86675000  0.39412000  1
  C  C15  1  0.50025000  0.79504000  0.43053000  1
  C  C16  1  0.50029000  0.75754000  0.62134000  1
  C  C17  1  0.50025000  0.79504000  0.77462000  1
  C  C18  1  0.50017000  0.86675000  0.73923000  1
  C  C19  1  0.90632000  0.50008000  0.60352000  1
  C  C20  1  0.09368000  0.49993000  0.39649000  1
  C  C21  1  0.84759000  0.50012000  0.42374000  1
  C  C22  1  0.15240000  0.49988000  0.57626000  1
  C  C23  1  0.00000000  0.50000000  0.40309000  1
  C  C24  1  0.00000000  0.50000000  0.59691000  1
  S  S1  1  0.90212000  0.50008000  0.23398000  1
  S  S2  1  0.09787000  0.49992000  0.76602000  1
  N  N1  1  0.61330000  0.49935000  0.21318000  1
  N  N2  1  0.69654000  0.50024000  0.19105000  1
  N  N3  1  0.50082000  0.41480000  0.38682000  1
  N  N4  1  0.49961000  0.35222000  0.48081000  1
  N  N5  1  0.38670000  0.50065000  0.59922000  1
  N  N6  1  0.30346000  0.49976000  0.49475000  1
  N  N7  1  0.49917000  0.58520000  0.80078000  1
  N  N8  1  0.50039000  0.64778000  0.83339000  1
  N  N9  1  0.38670000  0.50065000  0.78682000  1
  N  N10  1  0.30346000  0.49976000  0.80895000  1
  N  N11  1  0.49917000  0.58520000  0.61318000  1
  N  N12  1  0.50039000  0.64778000  0.51919000  1
  N  N13  1  0.61330000  0.49935000  0.40078000  1
  N  N14  1  0.69654000  0.50024000  0.50525000  1
  N  N15  1  0.50082000  0.41480000  0.19922000  1
  N  N16  1  0.49961000  0.35222000  0.16661000  1
  N  N17  1  0.49968000  0.24169000  0.01883000  1
  N  N18  1  0.49980000  0.24162000  0.73927000  1
  N  N19  1  0.50029000  0.75833000  0.26078000  1
  N  N20  1  0.50028000  0.75833000  0.98112000  1
  Cl  Cl1  1  0.87043000  0.50010000  0.82353000  1
