# generated using pymatgen
data_ZnH8C20BrN(ClO)4
_symmetry_space_group_name_H-M   'P 1'
_cell_length_a   16.73580000
_cell_length_b   17.72200000
_cell_length_c   13.19080000
_cell_angle_alpha   89.86110000
_cell_angle_beta   92.07890000
_cell_angle_gamma   84.91510000
_symmetry_Int_Tables_number   1
_chemical_formula_structural   ZnH8C20BrN(ClO)4
_chemical_formula_sum   'Zn2 H16 C40 Br2 N2 Cl8 O8'
_cell_volume   3894.25943826
_cell_formula_units_Z   2
loop_
 _symmetry_equiv_pos_site_id
 _symmetry_equiv_pos_as_xyz
  1  'x, y, z'
loop_
 _atom_site_type_symbol
 _atom_site_label
 _atom_site_symmetry_multiplicity
 _atom_site_fract_x
 _atom_site_fract_y
 _atom_site_fract_z
 _atom_site_occupancy
  Zn  Zn1  1  0.59938000  0.49641000  0.50486000  1
  Zn  Zn2  1  0.40062000  0.50361000  0.49515000  1
  H  H1  1  0.27654000  0.42218000  0.60505000  1
  H  H2  1  0.13117000  0.42692000  0.59866000  1
  H  H3  1  0.87896000  0.40020000  0.63472000  1
  H  H4  1  0.86883000  0.57310000  0.40137000  1
  H  H5  1  0.99666000  0.56096000  0.41775000  1
  H  H6  1  0.00333000  0.43904000  0.58230000  1
  H  H7  1  0.38400000  0.26146000  0.49448000  1
  H  H8  1  0.39069000  0.12419000  0.49466000  1
  H  H9  1  0.34988000  0.88621000  0.49237000  1
  H  H10  1  0.60929000  0.87583000  0.50526000  1
  H  H11  1  0.59145000  0.99657000  0.50451000  1
  H  H12  1  0.40852000  0.00344000  0.49541000  1
  H  H13  1  0.62149000  0.49548000  0.15083000  1
  H  H14  1  0.37222000  0.50430000  0.21107000  1
  H  H15  1  0.37852000  0.50428000  0.84918000  1
  H  H16  1  0.62778000  0.49546000  0.78893000  1
  C  C1  1  0.50796000  0.35236000  0.50075000  1
  C  C2  1  0.49986000  0.50007000  0.69773000  1
  C  C3  1  0.49204000  0.64766000  0.49917000  1
  C  C4  1  0.50015000  0.49969000  0.30228000  1
  C  C5  1  0.24294000  0.46110000  0.55253000  1
  C  C6  1  0.15896000  0.46407000  0.54851000  1
  C  C7  1  0.11326000  0.51411000  0.48098000  1
  C  C8  1  0.15416000  0.56073000  0.41806000  1
  C  C9  1  0.23806000  0.55773000  0.42212000  1
  C  C10  1  0.02371000  0.52034000  0.47257000  1
  C  C11  1  0.97629000  0.47966000  0.52748000  1
  C  C12  1  0.84583000  0.43928000  0.58197000  1
  C  C13  1  0.88673000  0.48590000  0.51906000  1
  C  C14  1  0.84104000  0.53593000  0.45152000  1
  C  C15  1  0.75706000  0.53891000  0.44750000  1
  C  C16  1  0.76193000  0.44229000  0.57791000  1
  C  C17  1  0.51257000  0.26782000  0.50088000  1
  C  C18  1  0.44230000  0.22955000  0.49735000  1
  C  C19  1  0.44653000  0.15026000  0.49747000  1
  C  C20  1  0.52148000  0.10688000  0.50115000  1
  C  C21  1  0.59155000  0.14527000  0.50468000  1
  C  C22  1  0.58728000  0.22449000  0.50455000  1
  C  C23  1  0.53058000  0.02230000  0.50151000  1
  C  C24  1  0.46939000  0.97772000  0.49841000  1
  C  C25  1  0.40843000  0.85475000  0.49524000  1
  C  C26  1  0.47849000  0.89314000  0.49877000  1
  C  C27  1  0.55345000  0.84977000  0.50245000  1
  C  C28  1  0.55768000  0.77047000  0.50258000  1
  C  C29  1  0.48743000  0.73220000  0.49904000  1
  C  C30  1  0.41271000  0.77552000  0.49537000  1
  C  C31  1  0.55874000  0.49772000  0.12426000  1
  C  C32  1  0.41844000  0.50269000  0.15576000  1
  C  C33  1  0.39671000  0.50352000  0.05189000  1
  C  C34  1  0.45943000  0.50133000  0.98219000  1
  C  C35  1  0.44127000  0.50204000  0.87575000  1
  C  C36  1  0.58157000  0.49707000  0.84425000  1
  C  C37  1  0.60330000  0.49624000  0.94812000  1
  C  C38  1  0.54058000  0.49843000  0.01782000  1
  C  C39  1  0.50010000  0.49976000  0.19004000  1
  C  C40  1  0.49991000  0.50000000  0.80997000  1
  Br  Br1  1  0.72233000  0.49197000  0.99987000  1
  Br  Br2  1  0.27767000  0.50780000  0.00015000  1
  N  N1  1  0.28370000  0.50784000  0.48944000  1
  N  N2  1  0.71629000  0.49217000  0.51058000  1
  Cl  Cl1  1  0.28628000  0.61729000  0.34173000  1
  Cl  Cl2  1  0.10031000  0.62425000  0.33235000  1
  Cl  Cl3  1  0.70246000  0.60217000  0.36213000  1
  Cl  Cl4  1  0.71371000  0.38273000  0.65829000  1
  Cl  Cl5  1  0.67680000  0.26974000  0.50906000  1
  Cl  Cl6  1  0.68670000  0.09413000  0.50935000  1
  Cl  Cl7  1  0.65245000  0.71862000  0.50723000  1
  Cl  Cl8  1  0.32319000  0.73027000  0.49087000  1
  O  O1  1  0.58733000  0.38787000  0.50501000  1
  O  O2  1  0.42438000  0.39379000  0.49653000  1
  O  O3  1  0.41836000  0.50300000  0.64218000  1
  O  O4  1  0.58131000  0.49720000  0.65022000  1
  O  O5  1  0.41266000  0.61215000  0.49519000  1
  O  O6  1  0.57562000  0.60623000  0.50329000  1
  O  O7  1  0.58165000  0.49686000  0.35783000  1
  O  O8  1  0.41868000  0.50295000  0.34979000  1
