# generated using pymatgen
data_Cu4H82C100S2N4O17
_symmetry_space_group_name_H-M   'P 1'
_cell_length_a   29.87330000
_cell_length_b   17.37220000
_cell_length_c   15.85000000
_cell_angle_alpha   89.99440000
_cell_angle_beta   89.99290000
_cell_angle_gamma   89.86770000
_symmetry_Int_Tables_number   1
_chemical_formula_structural   Cu4H82C100S2N4O17
_chemical_formula_sum   'Cu4 H82 C100 S2 N4 O17'
_cell_volume   8225.57230398
_cell_formula_units_Z   1
loop_
 _symmetry_equiv_pos_site_id
 _symmetry_equiv_pos_as_xyz
  1  'x, y, z'
loop_
 _atom_site_type_symbol
 _atom_site_label
 _atom_site_symmetry_multiplicity
 _atom_site_fract_x
 _atom_site_fract_y
 _atom_site_fract_z
 _atom_site_occupancy
  Cu  Cu1  1  0.50001000  0.50000000  0.41971000  1
  Cu  Cu2  1  0.50000000  0.49999000  0.58029000  1
  Cu  Cu3  1  0.91847000  0.49941000  0.58030000  1
  Cu  Cu4  1  0.91848000  0.49996000  0.41972000  1
  H  H1  1  0.44991000  0.58623000  0.13391000  1
  H  H2  1  0.55009000  0.41376000  0.13389000  1
  H  H3  1  0.44989000  0.58620000  0.86610000  1
  H  H4  1  0.55010000  0.41378000  0.86610000  1
  H  H5  1  0.49992000  0.12218000  0.36656000  1
  H  H6  1  0.50010000  0.12214000  0.63343000  1
  H  H7  1  0.49986000  0.87784000  0.36655000  1
  H  H8  1  0.50009000  0.87782000  0.63342000  1
  H  H9  1  0.76493000  0.49991000  0.37711000  1
  H  H10  1  0.13818000  0.49974000  0.63345000  1
  H  H11  1  0.13821000  0.50003000  0.36658000  1
  H  H12  1  0.28028000  0.49994000  0.63345000  1
  H  H13  1  0.28029000  0.50014000  0.36659000  1
  H  H14  1  0.96837000  0.58803000  0.86644000  1
  H  H15  1  0.86857000  0.41570000  0.86579000  1
  H  H16  1  0.96840000  0.58707000  0.13426000  1
  H  H17  1  0.86857000  0.41481000  0.13358000  1
  H  H18  1  0.91720000  0.12141000  0.63589000  1
  H  H19  1  0.91701000  0.12229000  0.36902000  1
  H  H20  1  0.91779000  0.87707000  0.63494000  1
  H  H21  1  0.91756000  0.87796000  0.36808000  1
  H  H22  1  0.44578000  0.65723000  0.28532000  1
  H  H23  1  0.44250000  0.59887000  0.36050000  1
  H  H24  1  0.40865000  0.59360000  0.28515000  1
  H  H25  1  0.55424000  0.34277000  0.28532000  1
  H  H26  1  0.55753000  0.40114000  0.36048000  1
  H  H27  1  0.59137000  0.40640000  0.28510000  1
  H  H28  1  0.40861000  0.59338000  0.71469000  1
  H  H29  1  0.44255000  0.59898000  0.63951000  1
  H  H30  1  0.44564000  0.65717000  0.71487000  1
  H  H31  1  0.59138000  0.40659000  0.71468000  1
  H  H32  1  0.55744000  0.40099000  0.63951000  1
  H  H33  1  0.55434000  0.34280000  0.71488000  1
  H  H34  1  0.52617000  0.26023000  0.30600000  1
  H  H35  1  0.49988000  0.32892000  0.34691000  1
  H  H36  1  0.47370000  0.26028000  0.30603000  1
  H  H37  1  0.47389000  0.26040000  0.69401000  1
  H  H38  1  0.50022000  0.32887000  0.65311000  1
  H  H39  1  0.52637000  0.25999000  0.69398000  1
  H  H40  1  0.47352000  0.73980000  0.30614000  1
  H  H41  1  0.49989000  0.67110000  0.34689000  1
  H  H42  1  0.52599000  0.73975000  0.30586000  1
  H  H43  1  0.52640000  0.73955000  0.69384000  1
  H  H44  1  0.50001000  0.67108000  0.65309000  1
  H  H45  1  0.47392000  0.73995000  0.69412000  1
  H  H46  1  0.05792000  0.45440000  0.69389000  1
  H  H47  1  0.01796000  0.49970000  0.65311000  1
  H  H48  1  0.05786000  0.54464000  0.69411000  1
  H  H49  1  0.05779000  0.54519000  0.30613000  1
  H  H50  1  0.01799000  0.49980000  0.34691000  1
  H  H51  1  0.05805000  0.45495000  0.30591000  1
  H  H52  1  0.36054000  0.54514000  0.69399000  1
  H  H53  1  0.40050000  0.49992000  0.65311000  1
  H  H54  1  0.36059000  0.45490000  0.69402000  1
  H  H55  1  0.36070000  0.45509000  0.30604000  1
  H  H56  1  0.40051000  0.50039000  0.34691000  1
  H  H57  1  0.36045000  0.54533000  0.30601000  1
  H  H58  1  0.97235000  0.65954000  0.71531000  1
  H  H59  1  0.97576000  0.60143000  0.63991000  1
  H  H60  1  0.00962000  0.59585000  0.71523000  1
  H  H61  1  0.86458000  0.34524000  0.71409000  1
  H  H62  1  0.86116000  0.40387000  0.63916000  1
  H  H63  1  0.82731000  0.40892000  0.71456000  1
  H  H64  1  0.00967000  0.59368000  0.28569000  1
  H  H65  1  0.97571000  0.59907000  0.36089000  1
  H  H66  1  0.97249000  0.65752000  0.28576000  1
  H  H67  1  0.82730000  0.40715000  0.28497000  1
  H  H68  1  0.86126000  0.40125000  0.36011000  1
  H  H69  1  0.86448000  0.34332000  0.28452000  1
  H  H70  1  0.89064000  0.25928000  0.69699000  1
  H  H71  1  0.91679000  0.32808000  0.65635000  1
  H  H72  1  0.94312000  0.25926000  0.69696000  1
  H  H73  1  0.94292000  0.26072000  0.30898000  1
  H  H74  1  0.91645000  0.32908000  0.35015000  1
  H  H75  1  0.89044000  0.26038000  0.30901000  1
  H  H76  1  0.94444000  0.73879000  0.69481000  1
  H  H77  1  0.91822000  0.67027000  0.65380000  1
  H  H78  1  0.89196000  0.73881000  0.69509000  1
  H  H79  1  0.89155000  0.73994000  0.30711000  1
  H  H80  1  0.91809000  0.67130000  0.34760000  1
  H  H81  1  0.94403000  0.74027000  0.30684000  1
  H  H82  1  0.67737000  0.49942000  0.69990000  1
  C  C1  1  0.58396000  0.49983000  0.50000000  1
  C  C2  1  0.41605000  0.50016000  0.50001000  1
  C  C3  1  0.49995000  0.64436000  0.49999000  1
  C  C4  1  0.50005000  0.35563000  0.50001000  1
  C  C5  1  0.83452000  0.49964000  0.50002000  1
  C  C6  1  0.00243000  0.49973000  0.50001000  1
  C  C7  1  0.91821000  0.64405000  0.50059000  1
  C  C8  1  0.91874000  0.35532000  0.49944000  1
  C  C9  1  0.47127000  0.54948000  0.25392000  1
  C  C10  1  0.47118000  0.54962000  0.16508000  1
  C  C11  1  0.50000000  0.49999000  0.12006000  1
  C  C12  1  0.52882000  0.45037000  0.16507000  1
  C  C13  1  0.52874000  0.45052000  0.25391000  1
  C  C14  1  0.50000000  0.50000000  0.03772000  1
  C  C15  1  0.49999000  0.50000000  0.96228000  1
  C  C16  1  0.49999000  0.49999000  0.87995000  1
  C  C17  1  0.47116000  0.54960000  0.83493000  1
  C  C18  1  0.47125000  0.54945000  0.74608000  1
  C  C19  1  0.52874000  0.45053000  0.74608000  1
  C  C20  1  0.52882000  0.45038000  0.83493000  1
  C  C21  1  0.50004000  0.27406000  0.50001000  1
  C  C22  1  0.49998000  0.23168000  0.42345000  1
  C  C23  1  0.49996000  0.15062000  0.42322000  1
  C  C24  1  0.50001000  0.10953000  0.49999000  1
  C  C25  1  0.50007000  0.15059000  0.57678000  1
  C  C26  1  0.50008000  0.23165000  0.57656000  1
  C  C27  1  0.50000000  0.03441000  0.49999000  1
  C  C28  1  0.49999000  0.96558000  0.49998000  1
  C  C29  1  0.49998000  0.89046000  0.49998000  1
  C  C30  1  0.49990000  0.84939000  0.42320000  1
  C  C31  1  0.49990000  0.76833000  0.42343000  1
  C  C32  1  0.49996000  0.72593000  0.49999000  1
  C  C33  1  0.50003000  0.76832000  0.57654000  1
  C  C34  1  0.50004000  0.84938000  0.57677000  1
  C  C35  1  0.66293000  0.49966000  0.56692000  1
  C  C36  1  0.75555000  0.49982000  0.43309000  1
  C  C37  1  0.63391000  0.49979000  0.50000000  1
  C  C38  1  0.78457000  0.49968000  0.50001000  1
  C  C39  1  0.70924000  0.49981000  0.45689000  1
  C  C40  1  0.70923000  0.49966000  0.54313000  1
  C  C41  1  0.04986000  0.49978000  0.50001000  1
  C  C42  1  0.07451000  0.49973000  0.57657000  1
  C  C43  1  0.12165000  0.49978000  0.57680000  1
  C  C44  1  0.14554000  0.49989000  0.50002000  1
  C  C45  1  0.12166000  0.49995000  0.42324000  1
  C  C46  1  0.07452000  0.49990000  0.42346000  1
  C  C47  1  0.18923000  0.49994000  0.50002000  1
  C  C48  1  0.22925000  0.49998000  0.50003000  1
  C  C49  1  0.27294000  0.50003000  0.50002000  1
  C  C50  1  0.29682000  0.49999000  0.57680000  1
  C  C51  1  0.34396000  0.50004000  0.57657000  1
  C  C52  1  0.36861000  0.50012000  0.50001000  1
  C  C53  1  0.34396000  0.50016000  0.42346000  1
  C  C54  1  0.29682000  0.50011000  0.42324000  1
  C  C55  1  0.94709000  0.55171000  0.74629000  1
  C  C56  1  0.94719000  0.55155000  0.83513000  1
  C  C57  1  0.91847000  0.50182000  0.87996000  1
  C  C58  1  0.88976000  0.45239000  0.83476000  1
  C  C59  1  0.88984000  0.45285000  0.74591000  1
  C  C60  1  0.91848000  0.50154000  0.96230000  1
  C  C61  1  0.91848000  0.50128000  0.03774000  1
  C  C62  1  0.91848000  0.50099000  0.12007000  1
  C  C63  1  0.94721000  0.55040000  0.16529000  1
  C  C64  1  0.94712000  0.54994000  0.25413000  1
  C  C65  1  0.88984000  0.45111000  0.25374000  1
  C  C66  1  0.88976000  0.45127000  0.16489000  1
  C  C67  1  0.91675000  0.27374000  0.50304000  1
  C  C68  1  0.91690000  0.23110000  0.57943000  1
  C  C69  1  0.91709000  0.15004000  0.57935000  1
  C  C70  1  0.91714000  0.10922000  0.50241000  1
  C  C71  1  0.91699000  0.15054000  0.42578000  1
  C  C72  1  0.91680000  0.23160000  0.42632000  1
  C  C73  1  0.91731000  0.03410000  0.50212000  1
  C  C74  1  0.91747000  0.96527000  0.50186000  1
  C  C75  1  0.91765000  0.89015000  0.50156000  1
  C  C76  1  0.91781000  0.84882000  0.57818000  1
  C  C77  1  0.91799000  0.76776000  0.57763000  1
  C  C78  1  0.91802000  0.72562000  0.50091000  1
  C  C79  1  0.91786000  0.76827000  0.42452000  1
  C  C80  1  0.91768000  0.84933000  0.42462000  1
  C  C81  1  0.43897000  0.60510000  0.30069000  1
  C  C82  1  0.56105000  0.39490000  0.30066000  1
  C  C83  1  0.43893000  0.60505000  0.69933000  1
  C  C84  1  0.56106000  0.39492000  0.69933000  1
  C  C85  1  0.49993000  0.27435000  0.33739000  1
  C  C86  1  0.50015000  0.27430000  0.66263000  1
  C  C87  1  0.49982000  0.72568000  0.33737000  1
  C  C88  1  0.50010000  0.72566000  0.66261000  1
  C  C89  1  0.04970000  0.49961000  0.66263000  1
  C  C90  1  0.04972000  0.49997000  0.33739000  1
  C  C91  1  0.36876000  0.50000000  0.66263000  1
  C  C92  1  0.36877000  0.50025000  0.33739000  1
  C  C93  1  0.97928000  0.60745000  0.69975000  1
  C  C94  1  0.85765000  0.39743000  0.69895000  1
  C  C95  1  0.97932000  0.60534000  0.30110000  1
  C  C96  1  0.85765000  0.39539000  0.30028000  1
  C  C97  1  0.91686000  0.27347000  0.66566000  1
  C  C98  1  0.91664000  0.27454000  0.34042000  1
  C  C99  1  0.91817000  0.72481000  0.66353000  1
  C  C100  1  0.91789000  0.72590000  0.33829000  1
  S  S1  1  0.66087000  0.49994000  0.40342000  1
  S  S2  1  0.75761000  0.49953000  0.59659000  1
  N  N1  1  0.50001000  0.50000000  0.30038000  1
  N  N2  1  0.49999000  0.49999000  0.69962000  1
  N  N3  1  0.91846000  0.50244000  0.69964000  1
  N  N4  1  0.91848000  0.50037000  0.30040000  1
  O  O1  1  0.55821000  0.49998000  0.42512000  1
  O  O2  1  0.44168000  0.50024000  0.42513000  1
  O  O3  1  0.49989000  0.60030000  0.42512000  1
  O  O4  1  0.50001000  0.39992000  0.42513000  1
  O  O5  1  0.50010000  0.39969000  0.57488000  1
  O  O6  1  0.50001000  0.60007000  0.57487000  1
  O  O7  1  0.44175000  0.50012000  0.57488000  1
  O  O8  1  0.55832000  0.49972000  0.57487000  1
  O  O9  1  0.86027000  0.49950000  0.57490000  1
  O  O10  1  0.97679000  0.49959000  0.57489000  1
  O  O11  1  0.91837000  0.59973000  0.57529000  1
  O  O12  1  0.91869000  0.39935000  0.57449000  1
  O  O13  1  0.91859000  0.39964000  0.42474000  1
  O  O14  1  0.91825000  0.60002000  0.42554000  1
  O  O15  1  0.97673000  0.49998000  0.42513000  1
  O  O16  1  0.86015000  0.49975000  0.42514000  1
  O  O17  1  0.64770000  0.49951000  0.65777000  1
