# generated using pymatgen
data_LiZnH10C20NCl2O5
_symmetry_space_group_name_H-M   'P 1'
_cell_length_a   16.73580000
_cell_length_b   17.72200000
_cell_length_c   10.74380000
_cell_angle_alpha   89.85080000
_cell_angle_beta   92.08590000
_cell_angle_gamma   84.91510000
_symmetry_Int_Tables_number   1
_chemical_formula_structural   LiZnH10C20NCl2O5
_chemical_formula_sum   'Li2 Zn2 H20 C40 N2 Cl4 O10'
_cell_volume   3171.82525178
_cell_formula_units_Z   2
loop_
 _symmetry_equiv_pos_site_id
 _symmetry_equiv_pos_as_xyz
  1  'x, y, z'
loop_
 _atom_site_type_symbol
 _atom_site_label
 _atom_site_symmetry_multiplicity
 _atom_site_fract_x
 _atom_site_fract_y
 _atom_site_fract_z
 _atom_site_occupancy
  Li  Li1  1  0.29445000  0.30269000  0.27297000  1
  Li  Li2  1  0.29418000  0.30305000  0.70520000  1
  Zn  Zn1  1  0.59938000  0.49641000  0.50596000  1
  Zn  Zn2  1  0.40062000  0.50361000  0.49404000  1
  H  H1  1  0.27655000  0.42217000  0.62898000  1
  H  H2  1  0.13118000  0.42690000  0.62113000  1
  H  H3  1  0.12101000  0.59983000  0.33464000  1
  H  H4  1  0.26771000  0.59439000  0.34366000  1
  H  H5  1  0.87898000  0.40018000  0.66540000  1
  H  H6  1  0.86882000  0.57311000  0.37891000  1
  H  H7  1  0.72345000  0.57785000  0.37105000  1
  H  H8  1  0.73228000  0.40563000  0.65636000  1
  H  H9  1  0.38400000  0.26146000  0.49322000  1
  H  H10  1  0.39069000  0.12419000  0.49344000  1
  H  H11  1  0.65010000  0.11380000  0.50927000  1
  H  H12  1  0.64235000  0.25233000  0.50899000  1
  H  H13  1  0.34988000  0.88621000  0.49063000  1
  H  H14  1  0.60929000  0.87583000  0.50646000  1
  H  H15  1  0.61599000  0.73857000  0.50668000  1
  H  H16  1  0.35764000  0.74768000  0.49091000  1
  H  H17  1  0.40407000  0.40777000  0.20635000  1
  H  H18  1  0.40387000  0.40803000  0.78347000  1
  H  H19  1  0.58131000  0.57786000  0.90233000  1
  H  H20  1  0.58141000  0.57773000  0.10631000  1
  C  C1  1  0.50796000  0.35236000  0.50092000  1
  C  C2  1  0.49988000  0.50004000  0.74277000  1
  C  C3  1  0.49204000  0.64766000  0.49898000  1
  C  C4  1  0.50013000  0.49972000  0.25724000  1
  C  C5  1  0.24294000  0.46109000  0.56449000  1
  C  C6  1  0.15897000  0.46407000  0.55956000  1
  C  C7  1  0.11326000  0.51411000  0.47664000  1
  C  C8  1  0.15415000  0.56074000  0.39940000  1
  C  C9  1  0.23805000  0.55774000  0.40438000  1
  C  C10  1  0.02370000  0.52035000  0.46632000  1
  C  C11  1  0.97629000  0.47965000  0.53373000  1
  C  C12  1  0.84584000  0.43927000  0.60064000  1
  C  C13  1  0.88674000  0.48589000  0.52340000  1
  C  C14  1  0.84103000  0.53594000  0.44048000  1
  C  C15  1  0.75706000  0.53892000  0.43554000  1
  C  C16  1  0.76194000  0.44228000  0.59565000  1
  C  C17  1  0.51257000  0.26782000  0.50108000  1
  C  C18  1  0.44230000  0.22955000  0.49674000  1
  C  C19  1  0.44653000  0.15026000  0.49689000  1
  C  C20  1  0.52148000  0.10688000  0.50141000  1
  C  C21  1  0.59156000  0.14527000  0.50574000  1
  C  C22  1  0.58728000  0.22449000  0.50559000  1
  C  C23  1  0.53058000  0.02230000  0.50185000  1
  C  C24  1  0.46939000  0.97772000  0.49805000  1
  C  C25  1  0.40843000  0.85475000  0.49416000  1
  C  C26  1  0.47849000  0.89314000  0.49849000  1
  C  C27  1  0.55345000  0.84977000  0.50301000  1
  C  C28  1  0.55768000  0.77047000  0.50316000  1
  C  C29  1  0.48743000  0.73220000  0.49882000  1
  C  C30  1  0.41271000  0.77552000  0.49431000  1
  C  C31  1  0.50006000  0.49980000  0.12141000  1
  C  C32  1  0.45080000  0.45269000  0.05509000  1
  C  C33  1  0.54927000  0.54700000  0.06032000  1
  C  C34  1  0.40273000  0.40658000  0.11985000  1
  C  C35  1  0.35290000  0.35891000  0.05734000  1
  C  C36  1  0.49995000  0.49996000  0.87860000  1
  C  C37  1  0.54921000  0.54707000  0.94492000  1
  C  C38  1  0.45074000  0.45276000  0.93969000  1
  C  C39  1  0.40261000  0.40674000  0.86982000  1
  C  C40  1  0.35283000  0.35899000  0.92704000  1
  N  N1  1  0.28370000  0.50785000  0.48703000  1
  N  N2  1  0.71630000  0.49217000  0.51299000  1
  Cl  Cl1  1  0.97954000  0.58668000  0.35642000  1
  Cl  Cl2  1  0.02045000  0.41332000  0.64363000  1
  Cl  Cl3  1  0.62997000  0.98030000  0.50786000  1
  Cl  Cl4  1  0.37000000  0.01972000  0.49204000  1
  O  O1  1  0.58733000  0.38787000  0.50615000  1
  O  O2  1  0.42438000  0.39379000  0.49574000  1
  O  O3  1  0.41837000  0.50298000  0.67456000  1
  O  O4  1  0.58133000  0.49718000  0.68443000  1
  O  O5  1  0.41266000  0.61215000  0.49409000  1
  O  O6  1  0.57562000  0.60623000  0.50403000  1
  O  O7  1  0.58163000  0.49688000  0.32544000  1
  O  O8  1  0.41866000  0.50297000  0.31558000  1
  O  O9  1  0.30832000  0.31615000  0.11775000  1
  O  O10  1  0.30820000  0.31631000  0.86190000  1
