# generated using pymatgen
data_CuH14C22NO9
_symmetry_space_group_name_H-M   'P 1'
_cell_length_a   15.84940000
_cell_length_b   17.52180000
_cell_length_c   17.37220000
_cell_angle_alpha   89.91930000
_cell_angle_beta   87.67120000
_cell_angle_gamma   95.29000000
_symmetry_Int_Tables_number   1
_chemical_formula_structural   CuH14C22NO9
_chemical_formula_sum   'Cu2 H28 C44 N2 O18'
_cell_volume   4799.85377797
_cell_formula_units_Z   2
loop_
 _symmetry_equiv_pos_site_id
 _symmetry_equiv_pos_as_xyz
  1  'x, y, z'
loop_
 _atom_site_type_symbol
 _atom_site_label
 _atom_site_symmetry_multiplicity
 _atom_site_fract_x
 _atom_site_fract_y
 _atom_site_fract_z
 _atom_site_occupancy
  Cu  Cu1  1  0.41940000  0.49703000  0.50299000  1
  Cu  Cu2  1  0.58059000  0.50296000  0.49702000  1
  H  H1  1  0.29242000  0.57949000  0.41993000  1
  H  H2  1  0.13885000  0.57439000  0.42507000  1
  H  H3  1  0.87258000  0.60097000  0.39829000  1
  H  H4  1  0.86114000  0.42561000  0.57494000  1
  H  H5  1  0.99622000  0.43817000  0.56228000  1
  H  H6  1  0.00378000  0.56183000  0.43771000  1
  H  H7  1  0.62266000  0.26479000  0.49571000  1
  H  H8  1  0.61553000  0.12593000  0.49593000  1
  H  H9  1  0.65853000  0.88534000  0.49435000  1
  H  H10  1  0.38448000  0.87406000  0.50408000  1
  H  H11  1  0.40338000  0.99625000  0.50343000  1
  H  H12  1  0.59665000  0.00374000  0.49658000  1
  H  H13  1  0.36621000  0.49532000  0.26478000  1
  H  H14  1  0.36607000  0.49530000  0.12716000  1
  H  H15  1  0.63382000  0.50478000  0.25482000  1
  H  H16  1  0.36618000  0.49527000  0.74517000  1
  H  H17  1  0.63378000  0.50465000  0.73524000  1
  H  H18  1  0.63391000  0.50469000  0.87287000  1
  H  H19  1  0.36440000  0.40031000  0.60042000  1
  H  H20  1  0.04457000  0.38806000  0.61276000  1
  H  H21  1  0.62468000  0.40996000  0.59070000  1
  H  H22  1  0.63558000  0.59968000  0.39959000  1
  H  H23  1  0.34219000  0.32892000  0.50568000  1
  H  H24  1  0.32478000  0.03970000  0.50623000  1
  H  H25  1  0.36132000  0.66020000  0.50486000  1
  H  H26  1  0.65781000  0.67106000  0.49433000  1
  H  H27  1  0.64941000  0.50531000  0.04011000  1
  H  H28  1  0.35057000  0.49477000  0.95988000  1
  C  C1  1  0.49998000  0.49993000  0.64437000  1
  C  C2  1  0.50002000  0.50006000  0.35563000  1
  C  C3  1  0.50824000  0.64363000  0.49964000  1
  C  C4  1  0.49176000  0.35636000  0.50037000  1
  C  C5  1  0.25676000  0.53995000  0.45975000  1
  C  C6  1  0.16805000  0.53676000  0.46297000  1
  C  C7  1  0.11957000  0.48593000  0.51418000  1
  C  C8  1  0.16256000  0.43873000  0.56172000  1
  C  C9  1  0.25119000  0.44195000  0.55847000  1
  C  C10  1  0.02495000  0.47942000  0.52073000  1
  C  C11  1  0.97505000  0.52058000  0.47926000  1
  C  C12  1  0.83743000  0.56127000  0.43828000  1
  C  C13  1  0.88043000  0.51407000  0.48582000  1
  C  C14  1  0.83195000  0.46324000  0.53703000  1
  C  C15  1  0.74324000  0.46004000  0.54025000  1
  C  C16  1  0.74880000  0.55804000  0.44153000  1
  C  C17  1  0.48685000  0.27084000  0.50053000  1
  C  C18  1  0.56106000  0.23234000  0.49789000  1
  C  C19  1  0.55655000  0.15212000  0.49803000  1
  C  C20  1  0.47735000  0.10802000  0.50083000  1
  C  C21  1  0.40335000  0.14664000  0.50347000  1
  C  C22  1  0.40790000  0.22679000  0.50332000  1
  C  C23  1  0.46771000  0.02245000  0.50116000  1
  C  C24  1  0.53232000  0.97755000  0.49885000  1
  C  C25  1  0.59667000  0.85334000  0.49654000  1
  C  C26  1  0.52267000  0.89197000  0.49918000  1
  C  C27  1  0.44346000  0.84787000  0.50198000  1
  C  C28  1  0.43895000  0.76765000  0.50212000  1
  C  C29  1  0.51316000  0.72915000  0.49948000  1
  C  C30  1  0.59211000  0.77320000  0.49669000  1
  C  C31  1  0.50001000  0.50005000  0.27406000  1
  C  C32  1  0.42317000  0.49733000  0.23453000  1
  C  C33  1  0.42293000  0.49731000  0.15348000  1
  C  C34  1  0.50000000  0.50003000  0.10954000  1
  C  C35  1  0.57707000  0.50276000  0.14775000  1
  C  C36  1  0.57685000  0.50277000  0.22881000  1
  C  C37  1  0.49999000  0.50002000  0.03442000  1
  C  C38  1  0.49998000  0.50001000  0.96559000  1
  C  C39  1  0.49998000  0.49999000  0.89047000  1
  C  C40  1  0.42291000  0.49729000  0.85225000  1
  C  C41  1  0.42314000  0.49728000  0.77119000  1
  C  C42  1  0.49998000  0.49996000  0.72594000  1
  C  C43  1  0.57682000  0.50266000  0.76548000  1
  C  C44  1  0.57705000  0.50269000  0.84653000  1
  N  N1  1  0.29962000  0.49263000  0.50742000  1
  N  N2  1  0.70038000  0.50736000  0.49259000  1
  O  O1  1  0.42483000  0.49728000  0.60287000  1
  O  O2  1  0.42486000  0.49741000  0.40249000  1
  O  O3  1  0.43056000  0.59702000  0.50238000  1
  O  O4  1  0.41912000  0.39767000  0.50298000  1
  O  O5  1  0.56943000  0.40297000  0.49760000  1
  O  O6  1  0.58087000  0.60232000  0.49705000  1
  O  O7  1  0.57517000  0.50282000  0.39705000  1
  O  O8  1  0.57513000  0.50256000  0.59751000  1
  O  O9  1  0.29467000  0.39022000  0.61059000  1
  O  O10  1  0.11354000  0.38338000  0.61747000  1
  O  O11  1  0.69353000  0.40491000  0.59579000  1
  O  O12  1  0.70531000  0.60978000  0.38942000  1
  O  O13  1  0.32679000  0.26582000  0.50621000  1
  O  O14  1  0.31709000  0.10202000  0.50652000  1
  O  O15  1  0.35305000  0.72241000  0.50516000  1
  O  O16  1  0.67322000  0.73416000  0.49380000  1
  O  O17  1  0.66084000  0.50572000  0.10273000  1
  O  O18  1  0.33914000  0.49436000  0.89727000  1
