# generated using pymatgen
data_ZnH13C18(NO)5
_symmetry_space_group_name_H-M   'P 1'
_cell_length_a   16.49240000
_cell_length_b   17.47660000
_cell_length_c   10.74380000
_cell_angle_alpha   89.85080000
_cell_angle_beta   92.28690000
_cell_angle_gamma   84.44930000
_symmetry_Int_Tables_number   1
_chemical_formula_structural   ZnH13C18(NO)5
_chemical_formula_sum   'Zn2 H26 C36 N10 O10'
_cell_volume   3079.65676758
_cell_formula_units_Z   2
loop_
 _symmetry_equiv_pos_site_id
 _symmetry_equiv_pos_as_xyz
  1  'x, y, z'
loop_
 _atom_site_type_symbol
 _atom_site_label
 _atom_site_symmetry_multiplicity
 _atom_site_fract_x
 _atom_site_fract_y
 _atom_site_fract_z
 _atom_site_occupancy
  Zn  Zn1  1  0.60091000  0.49602000  0.50651000  1
  Zn  Zn2  1  0.39909000  0.50400000  0.49349000  1
  H  H1  1  0.27350000  0.42169000  0.62795000  1
  H  H2  1  0.12344000  0.42801000  0.61761000  1
  H  H3  1  0.11362000  0.60226000  0.33301000  1
  H  H4  1  0.88637000  0.39776000  0.66702000  1
  H  H5  1  0.87656000  0.57201000  0.38241000  1
  H  H6  1  0.72649000  0.57833000  0.37208000  1
  H  H7  1  0.38328000  0.25841000  0.49265000  1
  H  H8  1  0.39229000  0.11681000  0.49305000  1
  H  H9  1  0.65388000  0.10670000  0.51019000  1
  H  H10  1  0.34612000  0.89332000  0.48971000  1
  H  H11  1  0.60771000  0.88321000  0.50686000  1
  H  H12  1  0.61672000  0.74161000  0.50725000  1
  H  H13  1  0.40308000  0.40676000  0.20585000  1
  H  H14  1  0.31911000  0.32641000  0.09967000  1
  H  H15  1  0.40287000  0.40703000  0.78297000  1
  H  H16  1  0.31901000  0.32655000  0.87946000  1
  H  H17  1  0.33071000  0.58818000  0.26952000  1
  H  H18  1  0.25123000  0.67230000  0.30510000  1
  H  H19  1  0.67253000  0.35846000  0.64471000  1
  H  H20  1  0.74552000  0.38110000  0.78073000  1
  H  H21  1  0.67340000  0.30979000  0.57281000  1
  H  H22  1  0.71952000  0.23796000  0.45360000  1
  H  H23  1  0.32640000  0.68999000  0.54921000  1
  H  H24  1  0.28068000  0.76231000  0.42417000  1
  H  H25  1  0.59350000  0.58973000  0.77446000  1
  H  H26  1  0.59372000  0.58943000  0.23635000  1
  C  C1  1  0.50882000  0.35020000  0.50101000  1
  C  C2  1  0.49988000  0.50004000  0.74277000  1
  C  C3  1  0.49118000  0.64982000  0.49889000  1
  C  C4  1  0.50013000  0.49972000  0.25724000  1
  C  C5  1  0.23923000  0.46130000  0.56324000  1
  C  C6  1  0.15389000  0.46481000  0.55751000  1
  C  C7  1  0.10795000  0.51570000  0.47440000  1
  C  C8  1  0.14848000  0.56288000  0.39732000  1
  C  C9  1  0.23377000  0.55957000  0.40274000  1
  C  C10  1  0.85152000  0.43714000  0.60270000  1
  C  C11  1  0.89204000  0.48432000  0.52563000  1
  C  C12  1  0.84610000  0.53521000  0.44251000  1
  C  C13  1  0.76077000  0.53872000  0.43679000  1
  C  C14  1  0.76622000  0.44045000  0.59729000  1
  C  C15  1  0.51393000  0.26446000  0.50122000  1
  C  C16  1  0.44265000  0.22589000  0.49650000  1
  C  C17  1  0.44764000  0.14536000  0.49671000  1
  C  C18  1  0.52389000  0.10178000  0.50166000  1
  C  C19  1  0.59487000  0.13978000  0.50636000  1
  C  C20  1  0.59017000  0.22026000  0.50616000  1
  C  C21  1  0.40513000  0.86025000  0.49354000  1
  C  C22  1  0.47611000  0.89824000  0.49824000  1
  C  C23  1  0.55236000  0.85466000  0.50319000  1
  C  C24  1  0.55735000  0.77413000  0.50340000  1
  C  C25  1  0.48607000  0.73556000  0.49868000  1
  C  C26  1  0.40983000  0.77976000  0.49374000  1
  C  C27  1  0.50007000  0.49980000  0.12141000  1
  C  C28  1  0.45029000  0.45217000  0.05483000  1
  C  C29  1  0.54979000  0.54752000  0.06057000  1
  C  C30  1  0.40172000  0.40555000  0.11934000  1
  C  C31  1  0.35137000  0.35736000  0.05658000  1
  C  C32  1  0.49995000  0.49996000  0.87860000  1
  C  C33  1  0.54973000  0.54759000  0.94518000  1
  C  C34  1  0.45023000  0.45224000  0.93944000  1
  C  C35  1  0.40160000  0.40571000  0.86932000  1
  C  C36  1  0.35130000  0.35745000  0.92628000  1
  N  N1  1  0.28037000  0.50869000  0.48584000  1
  N  N2  1  0.02046000  0.52060000  0.46638000  1
  N  N3  1  0.97954000  0.47942000  0.53364000  1
  N  N4  1  0.71963000  0.49133000  0.51419000  1
  N  N5  1  0.53098000  0.01921000  0.50201000  1
  N  N6  1  0.46902000  0.98081000  0.49789000  1
  N  N7  1  0.27560000  0.61125000  0.31833000  1
  N  N8  1  0.72440000  0.38877000  0.68169000  1
  N  N9  1  0.66789000  0.25946000  0.51131000  1
  N  N10  1  0.33211000  0.74056000  0.48858000  1
  O  O1  1  0.58923000  0.38595000  0.50666000  1
  O  O2  1  0.42376000  0.39251000  0.49535000  1
  O  O3  1  0.41712000  0.50330000  0.67411000  1
  O  O4  1  0.58258000  0.49687000  0.68488000  1
  O  O5  1  0.41077000  0.61407000  0.49357000  1
  O  O6  1  0.57624000  0.60751000  0.50441000  1
  O  O7  1  0.58289000  0.49657000  0.32589000  1
  O  O8  1  0.41741000  0.50329000  0.31513000  1
  O  O9  1  0.60240000  0.59815000  0.87627000  1
  O  O10  1  0.60253000  0.59799000  0.13556000  1
