# generated using pymatgen
data_CuH2C10S2(N2O)4
_symmetry_space_group_name_H-M   'P 1'
_cell_length_a   29.54580000
_cell_length_b   15.62120000
_cell_length_c   7.05280000
_cell_angle_alpha   90.00000000
_cell_angle_beta   90.00000000
_cell_angle_gamma   58.08160000
_symmetry_Int_Tables_number   1
_chemical_formula_structural   CuH2C10S2(N2O)4
_chemical_formula_sum   'Cu4 H8 C40 S8 N32 O16'
_cell_volume   2762.98214803
_cell_formula_units_Z   4
loop_
 _symmetry_equiv_pos_site_id
 _symmetry_equiv_pos_as_xyz
  1  'x, y, z'
loop_
 _atom_site_type_symbol
 _atom_site_label
 _atom_site_symmetry_multiplicity
 _atom_site_fract_x
 _atom_site_fract_y
 _atom_site_fract_z
 _atom_site_occupancy
  Cu  Cu1  1  0.50000000  0.50000000  0.00000000  1
  Cu  Cu2  1  0.50000000  0.50000000  0.50000000  1
  Cu  Cu3  1  0.00000000  0.50000000  0.00000000  1
  Cu  Cu4  1  0.00000000  0.50000000  0.50000000  1
  H  H1  1  0.72686000  0.56000000  0.17840000  1
  H  H2  1  0.73954000  0.56002000  0.32160000  1
  H  H3  1  0.27314000  0.44000000  0.67840000  1
  H  H4  1  0.26046000  0.43998000  0.82160000  1
  H  H5  1  0.76046000  0.03910000  0.67840000  1
  H  H6  1  0.77314000  0.01372000  0.82160000  1
  H  H7  1  0.27314000  0.01372000  0.32160000  1
  H  H8  1  0.26046000  0.03910000  0.17840000  1
  C  C1  1  0.62341000  0.25346000  0.25000000  1
  C  C2  1  0.37659000  0.50027000  0.25000000  1
  C  C3  1  0.37659000  0.74654000  0.75000000  1
  C  C4  1  0.62341000  0.49973000  0.75000000  1
  C  C5  1  0.87659000  0.74654000  0.25000000  1
  C  C6  1  0.12341000  0.49973000  0.25000000  1
  C  C7  1  0.12341000  0.25346000  0.75000000  1
  C  C8  1  0.87659000  0.50027000  0.75000000  1
  C  C9  1  0.70321000  0.49990000  0.90039000  1
  C  C10  1  0.79679000  0.50010000  0.59961000  1
  C  C11  1  0.67388000  0.49984000  0.75000000  1
  C  C12  1  0.82612000  0.50016000  0.75000000  1
  C  C13  1  0.75000000  0.50000000  0.65309000  1
  C  C14  1  0.75000000  0.50000000  0.84691000  1
  C  C15  1  0.29679000  0.50010000  0.40039000  1
  C  C16  1  0.20321000  0.49990000  0.09961000  1
  C  C17  1  0.32612000  0.50016000  0.25000000  1
  C  C18  1  0.17388000  0.49984000  0.25000000  1
  C  C19  1  0.25000000  0.50000000  0.15309000  1
  C  C20  1  0.25000000  0.50000000  0.34691000  1
  C  C21  1  0.70321000  0.09368000  0.40039000  1
  C  C22  1  0.79679000  0.90632000  0.09961000  1
  C  C23  1  0.67388000  0.15240000  0.25000000  1
  C  C24  1  0.82612000  0.84760000  0.25000000  1
  C  C25  1  0.75000000  0.00000000  0.15309000  1
  C  C26  1  0.75000000  0.00000000  0.34691000  1
  C  C27  1  0.29679000  0.90632000  0.59961000  1
  C  C28  1  0.20321000  0.09368000  0.90039000  1
  C  C29  1  0.32612000  0.84760000  0.75000000  1
  C  C30  1  0.17388000  0.15240000  0.75000000  1
  C  C31  1  0.25000000  0.00000000  0.84691000  1
  C  C32  1  0.25000000  0.00000000  0.65309000  1
  C  C33  1  0.68775000  0.49987000  0.10567000  1
  C  C34  1  0.81225000  0.50013000  0.39433000  1
  C  C35  1  0.31225000  0.50013000  0.60567000  1
  C  C36  1  0.18775000  0.49987000  0.89433000  1
  C  C37  1  0.68775000  0.12464000  0.60567000  1
  C  C38  1  0.81225000  0.87536000  0.89433000  1
  C  C39  1  0.31225000  0.87536000  0.39433000  1
  C  C40  1  0.18775000  0.12464000  0.10567000  1
  S  S1  1  0.70111000  0.49989000  0.53295000  1
  S  S2  1  0.79888000  0.50010000  0.96705000  1
  S  S3  1  0.29888000  0.50010000  0.03295000  1
  S  S4  1  0.20111000  0.49989000  0.46705000  1
  S  S5  1  0.70112000  0.09787000  0.03295000  1
  S  S6  1  0.79888000  0.90213000  0.46705000  1
  S  S7  1  0.29888000  0.90213000  0.96705000  1
  S  S8  1  0.20111000  0.09787000  0.53295000  1
  N  N1  1  0.55622000  0.38670000  0.15620000  1
  N  N2  1  0.59843000  0.30346000  0.09290000  1
  N  N3  1  0.44378000  0.49913000  0.34380000  1
  N  N4  1  0.40157000  0.50032000  0.40710000  1
  N  N5  1  0.44378000  0.61330000  0.65620000  1
  N  N6  1  0.40157000  0.69654000  0.59290000  1
  N  N7  1  0.55622000  0.50086000  0.84380000  1
  N  N8  1  0.59843000  0.49968000  0.90710000  1
  N  N9  1  0.44378000  0.61330000  0.84380000  1
  N  N10  1  0.40157000  0.69654000  0.90710000  1
  N  N11  1  0.55622000  0.50086000  0.65620000  1
  N  N12  1  0.59843000  0.49968000  0.59290000  1
  N  N13  1  0.55622000  0.38670000  0.34380000  1
  N  N14  1  0.59843000  0.30346000  0.40710000  1
  N  N15  1  0.44378000  0.49913000  0.15620000  1
  N  N16  1  0.40157000  0.50032000  0.09290000  1
  N  N17  1  0.94378000  0.61330000  0.15620000  1
  N  N18  1  0.90157000  0.69654000  0.09290000  1
  N  N19  1  0.05622000  0.50086000  0.34380000  1
  N  N20  1  0.09843000  0.49968000  0.40710000  1
  N  N21  1  0.05622000  0.38670000  0.65620000  1
  N  N22  1  0.09843000  0.30346000  0.59290000  1
  N  N23  1  0.94378000  0.49913000  0.84380000  1
  N  N24  1  0.90157000  0.50032000  0.90710000  1
  N  N25  1  0.05622000  0.38670000  0.84380000  1
  N  N26  1  0.09843000  0.30346000  0.90710000  1
  N  N27  1  0.94378000  0.49913000  0.65620000  1
  N  N28  1  0.90157000  0.50032000  0.59290000  1
  N  N29  1  0.94378000  0.61330000  0.34380000  1
  N  N30  1  0.90157000  0.69654000  0.40710000  1
  N  N31  1  0.05622000  0.50086000  0.15620000  1
  N  N32  1  0.09843000  0.49968000  0.09290000  1
  O  O1  1  0.70081000  0.54398000  0.23691000  1
  O  O2  1  0.66202000  0.46132000  0.14875000  1
  O  O3  1  0.77452000  0.54414000  0.26309000  1
  O  O4  1  0.85952000  0.46174000  0.35125000  1
  O  O5  1  0.29919000  0.45602000  0.73691000  1
  O  O6  1  0.33798000  0.53868000  0.64875000  1
  O  O7  1  0.22548000  0.45586000  0.76309000  1
  O  O8  1  0.14048000  0.53826000  0.85125000  1
  O  O9  1  0.72548000  0.09318000  0.73691000  1
  O  O10  1  0.64048000  0.18078000  0.64875000  1
  O  O11  1  0.79919000  0.94560000  0.76309000  1
  O  O12  1  0.83798000  0.78536000  0.85125000  1
  O  O13  1  0.29919000  0.94560000  0.26309000  1
  O  O14  1  0.33798000  0.78536000  0.35125000  1
  O  O15  1  0.22548000  0.09318000  0.23691000  1
  O  O16  1  0.14048000  0.18078000  0.14875000  1
