# generated using pymatgen
data_Cu2H14C26SCl2O11
_symmetry_space_group_name_H-M   'P 1'
_cell_length_a   10.80460000
_cell_length_b   34.99640000
_cell_length_c   10.00000000
_cell_angle_alpha   90.00000000
_cell_angle_beta   90.00000000
_cell_angle_gamma   90.09380000
_symmetry_Int_Tables_number   1
_chemical_formula_structural   Cu2H14C26SCl2O11
_chemical_formula_sum   'Cu4 H28 C52 S2 Cl4 O22'
_cell_volume   3781.21596727
_cell_formula_units_Z   2
loop_
 _symmetry_equiv_pos_site_id
 _symmetry_equiv_pos_as_xyz
  1  'x, y, z'
loop_
 _atom_site_type_symbol
 _atom_site_label
 _atom_site_symmetry_multiplicity
 _atom_site_fract_x
 _atom_site_fract_y
 _atom_site_fract_z
 _atom_site_occupancy
  Cu  Cu1  1  0.50000000  0.50000000  0.62726000  1
  Cu  Cu2  1  0.50001000  0.50000000  0.37274000  1
  Cu  Cu3  1  0.50049000  0.00000000  0.28188000  1
  Cu  Cu4  1  0.49987000  0.00001000  0.53639000  1
  H  H1  1  0.50005000  0.88015000  0.62461000  1
  H  H2  1  0.50004000  0.81085000  0.62594000  1
  H  H3  1  0.50058000  0.81024000  0.19334000  1
  H  H4  1  0.50059000  0.88015000  0.19366000  1
  H  H5  1  0.49992000  0.68976000  0.71585000  1
  H  H6  1  0.50045000  0.68916000  0.28324000  1
  H  H7  1  0.50045000  0.61986000  0.28456000  1
  H  H8  1  0.49991000  0.61985000  0.71551000  1
  H  H9  1  0.49968000  0.11986000  0.62458000  1
  H  H10  1  0.49967000  0.18916000  0.62591000  1
  H  H11  1  0.50036000  0.18977000  0.19331000  1
  H  H12  1  0.50037000  0.11986000  0.19362000  1
  H  H13  1  0.49951000  0.31024000  0.71584000  1
  H  H14  1  0.50021000  0.31085000  0.28322000  1
  H  H15  1  0.50020000  0.38015000  0.28455000  1
  H  H16  1  0.49951000  0.38015000  0.71550000  1
  H  H17  1  0.10974000  0.49987000  0.70424000  1
  H  H18  1  0.11004000  0.47508000  0.19983000  1
  H  H19  1  0.11098000  0.52520000  0.20097000  1
  H  H20  1  0.88995000  0.52524000  0.20016000  1
  H  H21  1  0.88902000  0.47512000  0.20065000  1
  H  H22  1  0.11041000  0.00074000  0.20666000  1
  H  H23  1  0.10946000  0.02553000  0.71107000  1
  H  H24  1  0.11040000  0.97541000  0.70994000  1
  H  H25  1  0.88937000  0.97515000  0.71011000  1
  H  H26  1  0.88845000  0.02528000  0.70960000  1
  H  H27  1  0.73181000  0.46234000  0.84803000  1
  H  H28  1  0.73285000  0.03789000  0.06176000  1
  C  C1  1  0.73213000  0.50003000  0.50001000  1
  C  C2  1  0.26788000  0.49997000  0.49999000  1
  C  C3  1  0.49985000  0.42834000  0.49999000  1
  C  C4  1  0.50017000  0.57167000  0.50000000  1
  C  C5  1  0.73230000  0.00021000  0.40980000  1
  C  C6  1  0.26805000  0.99980000  0.40848000  1
  C  C7  1  0.50003000  0.07167000  0.40912000  1
  C  C8  1  0.50032000  0.92834000  0.40915000  1
  C  C9  1  0.50032000  0.88566000  0.40916000  1
  C  C10  1  0.50017000  0.86506000  0.53008000  1
  C  C11  1  0.50016000  0.82503000  0.53024000  1
  C  C12  1  0.50031000  0.80443000  0.40893000  1
  C  C13  1  0.50046000  0.82510000  0.28832000  1
  C  C14  1  0.50047000  0.86509000  0.28824000  1
  C  C15  1  0.50032000  0.76182000  0.40144000  1
  C  C16  1  0.50018000  0.73818000  0.50777000  1
  C  C17  1  0.50003000  0.67490000  0.62087000  1
  C  C18  1  0.50019000  0.69557000  0.50026000  1
  C  C19  1  0.50033000  0.67498000  0.37894000  1
  C  C20  1  0.50033000  0.63495000  0.37910000  1
  C  C21  1  0.50018000  0.61434000  0.50001000  1
  C  C22  1  0.50003000  0.63491000  0.62094000  1
  C  C23  1  0.50003000  0.11434000  0.40913000  1
  C  C24  1  0.49983000  0.13495000  0.53004000  1
  C  C25  1  0.49983000  0.17498000  0.53022000  1
  C  C26  1  0.50002000  0.19557000  0.40890000  1
  C  C27  1  0.50021000  0.17491000  0.28829000  1
  C  C28  1  0.50022000  0.13492000  0.28821000  1
  C  C29  1  0.50003000  0.23819000  0.40142000  1
  C  C30  1  0.49985000  0.26182000  0.50774000  1
  C  C31  1  0.49966000  0.32510000  0.62085000  1
  C  C32  1  0.49986000  0.30443000  0.50024000  1
  C  C33  1  0.50005000  0.32503000  0.37892000  1
  C  C34  1  0.50005000  0.36505000  0.37909000  1
  C  C35  1  0.49985000  0.38566000  0.50000000  1
  C  C36  1  0.49966000  0.36509000  0.62092000  1
  C  C37  1  0.13514000  0.49999000  0.49999000  1
  C  C38  1  0.86487000  0.50002000  0.50000000  1
  C  C39  1  0.06745000  0.50005000  0.39438000  1
  C  C40  1  0.93256000  0.49995000  0.60562000  1
  C  C41  1  0.93256000  0.50007000  0.39438000  1
  C  C42  1  0.06746000  0.49994000  0.60561000  1
  C  C43  1  0.06458000  0.50013000  0.24417000  1
  C  C44  1  0.93542000  0.50015000  0.24418000  1
  C  C45  1  0.13531000  0.00065000  0.41098000  1
  C  C46  1  0.86504000  0.00035000  0.41019000  1
  C  C47  1  0.06736000  0.00052000  0.51640000  1
  C  C48  1  0.93299000  0.00048000  0.30477000  1
  C  C49  1  0.93246000  0.00037000  0.51601000  1
  C  C50  1  0.06789000  0.00062000  0.30517000  1
  C  C51  1  0.06411000  0.00044000  0.66666667  1
  C  C52  1  0.93496000  0.00030000  0.66622000  1
  S  S1  1  0.86469000  0.49988000  0.76396000  1
  S  S2  1  0.86551000  0.00048000  0.14623000  1
  Cl  Cl1  1  0.50052000  0.74236000  0.23915000  1
  Cl  Cl2  1  0.49998000  0.75764000  0.67006000  1
  Cl  Cl3  1  0.50028000  0.25765000  0.23913000  1
  Cl  Cl4  1  0.49960000  0.24236000  0.67003000  1
  O  O1  1  0.66093000  0.49997000  0.61869000  1
  O  O2  1  0.33875000  0.49992000  0.61867000  1
  O  O3  1  0.49965000  0.45021000  0.61868000  1
  O  O4  1  0.50002000  0.54968000  0.61868000  1
  O  O5  1  0.50032000  0.54979000  0.38132000  1
  O  O6  1  0.50003000  0.45032000  0.38132000  1
  O  O7  1  0.33895000  0.49998000  0.38131000  1
  O  O8  1  0.66127000  0.50010000  0.38133000  1
  O  O9  1  0.66139000  0.00019000  0.29091000  1
  O  O10  1  0.33921000  0.99993000  0.29000000  1
  O  O11  1  0.50013000  0.04979000  0.29044000  1
  O  O12  1  0.50047000  0.95032000  0.29047000  1
  O  O13  1  0.50018000  0.95021000  0.52783000  1
  O  O14  1  0.49992000  0.04968000  0.52780000  1
  O  O15  1  0.33883000  0.99987000  0.52735000  1
  O  O16  1  0.66114000  0.00007000  0.52827000  1
  O  O17  1  0.81064000  0.45617000  0.80487000  1
  O  O18  1  0.95771000  0.51254000  0.87920000  1
  O  O19  1  0.74724000  0.52717000  0.77069000  1
  O  O20  1  0.81157000  0.04413000  0.10515000  1
  O  O21  1  0.95882000  0.98791000  0.03127000  1
  O  O22  1  0.74807000  0.97307000  0.13917000  1
