# generated using pymatgen
data_AlH9C16O7
_symmetry_space_group_name_H-M   'P 1'
_cell_length_a   23.84900000
_cell_length_b   34.07650000
_cell_length_c   6.60720000
_cell_angle_alpha   90.00090000
_cell_angle_beta   90.00730000
_cell_angle_gamma   45.58190000
_symmetry_Int_Tables_number   1
_chemical_formula_structural   AlH9C16O7
_chemical_formula_sum   'Al4 H36 C64 O28'
_cell_volume   3835.25138255
_cell_formula_units_Z   4
loop_
 _symmetry_equiv_pos_site_id
 _symmetry_equiv_pos_as_xyz
  1  'x, y, z'
loop_
 _atom_site_type_symbol
 _atom_site_label
 _atom_site_symmetry_multiplicity
 _atom_site_fract_x
 _atom_site_fract_y
 _atom_site_fract_z
 _atom_site_occupancy
  Al  Al1  1  0.50000000  0.50000000  0.00000000  1
  Al  Al2  1  0.50000000  0.50000000  0.50000000  1
  Al  Al3  1  0.49991000  0.00003000  0.99987000  1
  Al  Al4  1  0.50000000  0.00000000  0.49987000  1
  H  H1  1  0.56492000  0.50000000  0.75003000  1
  H  H2  1  0.43508000  0.50000000  0.24997000  1
  H  H3  1  0.43511000  0.00000000  0.74994000  1
  H  H4  1  0.56489000  0.00000000  0.24981000  1
  H  H5  1  0.49894000  0.88297000  0.56972000  1
  H  H6  1  0.49949000  0.81254000  0.57006000  1
  H  H7  1  0.49887000  0.88299000  0.93014000  1
  H  H8  1  0.50099000  0.61707000  0.56980000  1
  H  H9  1  0.50100000  0.61706000  0.93022000  1
  H  H10  1  0.50044000  0.68750000  0.92991000  1
  H  H11  1  0.50106000  0.11703000  0.06966000  1
  H  H12  1  0.50051000  0.18746000  0.07001000  1
  H  H13  1  0.50114000  0.11701000  0.43008000  1
  H  H14  1  0.49901000  0.38293000  0.06978000  1
  H  H15  1  0.49900000  0.38294000  0.43020000  1
  H  H16  1  0.49956000  0.31250000  0.42988000  1
  H  H17  1  0.73510000  0.88297000  0.42999000  1
  H  H18  1  0.87542000  0.81254000  0.42971000  1
  H  H19  1  0.73513000  0.88299000  0.06957000  1
  H  H20  1  0.26486000  0.61707000  0.43011000  1
  H  H21  1  0.26487000  0.61706000  0.06969000  1
  H  H22  1  0.12455000  0.68750000  0.06995000  1
  H  H23  1  0.26490000  0.11693000  0.57001000  1
  H  H24  1  0.12458000  0.18739000  0.57030000  1
  H  H25  1  0.26487000  0.11699000  0.93043000  1
  H  H26  1  0.73514000  0.38294000  0.56989000  1
  H  H27  1  0.73513000  0.38294000  0.93031000  1
  H  H28  1  0.87545000  0.31249000  0.93006000  1
  H  H29  1  0.49971000  0.77341000  0.89287000  1
  H  H30  1  0.50012000  0.72666000  0.60711000  1
  H  H31  1  0.50029000  0.22659000  0.39283000  1
  H  H32  1  0.49989000  0.27334000  0.10708000  1
  H  H33  1  0.95345000  0.77341000  0.10692000  1
  H  H34  1  0.04655000  0.72666000  0.39272000  1
  H  H35  1  0.04655000  0.22661000  0.89308000  1
  H  H36  1  0.95346000  0.27333000  0.60729000  1
  C  C1  1  0.63743000  0.43199000  0.25006000  1
  C  C2  1  0.50140000  0.56802000  0.25001000  1
  C  C3  1  0.36257000  0.56802000  0.74994000  1
  C  C4  1  0.49861000  0.43199000  0.75000000  1
  C  C5  1  0.36253000  0.06805000  0.24998000  1
  C  C6  1  0.49853000  0.93202000  0.24990000  1
  C  C7  1  0.63748000  0.93195000  0.74977000  1
  C  C8  1  0.50147000  0.06798000  0.74984000  1
  C  C9  1  0.49885000  0.89028000  0.24992000  1
  C  C10  1  0.49904000  0.86858000  0.43358000  1
  C  C11  1  0.49936000  0.82709000  0.43414000  1
  C  C12  1  0.49950000  0.80608000  0.24996000  1
  C  C13  1  0.49932000  0.82711000  0.06576000  1
  C  C14  1  0.49900000  0.86859000  0.06629000  1
  C  C15  1  0.49981000  0.76764000  0.24999000  1
  C  C16  1  0.50008000  0.73241000  0.25001000  1
  C  C17  1  0.50039000  0.69397000  0.25000000  1
  C  C18  1  0.50055000  0.67295000  0.43420000  1
  C  C19  1  0.50088000  0.63147000  0.43365000  1
  C  C20  1  0.50106000  0.60977000  0.25001000  1
  C  C21  1  0.50088000  0.63146000  0.06636000  1
  C  C22  1  0.50055000  0.67295000  0.06582000  1
  C  C23  1  0.50115000  0.10972000  0.74986000  1
  C  C24  1  0.50096000  0.13142000  0.93352000  1
  C  C25  1  0.50064000  0.17291000  0.93409000  1
  C  C26  1  0.50050000  0.19392000  0.74992000  1
  C  C27  1  0.50069000  0.17289000  0.56571000  1
  C  C28  1  0.50101000  0.13141000  0.56623000  1
  C  C29  1  0.50020000  0.23236000  0.74995000  1
  C  C30  1  0.49992000  0.26759000  0.74998000  1
  C  C31  1  0.49962000  0.30603000  0.74997000  1
  C  C32  1  0.49945000  0.32705000  0.93417000  1
  C  C33  1  0.49912000  0.36854000  0.93363000  1
  C  C34  1  0.49895000  0.39024000  0.74999000  1
  C  C35  1  0.49912000  0.36854000  0.56634000  1
  C  C36  1  0.49945000  0.32705000  0.56579000  1
  C  C37  1  0.72058000  0.89028000  0.74978000  1
  C  C38  1  0.76379000  0.86858000  0.56614000  1
  C  C39  1  0.84643000  0.82709000  0.56561000  1
  C  C40  1  0.88832000  0.80608000  0.74980000  1
  C  C41  1  0.84645000  0.82711000  0.93399000  1
  C  C42  1  0.76380000  0.86859000  0.93343000  1
  C  C43  1  0.96491000  0.76764000  0.74981000  1
  C  C44  1  0.03508000  0.73241000  0.74981000  1
  C  C45  1  0.11167000  0.69397000  0.74985000  1
  C  C46  1  0.15354000  0.67295000  0.56567000  1
  C  C47  1  0.23618000  0.63147000  0.56625000  1
  C  C48  1  0.27941000  0.60977000  0.74991000  1
  C  C49  1  0.23619000  0.63146000  0.93354000  1
  C  C50  1  0.15354000  0.67295000  0.93405000  1
  C  C51  1  0.27942000  0.10966000  0.25022000  1
  C  C52  1  0.23621000  0.13134000  0.43386000  1
  C  C53  1  0.15357000  0.17284000  0.43440000  1
  C  C54  1  0.11168000  0.19388000  0.25020000  1
  C  C55  1  0.15355000  0.17287000  0.06602000  1
  C  C56  1  0.23620000  0.13137000  0.06657000  1
  C  C57  1  0.03510000  0.23234000  0.25019000  1
  C  C58  1  0.96492000  0.26757000  0.25019000  1
  C  C59  1  0.88833000  0.30602000  0.25015000  1
  C  C60  1  0.84646000  0.32705000  0.43433000  1
  C  C61  1  0.76382000  0.36854000  0.43375000  1
  C  C62  1  0.72060000  0.39024000  0.25009000  1
  C  C63  1  0.76381000  0.36854000  0.06646000  1
  C  C64  1  0.84646000  0.32704000  0.06595000  1
  O  O1  1  0.60163000  0.44996000  0.07633000  1
  O  O2  1  0.50154000  0.55004000  0.42372000  1
  O  O3  1  0.39837000  0.55004000  0.57625000  1
  O  O4  1  0.49846000  0.44996000  0.92371000  1
  O  O5  1  0.39837000  0.55004000  0.92367000  1
  O  O6  1  0.49846000  0.44996000  0.57629000  1
  O  O7  1  0.60163000  0.44996000  0.42375000  1
  O  O8  1  0.50154000  0.55004000  0.07630000  1
  O  O9  1  0.52444000  0.50000000  0.75001000  1
  O  O10  1  0.47556000  0.50000000  0.24999000  1
  O  O11  1  0.39830000  0.05008000  0.07624000  1
  O  O12  1  0.49842000  0.94998000  0.42361000  1
  O  O13  1  0.60164000  0.94994000  0.57608000  1
  O  O14  1  0.50164000  0.05000000  0.92356000  1
  O  O15  1  0.60170000  0.94992000  0.92350000  1
  O  O16  1  0.50158000  0.05002000  0.57614000  1
  O  O17  1  0.39836000  0.05006000  0.42366000  1
  O  O18  1  0.49836000  0.95000000  0.07619000  1
  O  O19  1  0.47560000  0.99999000  0.74990000  1
  O  O20  1  0.52441000  0.00001000  0.24985000  1
  O  O21  1  0.49946000  0.80567000  0.86555000  1
  O  O22  1  0.50037000  0.69440000  0.63442000  1
  O  O23  1  0.50054000  0.19433000  0.36550000  1
  O  O24  1  0.49963000  0.30560000  0.13439000  1
  O  O25  1  0.88918000  0.80567000  0.13422000  1
  O  O26  1  0.11082000  0.69440000  0.36543000  1
  O  O27  1  0.11082000  0.19434000  0.86579000  1
  O  O28  1  0.88918000  0.30560000  0.63457000  1
