# generated using pymatgen
data_Zn2H27C44(NO4)2
_symmetry_space_group_name_H-M   'P 1'
_cell_length_a   13.19080000
_cell_length_b   28.28790000
_cell_length_c   14.42190000
_cell_angle_alpha   90.04170000
_cell_angle_beta   89.87420000
_cell_angle_gamma   89.78960000
_symmetry_Int_Tables_number   1
_chemical_formula_structural   Zn2H27C44(NO4)2
_chemical_formula_sum   'Zn4 H54 C88 N4 O16'
_cell_volume   5381.33750599
_cell_formula_units_Z   2
loop_
 _symmetry_equiv_pos_site_id
 _symmetry_equiv_pos_as_xyz
  1  'x, y, z'
loop_
 _atom_site_type_symbol
 _atom_site_label
 _atom_site_symmetry_multiplicity
 _atom_site_fract_x
 _atom_site_fract_y
 _atom_site_fract_z
 _atom_site_occupancy
  Zn  Zn1  1  0.50000000  0.50001000  0.61494000  1
  Zn  Zn2  1  0.50001000  0.50000000  0.38506000  1
  Zn  Zn3  1  0.49928000  0.96630000  0.38511000  1
  Zn  Zn4  1  0.49960000  0.96630000  0.61499000  1
  H  H1  1  0.60850000  0.44978000  0.77037000  1
  H  H2  1  0.66799000  0.42223000  0.92064000  1
  H  H3  1  0.39151000  0.55024000  0.77096000  1
  H  H4  1  0.33203000  0.57778000  0.92155000  1
  H  H5  1  0.39153000  0.55023000  0.22963000  1
  H  H6  1  0.33204000  0.57778000  0.07936000  1
  H  H7  1  0.60851000  0.44977000  0.22904000  1
  H  H8  1  0.66799000  0.42223000  0.07845000  1
  H  H9  1  0.49897000  0.80085000  0.35957000  1
  H  H10  1  0.49911000  0.83435000  0.64791000  1
  H  H11  1  0.49928000  0.66546000  0.64048000  1
  H  H12  1  0.49914000  0.63196000  0.35215000  1
  H  H13  1  0.50012000  0.35000000  0.36038000  1
  H  H14  1  0.49974000  0.27327000  0.28390000  1
  H  H15  1  0.50088000  0.35015000  0.63953000  1
  H  H16  1  0.50091000  0.27349000  0.71611000  1
  H  H17  1  0.50035000  0.11630000  0.63966000  1
  H  H18  1  0.50073000  0.19303000  0.71615000  1
  H  H19  1  0.49960000  0.11616000  0.36051000  1
  H  H20  1  0.49956000  0.19282000  0.28394000  1
  H  H21  1  0.14488000  0.49993000  0.64051000  1
  H  H22  1  0.21732000  0.49980000  0.35219000  1
  H  H23  1  0.85512000  0.49992000  0.35949000  1
  H  H24  1  0.78268000  0.50006000  0.64780000  1
  H  H25  1  0.60745000  0.01622000  0.22912000  1
  H  H26  1  0.66666667  0.04359000  0.07855000  1
  H  H27  1  0.39070000  0.91639000  0.22965000  1
  H  H28  1  0.33108000  0.88902000  0.07937000  1
  H  H29  1  0.39010000  0.91639000  0.77098000  1
  H  H30  1  0.33087000  0.88902000  0.92155000  1
  H  H31  1  0.60684000  0.01622000  0.77045000  1
  H  H32  1  0.66646000  0.04359000  0.92073000  1
  H  H33  1  0.14413000  0.96451000  0.35621000  1
  H  H34  1  0.21696000  0.96443000  0.64415000  1
  H  H35  1  0.85475000  0.96536000  0.63872000  1
  H  H36  1  0.78192000  0.96543000  0.35079000  1
  H  H37  1  0.43948000  0.71099000  0.24740000  1
  H  H38  1  0.49910000  0.75673000  0.27490000  1
  H  H39  1  0.55833000  0.71070000  0.24702000  1
  H  H40  1  0.43978000  0.75549000  0.75296000  1
  H  H41  1  0.49948000  0.70959000  0.72516000  1
  H  H42  1  0.55863000  0.75544000  0.75272000  1
  H  H43  1  0.95195000  0.47229000  0.75277000  1
  H  H44  1  0.05010000  0.50006000  0.72515000  1
  H  H45  1  0.95136000  0.52771000  0.75284000  1
  H  H46  1  0.04840000  0.47208000  0.24723000  1
  H  H47  1  0.94992000  0.49995000  0.27485000  1
  H  H48  1  0.04833000  0.52750000  0.24717000  1
  H  H49  1  0.95098000  0.99271000  0.24495000  1
  H  H50  1  0.04923000  0.96465000  0.27206000  1
  H  H51  1  0.95052000  0.93729000  0.24488000  1
  H  H52  1  0.04812000  0.99264000  0.74999000  1
  H  H53  1  0.94966000  0.96506000  0.72288000  1
  H  H54  1  0.04818000  0.93722000  0.75005000  1
  C  C1  1  0.50063000  0.40781000  0.49993000  1
  C  C2  1  0.69774000  0.50004000  0.49984000  1
  C  C3  1  0.49929000  0.59221000  0.50008000  1
  C  C4  1  0.30227000  0.49981000  0.50016000  1
  C  C5  1  0.49984000  0.05850000  0.50012000  1
  C  C6  1  0.69718000  0.96569000  0.49918000  1
  C  C7  1  0.49896000  0.87410000  0.49997000  1
  C  C8  1  0.30171000  0.96707000  0.50091000  1
  C  C9  1  0.56421000  0.47028000  0.80077000  1
  C  C10  1  0.56107000  0.47174000  0.89780000  1
  C  C11  1  0.62370000  0.44274000  0.95127000  1
  C  C12  1  0.43580000  0.52973000  0.80112000  1
  C  C13  1  0.43895000  0.52828000  0.89813000  1
  C  C14  1  0.37632000  0.55727000  0.95194000  1
  C  C15  1  0.43582000  0.52973000  0.19923000  1
  C  C16  1  0.43896000  0.52827000  0.10220000  1
  C  C17  1  0.37632000  0.55727000  0.04873000  1
  C  C18  1  0.56422000  0.47028000  0.19888000  1
  C  C19  1  0.56108000  0.47174000  0.10187000  1
  C  C20  1  0.62370000  0.44274000  0.04806000  1
  C  C21  1  0.50001000  0.50000000  0.95423000  1
  C  C22  1  0.50001000  0.50001000  0.04577000  1
  C  C23  1  0.49901000  0.78982000  0.43214000  1
  C  C24  1  0.49910000  0.80756000  0.59442000  1
  C  C25  1  0.49917000  0.75959000  0.61952000  1
  C  C26  1  0.49917000  0.72573000  0.54695000  1
  C  C27  1  0.49924000  0.67649000  0.56791000  1
  C  C28  1  0.49915000  0.65875000  0.40563000  1
  C  C29  1  0.49908000  0.70672000  0.38053000  1
  C  C30  1  0.49908000  0.74058000  0.45311000  1
  C  C31  1  0.49902000  0.82177000  0.49999000  1
  C  C32  1  0.49923000  0.64454000  0.50006000  1
  C  C33  1  0.50024000  0.33460000  0.41737000  1
  C  C34  1  0.50014000  0.28513000  0.42144000  1
  C  C35  1  0.49986000  0.25775000  0.34088000  1
  C  C36  1  0.50069000  0.33468000  0.58257000  1
  C  C37  1  0.50057000  0.28521000  0.57855000  1
  C  C38  1  0.50072000  0.25791000  0.65914000  1
  C  C39  1  0.50023000  0.13171000  0.58268000  1
  C  C40  1  0.50033000  0.18117000  0.57860000  1
  C  C41  1  0.50061000  0.20856000  0.65917000  1
  C  C42  1  0.49979000  0.13163000  0.41748000  1
  C  C43  1  0.49991000  0.18110000  0.42150000  1
  C  C44  1  0.49975000  0.20840000  0.34091000  1
  C  C45  1  0.50052000  0.36053000  0.49995000  1
  C  C46  1  0.50029000  0.25649000  0.50001000  1
  C  C47  1  0.49995000  0.10578000  0.50009000  1
  C  C48  1  0.50018000  0.20982000  0.50004000  1
  C  C49  1  0.12139000  0.49990000  0.56793000  1
  C  C50  1  0.15975000  0.49983000  0.40566000  1
  C  C51  1  0.05694000  0.49986000  0.38052000  1
  C  C52  1  0.98418000  0.49992000  0.45308000  1
  C  C53  1  0.87862000  0.49995000  0.43207000  1
  C  C54  1  0.84026000  0.50002000  0.59434000  1
  C  C55  1  0.94307000  0.49999000  0.61948000  1
  C  C56  1  0.01583000  0.49994000  0.54693000  1
  C  C57  1  0.19003000  0.49985000  0.50010000  1
  C  C58  1  0.80998000  0.50000000  0.49990000  1
  C  C59  1  0.56317000  0.99584000  0.19895000  1
  C  C60  1  0.55990000  0.99440000  0.10193000  1
  C  C61  1  0.62239000  0.02321000  0.04814000  1
  C  C62  1  0.43490000  0.93676000  0.19926000  1
  C  C63  1  0.43791000  0.93821000  0.10223000  1
  C  C64  1  0.37528000  0.90940000  0.04875000  1
  C  C65  1  0.43437000  0.93677000  0.80115000  1
  C  C66  1  0.43764000  0.93821000  0.89817000  1
  C  C67  1  0.37515000  0.90940000  0.95196000  1
  C  C68  1  0.56264000  0.99585000  0.80083000  1
  C  C69  1  0.55963000  0.99440000  0.89787000  1
  C  C70  1  0.62226000  0.02321000  0.95135000  1
  C  C71  1  0.49883000  0.96630000  0.04582000  1
  C  C72  1  0.49871000  0.96630000  0.95428000  1
  C  C73  1  0.12074000  0.96460000  0.42891000  1
  C  C74  1  0.15932000  0.96456000  0.59098000  1
  C  C75  1  0.05654000  0.96483000  0.61665000  1
  C  C76  1  0.98368000  0.96499000  0.54447000  1
  C  C77  1  0.87815000  0.96526000  0.56603000  1
  C  C78  1  0.83957000  0.96530000  0.40395000  1
  C  C79  1  0.94234000  0.96503000  0.37828000  1
  C  C80  1  0.01521000  0.96488000  0.45046000  1
  C  C81  1  0.18947000  0.96445000  0.49639000  1
  C  C82  1  0.80942000  0.96541000  0.49855000  1
  C  C83  1  0.49899000  0.72282000  0.27765000  1
  C  C84  1  0.49928000  0.74349000  0.72241000  1
  C  C85  1  0.97739000  0.50001000  0.72237000  1
  C  C86  1  0.02262000  0.49984000  0.27763000  1
  C  C87  1  0.97653000  0.96491000  0.27521000  1
  C  C88  1  0.02236000  0.96495000  0.71972000  1
  N  N1  1  0.50000000  0.50001000  0.75016000  1
  N  N2  1  0.50002000  0.50000000  0.24984000  1
  N  N3  1  0.49910000  0.96630000  0.24988000  1
  N  N4  1  0.49844000  0.96631000  0.75021000  1
  O  O1  1  0.50094000  0.43182000  0.59415000  1
  O  O2  1  0.50043000  0.43183000  0.40568000  1
  O  O3  1  0.64617000  0.50003000  0.40558000  1
  O  O4  1  0.64624000  0.50009000  0.59406000  1
  O  O5  1  0.49926000  0.56819000  0.40585000  1
  O  O6  1  0.49939000  0.56818000  0.59432000  1
  O  O7  1  0.35383000  0.49989000  0.59442000  1
  O  O8  1  0.35377000  0.50000000  0.40595000  1
  O  O9  1  0.50008000  0.03448000  0.40590000  1
  O  O10  1  0.49983000  0.03448000  0.59437000  1
  O  O11  1  0.64574000  0.96586000  0.59371000  1
  O  O12  1  0.64555000  0.96579000  0.40524000  1
  O  O13  1  0.49899000  0.89812000  0.59420000  1
  O  O14  1  0.49886000  0.89813000  0.40573000  1
  O  O15  1  0.35314000  0.96684000  0.40638000  1
  O  O16  1  0.35334000  0.96673000  0.59486000  1
