# generated using pymatgen
data_CuH6C20N5(ClO2)4
_symmetry_space_group_name_H-M   'P 1'
_cell_length_a   15.60630000
_cell_length_b   17.27650000
_cell_length_c   17.37220000
_cell_angle_alpha   89.92000000
_cell_angle_beta   87.45750000
_cell_angle_gamma   95.77320000
_symmetry_Int_Tables_number   1
_chemical_formula_structural   CuH6C20N5(ClO2)4
_chemical_formula_sum   'Cu2 H12 C40 N10 Cl8 O16'
_cell_volume   4655.50560992
_cell_formula_units_Z   2
loop_
 _symmetry_equiv_pos_site_id
 _symmetry_equiv_pos_as_xyz
  1  'x, y, z'
loop_
 _atom_site_type_symbol
 _atom_site_label
 _atom_site_symmetry_multiplicity
 _atom_site_fract_x
 _atom_site_fract_y
 _atom_site_fract_z
 _atom_site_occupancy
  Cu  Cu1  1  0.41809000  0.49671000  0.50326000  1
  Cu  Cu2  1  0.58191000  0.50328000  0.49674000  1
  H  H1  1  0.28946000  0.58005000  0.42052000  1
  H  H2  1  0.13079000  0.57329000  0.42723000  1
  H  H3  1  0.88031000  0.60343000  0.39730000  1
  H  H4  1  0.86921000  0.42670000  0.57278000  1
  H  H5  1  0.62356000  0.26178000  0.49533000  1
  H  H6  1  0.61394000  0.11850000  0.49567000  1
  H  H7  1  0.66265000  0.89256000  0.49375000  1
  H  H8  1  0.38606000  0.88149000  0.50434000  1
  H  H9  1  0.36403000  0.49479000  0.26524000  1
  H  H10  1  0.63600000  0.50531000  0.25437000  1
  H  H11  1  0.36400000  0.49474000  0.74563000  1
  H  H12  1  0.63596000  0.50518000  0.73478000  1
  C  C1  1  0.49998000  0.49993000  0.64437000  1
  C  C2  1  0.50002000  0.50006000  0.35563000  1
  C  C3  1  0.50914000  0.64576000  0.49958000  1
  C  C4  1  0.49086000  0.35423000  0.50043000  1
  C  C5  1  0.25306000  0.53979000  0.46049000  1
  C  C6  1  0.16283000  0.53605000  0.46421000  1
  C  C7  1  0.11406000  0.48434000  0.51555000  1
  C  C8  1  0.15670000  0.43657000  0.56298000  1
  C  C9  1  0.24688000  0.44013000  0.55945000  1
  C  C10  1  0.84330000  0.56342000  0.43703000  1
  C  C11  1  0.88594000  0.51566000  0.48445000  1
  C  C12  1  0.83717000  0.46395000  0.53580000  1
  C  C13  1  0.74694000  0.46020000  0.53952000  1
  C  C14  1  0.75312000  0.55986000  0.44056000  1
  C  C15  1  0.48542000  0.26748000  0.50062000  1
  C  C16  1  0.56076000  0.22869000  0.49773000  1
  C  C17  1  0.55544000  0.14721000  0.49791000  1
  C  C18  1  0.47479000  0.10287000  0.50099000  1
  C  C19  1  0.39976000  0.14108000  0.50388000  1
  C  C20  1  0.40478000  0.22251000  0.50370000  1
  C  C21  1  0.60024000  0.85891000  0.49613000  1
  C  C22  1  0.52521000  0.89712000  0.49902000  1
  C  C23  1  0.44456000  0.85278000  0.50210000  1
  C  C24  1  0.43924000  0.77130000  0.50228000  1
  C  C25  1  0.51459000  0.73251000  0.49939000  1
  C  C26  1  0.59522000  0.77748000  0.49631000  1
  C  C27  1  0.50001000  0.50005000  0.27406000  1
  C  C28  1  0.42192000  0.49703000  0.23479000  1
  C  C29  1  0.42168000  0.49701000  0.15374000  1
  C  C30  1  0.50000000  0.50003000  0.10954000  1
  C  C31  1  0.57833000  0.50307000  0.14748000  1
  C  C32  1  0.57810000  0.50307000  0.22855000  1
  C  C33  1  0.49999000  0.50002000  0.03442000  1
  C  C34  1  0.49998000  0.50001000  0.96559000  1
  C  C35  1  0.49998000  0.49999000  0.89047000  1
  C  C36  1  0.42166000  0.49698000  0.85252000  1
  C  C37  1  0.42189000  0.49697000  0.77145000  1
  C  C38  1  0.49998000  0.49996000  0.72594000  1
  C  C39  1  0.57807000  0.50297000  0.76522000  1
  C  C40  1  0.57830000  0.50299000  0.84627000  1
  N  N1  1  0.29635000  0.49183000  0.50811000  1
  N  N2  1  0.02154000  0.47916000  0.52069000  1
  N  N3  1  0.97846000  0.52083000  0.47932000  1
  N  N4  1  0.70365000  0.50816000  0.49190000  1
  N  N5  1  0.46725000  0.01932000  0.50126000  1
  N  N6  1  0.53275000  0.98067000  0.49875000  1
  N  N7  1  0.66356000  0.50636000  0.10212000  1
  N  N8  1  0.33643000  0.49370000  0.11520000  1
  N  N9  1  0.66355000  0.50628000  0.88482000  1
  N  N10  1  0.33642000  0.49372000  0.89787000  1
  Cl  Cl1  1  0.29817000  0.37916000  0.61999000  1
  Cl  Cl2  1  0.09650000  0.37149000  0.62760000  1
  Cl  Cl3  1  0.70183000  0.62083000  0.38002000  1
  Cl  Cl4  1  0.68778000  0.39477000  0.60448000  1
  Cl  Cl5  1  0.30902000  0.26845000  0.50738000  1
  Cl  Cl6  1  0.29825000  0.08634000  0.50775000  1
  Cl  Cl7  1  0.69098000  0.73154000  0.49263000  1
  Cl  Cl8  1  0.33718000  0.71751000  0.50618000  1
  O  O1  1  0.42360000  0.49698000  0.60313000  1
  O  O2  1  0.42364000  0.49711000  0.40275000  1
  O  O3  1  0.42996000  0.59821000  0.50260000  1
  O  O4  1  0.41728000  0.39589000  0.50328000  1
  O  O5  1  0.57004000  0.40178000  0.49738000  1
  O  O6  1  0.58272000  0.60410000  0.49675000  1
  O  O7  1  0.57640000  0.50312000  0.39679000  1
  O  O8  1  0.57636000  0.50285000  0.59726000  1
  O  O9  1  0.67283000  0.45602000  0.03411000  1
  O  O10  1  0.73751000  0.55992000  0.12585000  1
  O  O11  1  0.32715000  0.54403000  0.04777000  1
  O  O12  1  0.26249000  0.44015000  0.14500000  1
  O  O13  1  0.67938000  0.55760000  0.95183000  1
  O  O14  1  0.73093000  0.45817000  0.85545000  1
  O  O15  1  0.32058000  0.44243000  0.96631000  1
  O  O16  1  0.26904000  0.54182000  0.87371000  1
