# generated using pymatgen
data_CuH17C23NO5
_symmetry_space_group_name_H-M   'P 1'
_cell_length_a   21.08800000
_cell_length_b   29.84280000
_cell_length_c   13.37470000
_cell_angle_alpha   90.00020000
_cell_angle_beta   89.97860000
_cell_angle_gamma   45.13040000
_symmetry_Int_Tables_number   1
_chemical_formula_structural   CuH17C23NO5
_chemical_formula_sum   'Cu4 H68 C92 N4 O20'
_cell_volume   5965.27020603
_cell_formula_units_Z   4
loop_
 _symmetry_equiv_pos_site_id
 _symmetry_equiv_pos_as_xyz
  1  'x, y, z'
loop_
 _atom_site_type_symbol
 _atom_site_label
 _atom_site_symmetry_multiplicity
 _atom_site_fract_x
 _atom_site_fract_y
 _atom_site_fract_z
 _atom_site_occupancy
  Cu  Cu1  1  0.50000000  0.50000000  0.40485000  1
  Cu  Cu2  1  0.49999000  0.50000000  0.59515000  1
  Cu  Cu3  1  0.49969000  0.99934000  0.59518000  1
  Cu  Cu4  1  0.50026000  0.99906000  0.40488000  1
  H  H1  1  0.40312000  0.49988000  0.92965000  1
  H  H2  1  0.59687000  0.50012000  0.07035000  1
  H  H3  1  0.40381000  0.49988000  0.24665000  1
  H  H4  1  0.40312000  0.49988000  0.07047000  1
  H  H5  1  0.59618000  0.50012000  0.75335000  1
  H  H6  1  0.59687000  0.50012000  0.92953000  1
  H  H7  1  0.49988000  0.63882000  0.65051000  1
  H  H8  1  0.49976000  0.71158000  0.73304000  1
  H  H9  1  0.50034000  0.63860000  0.34950000  1
  H  H10  1  0.50033000  0.86026000  0.34952000  1
  H  H11  1  0.50046000  0.78750000  0.26699000  1
  H  H12  1  0.49987000  0.86048000  0.65052000  1
  H  H13  1  0.50004000  0.28112000  0.34708000  1
  H  H14  1  0.49968000  0.21820000  0.65294000  1
  H  H15  1  0.50002000  0.13906000  0.34818000  1
  H  H16  1  0.50003000  0.21802000  0.34708000  1
  H  H17  1  0.49969000  0.36026000  0.65185000  1
  H  H18  1  0.49968000  0.28131000  0.65294000  1
  H  H19  1  0.06298000  0.71837000  0.34736000  1
  H  H20  1  0.93699000  0.78105000  0.65330000  1
  H  H21  1  0.77929000  0.86007000  0.34864000  1
  H  H22  1  0.93696000  0.78131000  0.34744000  1
  H  H23  1  0.22067000  0.63934000  0.65202000  1
  H  H24  1  0.06300000  0.71810000  0.65321000  1
  H  H25  1  0.93700000  0.28170000  0.34682000  1
  H  H26  1  0.06301000  0.21858000  0.65261000  1
  H  H27  1  0.22069000  0.13986000  0.34775000  1
  H  H28  1  0.06302000  0.21870000  0.34675000  1
  H  H29  1  0.77932000  0.36042000  0.65168000  1
  H  H30  1  0.93699000  0.28159000  0.65268000  1
  H  H31  1  0.40439000  0.09526000  0.07013000  1
  H  H32  1  0.59857000  0.90163000  0.92993000  1
  H  H33  1  0.40604000  0.09409000  0.75313000  1
  H  H34  1  0.40482000  0.09505000  0.92931000  1
  H  H35  1  0.59692000  0.90280000  0.24693000  1
  H  H36  1  0.59814000  0.90184000  0.07074000  1
  H  H37  1  0.31862000  0.53693000  0.74860000  1
  H  H38  1  0.38791000  0.49976000  0.66075000  1
  H  H39  1  0.39263000  0.46281000  0.74878000  1
  H  H40  1  0.60718000  0.53729000  0.25145000  1
  H  H41  1  0.61227000  0.50005000  0.33924000  1
  H  H42  1  0.68136000  0.46317000  0.25117000  1
  H  H43  1  0.44762000  0.38842000  0.27218000  1
  H  H44  1  0.50021000  0.40155000  0.32291000  1
  H  H45  1  0.55251000  0.33603000  0.27214000  1
  H  H46  1  0.44707000  0.16326000  0.72775000  1
  H  H47  1  0.49977000  0.09764000  0.67712000  1
  H  H48  1  0.55196000  0.11107000  0.72797000  1
  H  H49  1  0.22515000  0.66372000  0.27251000  1
  H  H50  1  0.30362000  0.59811000  0.32303000  1
  H  H51  1  0.22474000  0.61140000  0.27216000  1
  H  H52  1  0.77503000  0.88819000  0.72837000  1
  H  H53  1  0.69635000  0.90117000  0.67763000  1
  H  H54  1  0.77502000  0.83566000  0.72828000  1
  H  H55  1  0.77478000  0.33654000  0.27201000  1
  H  H56  1  0.69636000  0.40210000  0.32279000  1
  H  H57  1  0.77529000  0.38881000  0.27199000  1
  H  H58  1  0.22492000  0.11130000  0.72731000  1
  H  H59  1  0.30365000  0.09832000  0.67664000  1
  H  H60  1  0.22502000  0.16378000  0.72755000  1
  H  H61  1  0.31934000  0.14274000  0.25096000  1
  H  H62  1  0.38837000  0.11094000  0.33898000  1
  H  H63  1  0.39335000  0.14307000  0.25097000  1
  H  H64  1  0.60943000  0.85391000  0.74886000  1
  H  H65  1  0.61478000  0.88595000  0.66108000  1
  H  H66  1  0.68361000  0.85407000  0.74932000  1
  H  H67  1  0.44654000  0.87463000  0.70995000  1
  H  H68  1  0.44719000  0.67753000  0.28994000  1
  C  C1  1  0.33218000  0.58376000  0.50010000  1
  C  C2  1  0.66781000  0.41624000  0.49990000  1
  C  C3  1  0.50011000  0.58398000  0.50000000  1
  C  C4  1  0.49987000  0.41602000  0.50000000  1
  C  C5  1  0.33216000  0.08275000  0.49949000  1
  C  C6  1  0.66778000  0.91565000  0.50056000  1
  C  C7  1  0.50010000  0.91509000  0.50002000  1
  C  C8  1  0.49984000  0.08330000  0.50002000  1
  C  C9  1  0.44319000  0.49993000  0.78932000  1
  C  C10  1  0.44266000  0.49993000  0.89418000  1
  C  C11  1  0.55680000  0.50007000  0.21068000  1
  C  C12  1  0.55733000  0.50007000  0.10582000  1
  C  C13  1  0.44319000  0.49993000  0.21075000  1
  C  C14  1  0.44266000  0.49993000  0.10589000  1
  C  C15  1  0.55680000  0.50007000  0.78925000  1
  C  C16  1  0.55733000  0.50007000  0.89411000  1
  C  C17  1  0.50000000  0.50000000  0.94717000  1
  C  C18  1  0.50000000  0.50000000  0.05282000  1
  C  C19  1  0.49998000  0.65340000  0.58907000  1
  C  C20  1  0.49998000  0.70029000  0.58471000  1
  C  C21  1  0.49985000  0.72628000  0.67160000  1
  C  C22  1  0.50024000  0.65327000  0.41094000  1
  C  C23  1  0.50024000  0.70017000  0.41530000  1
  C  C24  1  0.50037000  0.72602000  0.32842000  1
  C  C25  1  0.50024000  0.84567000  0.41095000  1
  C  C26  1  0.50023000  0.79879000  0.41531000  1
  C  C27  1  0.50036000  0.77280000  0.32842000  1
  C  C28  1  0.49997000  0.84580000  0.58909000  1
  C  C29  1  0.49998000  0.79891000  0.58472000  1
  C  C30  1  0.49985000  0.77305000  0.67160000  1
  C  C31  1  0.50011000  0.62880000  0.50000000  1
  C  C32  1  0.50011000  0.72742000  0.50001000  1
  C  C33  1  0.50010000  0.87028000  0.50002000  1
  C  C34  1  0.50011000  0.77166000  0.50001000  1
  C  C35  1  0.49987000  0.36772000  0.50000000  1
  C  C36  1  0.49985000  0.13160000  0.50002000  1
  C  C37  1  0.49997000  0.34404000  0.41033000  1
  C  C38  1  0.49997000  0.29705000  0.40950000  1
  C  C39  1  0.49975000  0.15528000  0.58970000  1
  C  C40  1  0.49975000  0.20228000  0.59053000  1
  C  C41  1  0.49995000  0.15518000  0.41034000  1
  C  C42  1  0.49996000  0.20217000  0.40950000  1
  C  C43  1  0.49976000  0.34415000  0.58968000  1
  C  C44  1  0.49976000  0.29715000  0.59052000  1
  C  C45  1  0.49986000  0.27334000  0.50001000  1
  C  C46  1  0.49986000  0.22599000  0.50001000  1
  C  C47  1  0.23573000  0.63195000  0.50017000  1
  C  C48  1  0.76423000  0.86747000  0.50049000  1
  C  C49  1  0.18854000  0.65559000  0.41052000  1
  C  C50  1  0.09471000  0.70247000  0.40975000  1
  C  C51  1  0.81142000  0.84382000  0.59013000  1
  C  C52  1  0.90526000  0.79695000  0.59090000  1
  C  C53  1  0.81141000  0.84398000  0.41078000  1
  C  C54  1  0.90525000  0.79711000  0.40988000  1
  C  C55  1  0.18856000  0.65544000  0.58988000  1
  C  C56  1  0.09472000  0.70231000  0.59077000  1
  C  C57  1  0.04726000  0.72609000  0.50030000  1
  C  C58  1  0.95271000  0.77332000  0.50036000  1
  C  C59  1  0.76426000  0.36801000  0.49985000  1
  C  C60  1  0.23575000  0.13227000  0.49958000  1
  C  C61  1  0.81144000  0.34446000  0.41014000  1
  C  C62  1  0.90528000  0.29754000  0.40926000  1
  C  C63  1  0.18857000  0.15583000  0.58929000  1
  C  C64  1  0.09473000  0.20274000  0.59017000  1
  C  C65  1  0.18858000  0.15589000  0.40993000  1
  C  C66  1  0.09474000  0.20281000  0.40915000  1
  C  C67  1  0.81144000  0.34439000  0.58950000  1
  C  C68  1  0.90527000  0.29747000  0.59028000  1
  C  C69  1  0.95273000  0.27378000  0.49974000  1
  C  C70  1  0.04728000  0.22651000  0.49969000  1
  C  C71  1  0.44404000  0.05547000  0.21056000  1
  C  C72  1  0.44383000  0.05584000  0.10570000  1
  C  C73  1  0.55892000  0.94142000  0.78950000  1
  C  C74  1  0.55913000  0.94105000  0.89435000  1
  C  C75  1  0.44531000  0.05484000  0.78913000  1
  C  C76  1  0.44446000  0.05552000  0.89399000  1
  C  C77  1  0.55765000  0.94205000  0.21092000  1
  C  C78  1  0.55850000  0.94137000  0.10607000  1
  C  C79  1  0.50132000  0.99853000  0.05285000  1
  C  C80  1  0.50164000  0.99837000  0.94720000  1
  C  C81  1  0.37951000  0.49985000  0.73133000  1
  C  C82  1  0.62048000  0.50015000  0.26867000  1
  C  C83  1  0.50009000  0.36998000  0.30980000  1
  C  C84  1  0.49963000  0.12934000  0.69023000  1
  C  C85  1  0.24047000  0.62974000  0.30996000  1
  C  C86  1  0.75950000  0.86968000  0.69070000  1
  C  C87  1  0.75952000  0.37046000  0.30965000  1
  C  C88  1  0.24050000  0.12983000  0.68979000  1
  C  C89  1  0.38018000  0.11913000  0.26838000  1
  C  C90  1  0.62278000  0.87776000  0.73167000  1
  C  C91  1  0.49969000  0.79715000  0.77167000  1
  C  C92  1  0.50052000  0.70193000  0.22835000  1
  N  N1  1  0.49999000  0.50000000  0.73656000  1
  N  N2  1  0.50000000  0.50000000  0.26343000  1
  N  N3  1  0.50069000  0.99884000  0.26346000  1
  N  N4  1  0.50227000  0.99805000  0.73659000  1
  O  O1  1  0.38366000  0.55813000  0.41133000  1
  O  O2  1  0.61657000  0.44189000  0.41120000  1
  O  O3  1  0.50025000  0.55826000  0.41126000  1
  O  O4  1  0.49998000  0.44175000  0.41126000  1
  O  O5  1  0.49977000  0.44172000  0.58873000  1
  O  O6  1  0.49998000  0.55826000  0.58873000  1
  O  O7  1  0.61643000  0.44189000  0.58866000  1
  O  O8  1  0.38342000  0.55810000  0.58880000  1
  O  O9  1  0.38337000  0.05720000  0.58839000  1
  O  O10  1  0.61628000  0.94121000  0.58913000  1
  O  O11  1  0.49996000  0.94081000  0.58876000  1
  O  O12  1  0.49968000  0.05760000  0.58876000  1
  O  O13  1  0.50001000  0.05757000  0.41129000  1
  O  O14  1  0.50023000  0.94081000  0.41129000  1
  O  O15  1  0.61668000  0.94109000  0.41166000  1
  O  O16  1  0.38366000  0.05720000  0.41092000  1
  O  O17  1  0.46059000  0.85641000  0.77979000  1
  O  O18  1  0.53371000  0.76222000  0.84531000  1
  O  O19  1  0.46144000  0.68164000  0.22014000  1
  O  O20  1  0.53476000  0.70283000  0.15480000  1
