# generated using pymatgen
data_CuH4C11N8ClO2
_symmetry_space_group_name_H-M   'P 1'
_cell_length_a   11.89270000
_cell_length_b   7.05280000
_cell_length_c   19.95810000
_cell_angle_alpha   79.82050000
_cell_angle_beta   70.64070000
_cell_angle_gamma   112.82000000
_symmetry_Int_Tables_number   1
_chemical_formula_structural   CuH4C11N8ClO2
_chemical_formula_sum   'Cu2 H8 C22 N16 Cl2 O4'
_cell_volume   1363.08834709
_cell_formula_units_Z   2
loop_
 _symmetry_equiv_pos_site_id
 _symmetry_equiv_pos_as_xyz
  1  'x, y, z'
loop_
 _atom_site_type_symbol
 _atom_site_label
 _atom_site_symmetry_multiplicity
 _atom_site_fract_x
 _atom_site_fract_y
 _atom_site_fract_z
 _atom_site_occupancy
  Cu  Cu1  1  0.50000000  0.00000000  0.50000000  1
  Cu  Cu2  1  0.50000000  0.50000000  0.50000000  1
  H  H1  1  0.49960000  0.08523000  0.22986000  1
  H  H2  1  0.49980000  0.14593000  0.10810000  1
  H  H3  1  0.49973000  0.68452000  0.22981000  1
  H  H4  1  0.50038000  0.31555000  0.77016000  1
  H  H5  1  0.50037000  0.91472000  0.77016000  1
  H  H6  1  0.50019000  0.85400000  0.89191000  1
  H  H7  1  0.58094000  0.79513000  0.99906000  1
  H  H8  1  0.58095000  0.33054000  0.96116000  1
  C  C1  1  0.83231000  0.46727000  0.50014000  1
  C  C2  1  0.49952000  0.34240000  0.31462000  1
  C  C3  1  0.16769000  0.53274000  0.49987000  1
  C  C4  1  0.50048000  0.65760000  0.68538000  1
  C  C5  1  0.49964000  0.37855000  0.24245000  1
  C  C6  1  0.49967000  0.22526000  0.20496000  1
  C  C7  1  0.49979000  0.26067000  0.13325000  1
  C  C8  1  0.49988000  0.45146000  0.09690000  1
  C  C9  1  0.49986000  0.60584000  0.13322000  1
  C  C10  1  0.49975000  0.56942000  0.20493000  1
  C  C11  1  0.49999000  0.48474000  0.03044000  1
  C  C12  1  0.50008000  0.51523000  0.96955000  1
  C  C13  1  0.50018000  0.54854000  0.90309000  1
  C  C14  1  0.50024000  0.39419000  0.86675000  1
  C  C15  1  0.50034000  0.43063000  0.79504000  1
  C  C16  1  0.50039000  0.62145000  0.75754000  1
  C  C17  1  0.50033000  0.77471000  0.79504000  1
  C  C18  1  0.50023000  0.73929000  0.86675000  1
  C  C19  1  0.03327000  0.44217000  0.49997000  1
  C  C20  1  0.96672000  0.55783000  0.50003000  1
  C  C21  1  0.49997000  0.81315000  0.09593000  1
  C  C22  1  0.50019000  0.18693000  0.90402000  1
  N  N1  1  0.65272000  0.25642000  0.49932000  1
  N  N2  1  0.76492000  0.26606000  0.50019000  1
  N  N3  1  0.50111000  0.38714000  0.41480000  1
  N  N4  1  0.49947000  0.48067000  0.35222000  1
  N  N5  1  0.34728000  0.55598000  0.50068000  1
  N  N6  1  0.23508000  0.41974000  0.49981000  1
  N  N7  1  0.49889000  0.80047000  0.58520000  1
  N  N8  1  0.50053000  0.83354000  0.64778000  1
  N  N9  1  0.34728000  0.74358000  0.50068000  1
  N  N10  1  0.23508000  0.73394000  0.49981000  1
  N  N11  1  0.49889000  0.61287000  0.58520000  1
  N  N12  1  0.50053000  0.51934000  0.64778000  1
  N  N13  1  0.65272000  0.44402000  0.49932000  1
  N  N14  1  0.76492000  0.58026000  0.50019000  1
  N  N15  1  0.50111000  0.19954000  0.41480000  1
  N  N16  1  0.49947000  0.16647000  0.35222000  1
  Cl  Cl1  1  0.96024000  0.17210000  0.50003000  1
  Cl  Cl2  1  0.03976000  0.82790000  0.49997000  1
  O  O1  1  0.55944000  0.90312000  0.02084000  1
  O  O2  1  0.44811000  0.89996000  0.13539000  1
  O  O3  1  0.55948000  0.18918000  0.94993000  1
  O  O4  1  0.44839000  0.01962000  0.89002000  1
