# generated using pymatgen
data_Cu2H18C32N5O14
_symmetry_space_group_name_H-M   'P 1'
_cell_length_a   10.80460000
_cell_length_b   25.75040000
_cell_length_c   13.37470000
_cell_angle_alpha   90.00050000
_cell_angle_beta   89.99740000
_cell_angle_gamma   89.90570000
_symmetry_Int_Tables_number   1
_chemical_formula_structural   Cu2H18C32N5O14
_chemical_formula_sum   'Cu4 H36 C64 N10 O28'
_cell_volume   3721.14106262
_cell_formula_units_Z   2
loop_
 _symmetry_equiv_pos_site_id
 _symmetry_equiv_pos_as_xyz
  1  'x, y, z'
loop_
 _atom_site_type_symbol
 _atom_site_label
 _atom_site_symmetry_multiplicity
 _atom_site_fract_x
 _atom_site_fract_y
 _atom_site_fract_z
 _atom_site_occupancy
  Cu  Cu1  1  0.50001000  0.50000000  0.40485000  1
  Cu  Cu2  1  0.50001000  0.50000000  0.59515000  1
  Cu  Cu3  1  0.50043000  0.91959000  0.59517000  1
  Cu  Cu4  1  0.49964000  0.91959000  0.40487000  1
  H  H1  1  0.63305000  0.44419000  0.75340000  1
  H  H2  1  0.63400000  0.44379000  0.92958000  1
  H  H3  1  0.36696000  0.55580000  0.24660000  1
  H  H4  1  0.36601000  0.55620000  0.07041000  1
  H  H5  1  0.63305000  0.44419000  0.24659000  1
  H  H6  1  0.63400000  0.44380000  0.07040000  1
  H  H7  1  0.36696000  0.55580000  0.75341000  1
  H  H8  1  0.36601000  0.55620000  0.92960000  1
  H  H9  1  0.58059000  0.75598000  0.27559000  1
  H  H10  1  0.41824000  0.75635000  0.27643000  1
  H  H11  1  0.41818000  0.66361000  0.27582000  1
  H  H12  1  0.58053000  0.66324000  0.27620000  1
  H  H13  1  0.49994000  0.33787000  0.34816000  1
  H  H14  1  0.49994000  0.24636000  0.34708000  1
  H  H15  1  0.50045000  0.08171000  0.65186000  1
  H  H16  1  0.50044000  0.17322000  0.65294000  1
  H  H17  1  0.49996000  0.08171000  0.34817000  1
  H  H18  1  0.49995000  0.17322000  0.34708000  1
  H  H19  1  0.50042000  0.33788000  0.65184000  1
  H  H20  1  0.50044000  0.24636000  0.65294000  1
  H  H21  1  0.11002000  0.53387000  0.72443000  1
  H  H22  1  0.11097000  0.46575000  0.72358000  1
  H  H23  1  0.88994000  0.46569000  0.72418000  1
  H  H24  1  0.88901000  0.53382000  0.72381000  1
  H  H25  1  0.63203000  0.97520000  0.24625000  1
  H  H26  1  0.63224000  0.97560000  0.07006000  1
  H  H27  1  0.36387000  0.86397000  0.75379000  1
  H  H28  1  0.36365000  0.86357000  0.92998000  1
  H  H29  1  0.62997000  0.97520000  0.75306000  1
  H  H30  1  0.63166000  0.97560000  0.92925000  1
  H  H31  1  0.36593000  0.86397000  0.24698000  1
  H  H32  1  0.36424000  0.86357000  0.07080000  1
  H  H33  1  0.10910000  0.88486000  0.27388000  1
  H  H34  1  0.11006000  0.95298000  0.27473000  1
  H  H35  1  0.88903000  0.95334000  0.27475000  1
  H  H36  1  0.88809000  0.88522000  0.27512000  1
  C  C1  1  0.73213000  0.49996000  0.49999000  1
  C  C2  1  0.26788000  0.50003000  0.50001000  1
  C  C3  1  0.49984000  0.59739000  0.50000000  1
  C  C4  1  0.50017000  0.40260000  0.50000000  1
  C  C5  1  0.73215000  0.91930000  0.49938000  1
  C  C6  1  0.26791000  0.91988000  0.50066000  1
  C  C7  1  0.49986000  0.82219000  0.50002000  1
  C  C8  1  0.50021000  0.01698000  0.50002000  1
  C  C9  1  0.57858000  0.46704000  0.78928000  1
  C  C10  1  0.57931000  0.46673000  0.89414000  1
  C  C11  1  0.42143000  0.53295000  0.21072000  1
  C  C12  1  0.42070000  0.53326000  0.10586000  1
  C  C13  1  0.57858000  0.46704000  0.21071000  1
  C  C14  1  0.57931000  0.46673000  0.10585000  1
  C  C15  1  0.42143000  0.53295000  0.78929000  1
  C  C16  1  0.42070000  0.53326000  0.89415000  1
  C  C17  1  0.50001000  0.50000000  0.94717000  1
  C  C18  1  0.50001000  0.50000000  0.05283000  1
  C  C19  1  0.49986000  0.76649000  0.50001000  1
  C  C20  1  0.49985000  0.65309000  0.50001000  1
  C  C21  1  0.49969000  0.73809000  0.42104000  1
  C  C22  1  0.50001000  0.68149000  0.57898000  1
  C  C23  1  0.49968000  0.68149000  0.42104000  1
  C  C24  1  0.50002000  0.73809000  0.57898000  1
  C  C25  1  0.49945000  0.73689000  0.30874000  1
  C  C26  1  0.49945000  0.68270000  0.30873000  1
  C  C27  1  0.50018000  0.34662000  0.50000000  1
  C  C28  1  0.50021000  0.07296000  0.50002000  1
  C  C29  1  0.50004000  0.31923000  0.41033000  1
  C  C30  1  0.50004000  0.26477000  0.40950000  1
  C  C31  1  0.50035000  0.10035000  0.58969000  1
  C  C32  1  0.50035000  0.15481000  0.59052000  1
  C  C33  1  0.50006000  0.10035000  0.41034000  1
  C  C34  1  0.50005000  0.15481000  0.40950000  1
  C  C35  1  0.50033000  0.31924000  0.58968000  1
  C  C36  1  0.50033000  0.26477000  0.59052000  1
  C  C37  1  0.50019000  0.23723000  0.50001000  1
  C  C38  1  0.50020000  0.18235000  0.50001000  1
  C  C39  1  0.13514000  0.50002000  0.50001000  1
  C  C40  1  0.86487000  0.49998000  0.50000000  1
  C  C41  1  0.06745000  0.49993000  0.57897000  1
  C  C42  1  0.93257000  0.50006000  0.42103000  1
  C  C43  1  0.93255000  0.49991000  0.57897000  1
  C  C44  1  0.06746000  0.50008000  0.42103000  1
  C  C45  1  0.06457000  0.49982000  0.69128000  1
  C  C46  1  0.93541000  0.49980000  0.69127000  1
  C  C47  1  0.57740000  0.95243000  0.21052000  1
  C  C48  1  0.57770000  0.95274000  0.10566000  1
  C  C49  1  0.41849000  0.88674000  0.78953000  1
  C  C50  1  0.41820000  0.88644000  0.89439000  1
  C  C51  1  0.57565000  0.95244000  0.78909000  1
  C  C52  1  0.57682000  0.95274000  0.89395000  1
  C  C53  1  0.42025000  0.88674000  0.21095000  1
  C  C54  1  0.41908000  0.88644000  0.10610000  1
  C  C55  1  0.49817000  0.91959000  0.05285000  1
  C  C56  1  0.49773000  0.91959000  0.94720000  1
  C  C57  1  0.13516000  0.91868000  0.49824000  1
  C  C58  1  0.86490000  0.91910000  0.49900000  1
  C  C59  1  0.06714000  0.91886000  0.41946000  1
  C  C60  1  0.93292000  0.91891000  0.57778000  1
  C  C61  1  0.93225000  0.91907000  0.41984000  1
  C  C62  1  0.06781000  0.91871000  0.57740000  1
  C  C63  1  0.06379000  0.91897000  0.30717000  1
  C  C64  1  0.93464000  0.91917000  0.30753000  1
  N  N1  1  0.50001000  0.50000000  0.73656000  1
  N  N2  1  0.50001000  0.50000000  0.26343000  1
  N  N3  1  0.49905000  0.91959000  0.26346000  1
  N  N4  1  0.49685000  0.91959000  0.73659000  1
  N  N5  1  0.50020000  0.65681000  0.68154000  1
  N  N6  1  0.50031000  0.76276000  0.68155000  1
  N  N7  1  0.87377000  0.50014000  0.31847000  1
  N  N8  1  0.12627000  0.50022000  0.31847000  1
  N  N9  1  0.87455000  0.91892000  0.68051000  1
  N  N10  1  0.12705000  0.91848000  0.67980000  1
  O  O1  1  0.66093000  0.50003000  0.41126000  1
  O  O2  1  0.33875000  0.50011000  0.41127000  1
  O  O3  1  0.49966000  0.56766000  0.41127000  1
  O  O4  1  0.50003000  0.43248000  0.41126000  1
  O  O5  1  0.50031000  0.43233000  0.58873000  1
  O  O6  1  0.50003000  0.56751000  0.58873000  1
  O  O7  1  0.33895000  0.50003000  0.58874000  1
  O  O8  1  0.66126000  0.49986000  0.58873000  1
  O  O9  1  0.66133000  0.91932000  0.58831000  1
  O  O10  1  0.33915000  0.91970000  0.58920000  1
  O  O11  1  0.50004000  0.85192000  0.58875000  1
  O  O12  1  0.50043000  0.98710000  0.58876000  1
  O  O13  1  0.49998000  0.98726000  0.41129000  1
  O  O14  1  0.49967000  0.85207000  0.41129000  1
  O  O15  1  0.33860000  0.91978000  0.41173000  1
  O  O16  1  0.66092000  0.91950000  0.41084000  1
  O  O17  1  0.58114000  0.61169000  0.70205000  1
  O  O18  1  0.41944000  0.67784000  0.76115000  1
  O  O19  1  0.41949000  0.80789000  0.70231000  1
  O  O20  1  0.58140000  0.74172000  0.76091000  1
  O  O21  1  0.76622000  0.53409000  0.29796000  1
  O  O22  1  0.92392000  0.46627000  0.23885000  1
  O  O23  1  0.23385000  0.46633000  0.29770000  1
  O  O24  1  0.07611000  0.53425000  0.23911000  1
  O  O25  1  0.76708000  0.88512000  0.70132000  1
  O  O26  1  0.92503000  0.95272000  0.75998000  1
  O  O27  1  0.23472000  0.95223000  0.70026000  1
  O  O28  1  0.07722000  0.88453000  0.75929000  1
