# generated using pymatgen
data_VH6C12O7
_symmetry_space_group_name_H-M   'P 1'
_cell_length_a   6.81800000
_cell_length_b   11.00170000
_cell_length_c   21.93030000
_cell_angle_alpha   83.97440000
_cell_angle_beta   108.11200000
_cell_angle_gamma   108.68600000
_symmetry_Int_Tables_number   1
_chemical_formula_structural   VH6C12O7
_chemical_formula_sum   'V4 H24 C48 O28'
_cell_volume   1481.03562934
_cell_formula_units_Z   4
loop_
 _symmetry_equiv_pos_site_id
 _symmetry_equiv_pos_as_xyz
  1  'x, y, z'
loop_
 _atom_site_type_symbol
 _atom_site_label
 _atom_site_symmetry_multiplicity
 _atom_site_fract_x
 _atom_site_fract_y
 _atom_site_fract_z
 _atom_site_occupancy
  V  V1  1  0.00692000  0.49122000  0.49562000  1
  V  V2  1  0.52769000  0.51166000  0.50583000  1
  V  V3  1  0.95228000  0.51169000  0.00587000  1
  V  V4  1  0.43151000  0.49126000  0.99565000  1
  H  H1  1  0.77990000  0.22470000  0.42449000  1
  H  H2  1  0.88940000  0.12491000  0.35772000  1
  H  H3  1  0.56731000  0.78890000  0.42324000  1
  H  H4  1  0.77869000  0.89796000  0.35707000  1
  H  H5  1  0.25886000  0.33287000  0.85908000  1
  H  H6  1  0.93001000  0.18537000  0.80632000  1
  H  H7  1  0.05367000  0.33045000  0.64117000  1
  H  H8  1  0.82316000  0.18410000  0.69284000  1
  H  H9  1  0.21654000  0.67005000  0.14245000  1
  H  H10  1  0.14574000  0.81755000  0.19522000  1
  H  H11  1  0.44966000  0.67244000  0.36035000  1
  H  H12  1  0.26713000  0.81880000  0.30869000  1
  H  H13  1  0.68526000  0.78474000  0.08497000  1
  H  H14  1  0.01339000  0.89024000  0.15874000  1
  H  H15  1  0.89783000  0.22055000  0.08622000  1
  H  H16  1  0.12408000  0.11719000  0.15939000  1
  H  H17  1  0.19301000  0.75826000  0.57418000  1
  H  H18  1  0.42521000  0.23428000  0.57555000  1
  H  H19  1  0.67959000  0.66414000  0.63236000  1
  H  H20  1  0.90370000  0.66678000  0.87037000  1
  H  H21  1  0.74817000  0.33875000  0.36914000  1
  H  H22  1  0.49354000  0.33615000  0.13113000  1
  H  H23  1  0.27791000  0.23822000  0.91939000  1
  H  H24  1  0.04573000  0.76220000  0.91802000  1
  C  C1  1  0.35486000  0.50009000  0.61821000  1
  C  C2  1  0.62137000  0.50280000  0.38331000  1
  C  C3  1  0.61739000  0.26654000  0.50148000  1
  C  C4  1  0.35876000  0.73634000  0.49996000  1
  C  C5  1  0.60032000  0.26651000  0.00141000  1
  C  C6  1  0.34185000  0.73629000  0.00010000  1
  C  C7  1  0.33776000  0.49990000  0.11821000  1
  C  C8  1  0.60448000  0.50304000  0.88331000  1
  C  C9  1  0.54911000  0.12656000  0.50108000  1
  C  C10  1  0.61220000  0.06365000  0.46149000  1
  C  C11  1  0.42196000  0.05815000  0.54030000  1
  C  C12  1  0.73896000  0.13571000  0.42320000  1
  C  C13  1  0.80509000  0.07679000  0.38315000  1
  C  C14  1  0.42704000  0.87632000  0.50037000  1
  C  C15  1  0.36395000  0.93923000  0.53996000  1
  C  C16  1  0.55419000  0.94473000  0.46115000  1
  C  C17  1  0.61326000  0.87804000  0.42246000  1
  C  C18  1  0.73958000  0.94251000  0.38277000  1
  C  C19  1  0.53858000  0.50226000  0.81332000  1
  C  C20  1  0.34185000  0.41478000  0.78017000  1
  C  C21  1  0.67348000  0.58900000  0.78081000  1
  C  C22  1  0.21255000  0.33008000  0.81454000  1
  C  C23  1  0.01576000  0.24162000  0.78336000  1
  C  C24  1  0.42076000  0.50087000  0.68820000  1
  C  C25  1  0.61749000  0.58834000  0.72135000  1
  C  C26  1  0.28586000  0.41412000  0.72070000  1
  C  C27  1  0.09123000  0.32865000  0.68570000  1
  C  C28  1  0.95254000  0.24087000  0.71622000  1
  C  C29  1  0.41264000  0.50066000  0.18820000  1
  C  C30  1  0.37266000  0.58813000  0.22136000  1
  C  C31  1  0.52285000  0.41391000  0.22070000  1
  C  C32  1  0.26220000  0.67284000  0.18699000  1
  C  C33  1  0.21924000  0.76130000  0.21817000  1
  C  C34  1  0.54649000  0.50203000  0.31332000  1
  C  C35  1  0.58647000  0.41456000  0.28016000  1
  C  C36  1  0.43628000  0.58878000  0.28082000  1
  C  C37  1  0.40003000  0.67425000  0.31583000  1
  C  C38  1  0.29107000  0.76203000  0.28531000  1
  C  C39  1  0.40999000  0.87629000  0.00029000  1
  C  C40  1  0.60635000  0.94258000  0.04403000  1
  C  C41  1  0.27768000  0.94131000  0.95693000  1
  C  C42  1  0.73304000  0.87383000  0.08638000  1
  C  C43  1  0.92937000  0.93616000  0.13061000  1
  C  C44  1  0.53204000  0.12652000  0.00101000  1
  C  C45  1  0.33568000  0.06023000  0.95727000  1
  C  C46  1  0.66436000  0.06150000  0.04437000  1
  C  C47  1  0.85872000  0.13149000  0.08712000  1
  C  C48  1  0.99487000  0.07044000  0.13100000  1
  O  O1  1  0.16180000  0.67639000  0.49710000  1
  O  O2  1  0.15880000  0.49437000  0.58820000  1
  O  O3  1  0.49902000  0.50520000  0.59310000  1
  O  O4  1  0.48811000  0.32650000  0.50429000  1
  O  O5  1  0.81039000  0.49768000  0.40835000  1
  O  O6  1  0.80735000  0.31668000  0.49889000  1
  O  O7  1  0.50201000  0.68620000  0.50251000  1
  O  O8  1  0.49117000  0.50851000  0.41325000  1
  O  O9  1  0.79844000  0.55653000  0.52825000  1
  O  O10  1  0.18645000  0.44636000  0.47320000  1
  O  O11  1  0.80051000  0.50876000  0.91329000  1
  O  O12  1  0.79731000  0.32653000  0.00428000  1
  O  O13  1  0.45710000  0.31671000  0.99886000  1
  O  O14  1  0.46798000  0.49429000  0.08823000  1
  O  O15  1  0.15189000  0.68621000  0.00265000  1
  O  O16  1  0.14875000  0.50510000  0.09313000  1
  O  O17  1  0.46029000  0.49793000  0.90838000  1
  O  O18  1  0.47113000  0.67641000  0.99724000  1
  O  O19  1  0.16076000  0.44642000  0.97321000  1
  O  O20  1  0.77275000  0.55651000  0.02830000  1
  O  O21  1  0.22700000  0.86217000  0.58150000  1
  O  O22  1  0.35735000  0.12939000  0.58227000  1
  O  O23  1  0.75826000  0.68023000  0.68462000  1
  O  O24  1  0.88407000  0.68171000  0.81823000  1
  O  O25  1  0.70569000  0.32267000  0.31689000  1
  O  O26  1  0.56275000  0.32121000  0.18327000  1
  O  O27  1  0.19773000  0.13371000  0.91133000  1
  O  O28  1  0.06739000  0.86649000  0.91057000  1
