# generated using pymatgen
data_CuH6(C3O)4
_symmetry_space_group_name_H-M   'P 1'
_cell_length_a   21.08640000
_cell_length_b   14.90250000
_cell_length_c   10.00000000
_cell_angle_alpha   90.00000000
_cell_angle_beta   90.00000000
_cell_angle_gamma   134.97100000
_symmetry_Int_Tables_number   1
_chemical_formula_structural   CuH6(C3O)4
_chemical_formula_sum   'Cu4 H24 C48 O16'
_cell_volume   2223.13726372
_cell_formula_units_Z   4
loop_
 _symmetry_equiv_pos_site_id
 _symmetry_equiv_pos_as_xyz
  1  'x, y, z'
loop_
 _atom_site_type_symbol
 _atom_site_label
 _atom_site_symmetry_multiplicity
 _atom_site_fract_x
 _atom_site_fract_y
 _atom_site_fract_z
 _atom_site_occupancy
  Cu  Cu1  1  0.49996000  0.49992000  0.62726000  1
  Cu  Cu2  1  0.50003000  0.50006000  0.37274000  1
  Cu  Cu3  1  0.99987000  0.49973000  0.37272000  1
  Cu  Cu4  1  0.00011000  0.50021000  0.62724000  1
  H  H1  1  0.77771000  0.33978000  0.66894000  1
  H  H2  1  0.65695000  0.20139000  0.81507000  1
  H  H3  1  0.56226000  0.33979000  0.66896000  1
  H  H4  1  0.54476000  0.20139000  0.81507000  1
  H  H5  1  0.76566000  0.63539000  0.35686000  1
  H  H6  1  0.86959000  0.63539000  0.35685000  1
  H  H7  1  0.22241000  0.66045000  0.66864000  1
  H  H8  1  0.34329000  0.79910000  0.81450000  1
  H  H9  1  0.43788000  0.66047000  0.66865000  1
  H  H10  1  0.45549000  0.79911000  0.81450000  1
  H  H11  1  0.23421000  0.36433000  0.35712000  1
  H  H12  1  0.13028000  0.36432000  0.35711000  1
  H  H13  1  0.06190000  0.78473000  0.66804000  1
  H  H14  1  0.04430000  0.88817000  0.81386000  1
  H  H15  1  0.27756000  0.21565000  0.66834000  1
  H  H16  1  0.15660000  0.11257000  0.81401000  1
  H  H17  1  0.36973000  0.10374000  0.35697000  1
  H  H18  1  0.26571000  0.89588000  0.35683000  1
  H  H19  1  0.77847000  0.21601000  0.33144000  1
  H  H20  1  0.65780000  0.11323000  0.18524000  1
  H  H21  1  0.56261000  0.78509000  0.33118000  1
  H  H22  1  0.54539000  0.88883000  0.18510000  1
  H  H23  1  0.76575000  0.89560000  0.64339000  1
  H  H24  1  0.86987000  0.10346000  0.64352000  1
  C  C1  1  0.38103000  0.26211000  0.49985000  1
  C  C2  1  0.61896000  0.73787000  0.50015000  1
  C  C3  1  0.38114000  0.50015000  0.50000000  1
  C  C4  1  0.61886000  0.49983000  0.50000000  1
  C  C5  1  0.88131000  0.26209000  0.50048000  1
  C  C6  1  0.11867000  0.73786000  0.49948000  1
  C  C7  1  0.11901000  0.50013000  0.49998000  1
  C  C8  1  0.88097000  0.49982000  0.49998000  1
  C  C9  1  0.81177000  0.49982000  0.49999000  1
  C  C10  1  0.73833000  0.41777000  0.58662000  1
  C  C11  1  0.82029000  0.58187000  0.41336000  1
  C  C12  1  0.73259000  0.33762000  0.67123000  1
  C  C13  1  0.66064000  0.25462000  0.75887000  1
  C  C14  1  0.68806000  0.49982000  0.49999000  1
  C  C15  1  0.76150000  0.58187000  0.41336000  1
  C  C16  1  0.67954000  0.41777000  0.58662000  1
  C  C17  1  0.60521000  0.33763000  0.67124000  1
  C  C18  1  0.59425000  0.25462000  0.75887000  1
  C  C19  1  0.18821000  0.50013000  0.49999000  1
  C  C20  1  0.26173000  0.58233000  0.58646000  1
  C  C21  1  0.17962000  0.41794000  0.41351000  1
  C  C22  1  0.26753000  0.66262000  0.67092000  1
  C  C23  1  0.33956000  0.74578000  0.75840000  1
  C  C24  1  0.31193000  0.50015000  0.49999000  1
  C  C25  1  0.23842000  0.41794000  0.41352000  1
  C  C26  1  0.32052000  0.58234000  0.58646000  1
  C  C27  1  0.39492000  0.66264000  0.67093000  1
  C  C28  1  0.40595000  0.74578000  0.75841000  1
  C  C29  1  0.18794000  0.87627000  0.49958000  1
  C  C30  1  0.17935000  0.94129000  0.58603000  1
  C  C31  1  0.26150000  0.94108000  0.41322000  1
  C  C32  1  0.10490000  0.87280000  0.67038000  1
  C  C33  1  0.09387000  0.93391000  0.75783000  1
  C  C34  1  0.31176000  0.12370000  0.49975000  1
  C  C35  1  0.32035000  0.05867000  0.41330000  1
  C  C36  1  0.23820000  0.05888000  0.58611000  1
  C  C37  1  0.23240000  0.12758000  0.67056000  1
  C  C38  1  0.16032000  0.06669000  0.75793000  1
  C  C39  1  0.81224000  0.12371000  0.50037000  1
  C  C40  1  0.73884000  0.05908000  0.41369000  1
  C  C41  1  0.82060000  0.05851000  0.58698000  1
  C  C42  1  0.73327000  0.12795000  0.32910000  1
  C  C43  1  0.66137000  0.06723000  0.24142000  1
  C  C44  1  0.68830000  0.87629000  0.50023000  1
  C  C45  1  0.76169000  0.94092000  0.58691000  1
  C  C46  1  0.67994000  0.94149000  0.41362000  1
  C  C47  1  0.60565000  0.87317000  0.32895000  1
  C  C48  1  0.59486000  0.93445000  0.24134000  1
  O  O1  1  0.41741000  0.33501000  0.61858000  1
  O  O2  1  0.58250000  0.66518000  0.61878000  1
  O  O3  1  0.41751000  0.50028000  0.61868000  1
  O  O4  1  0.58241000  0.49991000  0.61868000  1
  O  O5  1  0.58251000  0.49975000  0.38132000  1
  O  O6  1  0.41757000  0.50003000  0.38132000  1
  O  O7  1  0.58257000  0.66511000  0.38142000  1
  O  O8  1  0.41752000  0.33480000  0.38122000  1
  O  O9  1  0.91768000  0.33483000  0.38164000  1
  O  O10  1  0.08243000  0.66500000  0.38095000  1
  O  O11  1  0.08269000  0.50010000  0.38130000  1
  O  O12  1  0.91742000  0.49974000  0.38130000  1
  O  O13  1  0.91731000  0.49989000  0.61866000  1
  O  O14  1  0.08254000  0.50017000  0.61866000  1
  O  O15  1  0.08246000  0.66526000  0.61831000  1
  O  O16  1  0.91753000  0.33494000  0.61900000  1
