# generated using pymatgen
data_Cu2H7C22S2Br(N9Cl)2
_symmetry_space_group_name_H-M   'P 1'
_cell_length_a   15.18800000
_cell_length_b   19.68640000
_cell_length_c   7.05280000
_cell_angle_alpha   82.55880000
_cell_angle_beta   103.42600000
_cell_angle_gamma   66.73410000
_symmetry_Int_Tables_number   1
_chemical_formula_structural   Cu2H7C22S2Br(N9Cl)2
_chemical_formula_sum   'Cu2 H7 C22 S2 Br1 N18 Cl2'
_cell_volume   1825.68013384
_cell_formula_units_Z   1
loop_
 _symmetry_equiv_pos_site_id
 _symmetry_equiv_pos_as_xyz
  1  'x, y, z'
loop_
 _atom_site_type_symbol
 _atom_site_label
 _atom_site_symmetry_multiplicity
 _atom_site_fract_x
 _atom_site_fract_y
 _atom_site_fract_z
 _atom_site_occupancy
  Cu  Cu1  1  0.50000000  0.50000000  0.00000000  1
  Cu  Cu2  1  0.50000000  0.50000000  0.50000000  1
  H  H1  1  0.49976000  0.22703000  0.65441000  1
  H  H2  1  0.49989000  0.10072000  0.69876000  1
  H  H3  1  0.49989000  0.10072000  0.08946000  1
  H  H4  1  0.50011000  0.89928000  0.91054000  1
  H  H5  1  0.50011000  0.89928000  0.30124000  1
  H  H6  1  0.50024000  0.77297000  0.34559000  1
  H  H7  1  0.11266000  0.49991000  0.28015000  1
  C  C1  1  0.74654000  0.50020000  0.37320000  1
  C  C2  1  0.49966000  0.31344000  0.31727000  1
  C  C3  1  0.25346000  0.49980000  0.62680000  1
  C  C4  1  0.50033000  0.68656000  0.68273000  1
  C  C5  1  0.49975000  0.23695000  0.34496000  1
  C  C6  1  0.49979000  0.20000000  0.53011000  1
  C  C7  1  0.49986000  0.12816000  0.55565000  1
  C  C8  1  0.49990000  0.09182000  0.39683000  1
  C  C9  1  0.49986000  0.12826000  0.21266000  1
  C  C10  1  0.49979000  0.20006000  0.18647000  1
  C  C11  1  0.50013000  0.87174000  0.78734000  1
  C  C12  1  0.50010000  0.90818000  0.60317000  1
  C  C13  1  0.50013000  0.87184000  0.44435000  1
  C  C14  1  0.50021000  0.80001000  0.46990000  1
  C  C15  1  0.50025000  0.76305000  0.65505000  1
  C  C16  1  0.50021000  0.79994000  0.81354000  1
  C  C17  1  0.90631000  0.50008000  0.60353000  1
  C  C18  1  0.09368000  0.49992000  0.39647000  1
  C  C19  1  0.84759000  0.50012000  0.42375000  1
  C  C20  1  0.15240000  0.49988000  0.57625000  1
  C  C21  1  0.00000000  0.50000000  0.40309000  1
  C  C22  1  0.00000000  0.50000000  0.59691000  1
  S  S1  1  0.90212000  0.50008000  0.23399000  1
  S  S2  1  0.09787000  0.49992000  0.76601000  1
  Br  Br1  1  0.86396000  0.50011000  0.86318000  1
  N  N1  1  0.61330000  0.49935000  0.21309000  1
  N  N2  1  0.69654000  0.50024000  0.19108000  1
  N  N3  1  0.50083000  0.41426000  0.37521000  1
  N  N4  1  0.49962000  0.35128000  0.46068000  1
  N  N5  1  0.38669000  0.50065000  0.59931000  1
  N  N6  1  0.30346000  0.49976000  0.49472000  1
  N  N7  1  0.49916000  0.58574000  0.81239000  1
  N  N8  1  0.50037000  0.64872000  0.85352000  1
  N  N9  1  0.38669000  0.50065000  0.78691000  1
  N  N10  1  0.30346000  0.49976000  0.80892000  1
  N  N11  1  0.49916000  0.58574000  0.62479000  1
  N  N12  1  0.50037000  0.64872000  0.53932000  1
  N  N13  1  0.61330000  0.49935000  0.40069000  1
  N  N14  1  0.69654000  0.50024000  0.50528000  1
  N  N15  1  0.50083000  0.41426000  0.18761000  1
  N  N16  1  0.49962000  0.35128000  0.14648000  1
  N  N17  1  0.49998000  0.01824000  0.41840000  1
  N  N18  1  0.50002000  0.98176000  0.58160000  1
  Cl  Cl1  1  0.49974000  0.24406000  0.95269000  1
  Cl  Cl2  1  0.50026000  0.75594000  0.04731000  1
