# generated using pymatgen
data_ZnH2C14N4(ClO6)2
_symmetry_space_group_name_H-M   'P 1'
_cell_length_a   10.74350000
_cell_length_b   36.95950000
_cell_length_c   10.00000000
_cell_angle_alpha   90.00000000
_cell_angle_beta   90.00000000
_cell_angle_gamma   106.71800000
_symmetry_Int_Tables_number   1
_chemical_formula_structural   ZnH2C14N4(ClO6)2
_chemical_formula_sum   'Zn4 H8 C56 N16 Cl8 O48'
_cell_volume   3802.90915752
_cell_formula_units_Z   4
loop_
 _symmetry_equiv_pos_site_id
 _symmetry_equiv_pos_as_xyz
  1  'x, y, z'
loop_
 _atom_site_type_symbol
 _atom_site_label
 _atom_site_symmetry_multiplicity
 _atom_site_fract_x
 _atom_site_fract_y
 _atom_site_fract_z
 _atom_site_occupancy
  Zn  Zn1  1  0.50003000  0.50011000  0.66577000  1
  Zn  Zn2  1  0.50000000  0.49989000  0.33423000  1
  Zn  Zn3  1  0.99615000  0.99991000  0.24343000  1
  Zn  Zn4  1  0.99659000  0.00013000  0.57496000  1
  H  H1  1  0.74840000  0.74993000  0.30208000  1
  H  H2  1  0.74857000  0.75009000  0.60719000  1
  H  H3  1  0.24785000  0.25013000  0.30205000  1
  H  H4  1  0.24711000  0.24989000  0.60717000  1
  H  H5  1  0.25833000  0.54763000  0.33060000  1
  H  H6  1  0.83528000  0.54746000  0.33073000  1
  H  H7  1  0.65974000  0.95199000  0.57852000  1
  H  H8  1  0.23728000  0.95240000  0.57844000  1
  C  C1  1  0.25734000  0.50009000  0.49992000  1
  C  C2  1  0.57345000  0.57369000  0.49974000  1
  C  C3  1  0.74266000  0.49988000  0.50008000  1
  C  C4  1  0.42616000  0.42632000  0.50026000  1
  C  C5  1  0.75365000  0.00006000  0.40931000  1
  C  C6  1  0.92351000  0.92633000  0.40948000  1
  C  C7  1  0.23912000  0.00000000  0.40908000  1
  C  C8  1  0.06880000  0.07370000  0.40891000  1
  C  C9  1  0.88163000  0.88414000  0.40941000  1
  C  C10  1  0.86139000  0.86375000  0.53029000  1
  C  C11  1  0.82211000  0.82418000  0.53040000  1
  C  C12  1  0.80190000  0.80383000  0.40905000  1
  C  C13  1  0.82220000  0.82428000  0.28847000  1
  C  C14  1  0.86145000  0.86382000  0.28845000  1
  C  C15  1  0.76008000  0.76170000  0.40149000  1
  C  C16  1  0.73688000  0.73832000  0.50778000  1
  C  C17  1  0.67476000  0.67574000  0.62078000  1
  C  C18  1  0.69506000  0.69619000  0.50020000  1
  C  C19  1  0.67486000  0.67585000  0.37885000  1
  C  C20  1  0.63557000  0.63627000  0.37894000  1
  C  C21  1  0.61534000  0.61588000  0.49982000  1
  C  C22  1  0.63552000  0.63620000  0.62078000  1
  C  C23  1  0.11157000  0.11589000  0.40898000  1
  C  C24  1  0.13202000  0.13625000  0.52992000  1
  C  C25  1  0.17214000  0.17583000  0.53015000  1
  C  C26  1  0.19300000  0.19620000  0.40886000  1
  C  C27  1  0.17250000  0.17578000  0.28822000  1
  C  C28  1  0.13241000  0.13625000  0.28808000  1
  C  C29  1  0.23573000  0.23833000  0.40143000  1
  C  C30  1  0.25923000  0.26169000  0.50779000  1
  C  C31  1  0.32246000  0.32424000  0.62098000  1
  C  C32  1  0.30196000  0.30382000  0.50035000  1
  C  C33  1  0.32282000  0.32419000  0.37905000  1
  C  C34  1  0.36294000  0.36376000  0.37927000  1
  C  C35  1  0.38338000  0.38413000  0.50021000  1
  C  C36  1  0.36254000  0.36378000  0.62111000  1
  C  C37  1  0.12146000  0.50004000  0.49996000  1
  C  C38  1  0.08172000  0.52439000  0.41316000  1
  C  C39  1  0.03373000  0.47563000  0.58681000  1
  C  C40  1  0.17250000  0.54824000  0.32833000  1
  C  C41  1  0.13690000  0.57288000  0.24052000  1
  C  C42  1  0.87855000  0.49994000  0.50004000  1
  C  C43  1  0.91828000  0.47558000  0.58684000  1
  C  C44  1  0.96628000  0.52435000  0.41320000  1
  C  C45  1  0.92238000  0.54814000  0.32841000  1
  C  C46  1  0.00654000  0.57283000  0.24057000  1
  C  C47  1  0.61739000  0.99963000  0.40915000  1
  C  C48  1  0.52935000  0.97531000  0.49597000  1
  C  C49  1  0.57815000  0.02408000  0.32231000  1
  C  C50  1  0.57276000  0.95143000  0.58080000  1
  C  C51  1  0.48827000  0.92683000  0.66862000  1
  C  C52  1  0.37482000  0.99987000  0.40911000  1
  C  C53  1  0.46286000  0.02419000  0.32229000  1
  C  C54  1  0.41406000  0.97543000  0.49595000  1
  C  C55  1  0.32298000  0.95168000  0.58075000  1
  C  C56  1  0.35810000  0.92695000  0.66860000  1
  N  N1  1  0.88209000  0.88462000  0.15644000  1
  N  N2  1  0.80184000  0.80378000  0.15585000  1
  N  N3  1  0.88206000  0.88456000  0.66230000  1
  N  N4  1  0.80258000  0.80450000  0.66457000  1
  N  N5  1  0.69438000  0.69552000  0.24467000  1
  N  N6  1  0.61491000  0.61546000  0.24693000  1
  N  N7  1  0.69512000  0.69623000  0.75341000  1
  N  N8  1  0.61486000  0.61539000  0.75279000  1
  N  N9  1  0.11157000  0.11547000  0.15600000  1
  N  N10  1  0.19354000  0.19631000  0.15566000  1
  N  N11  1  0.11066000  0.11541000  0.66187000  1
  N  N12  1  0.19183000  0.19547000  0.66438000  1
  N  N13  1  0.30312000  0.30455000  0.24482000  1
  N  N14  1  0.38429000  0.38461000  0.24732000  1
  N  N15  1  0.30143000  0.30371000  0.75355000  1
  N  N16  1  0.38339000  0.38455000  0.75318000  1
  Cl  Cl1  1  0.80475000  0.44543000  0.69409000  1
  Cl  Cl2  1  0.08799000  0.44555000  0.69400000  1
  Cl  Cl3  1  0.25153000  0.60287000  0.13385000  1
  Cl  Cl4  1  0.95086000  0.60274000  0.13395000  1
  Cl  Cl5  1  0.40922000  0.05438000  0.21504000  1
  Cl  Cl6  1  0.69206000  0.05410000  0.21510000  1
  Cl  Cl7  1  0.54334000  0.89679000  0.77529000  1
  Cl  Cl8  1  0.24309000  0.89709000  0.77524000  1
  O  O1  1  0.32074000  0.50033000  0.63580000  1
  O  O2  1  0.32056000  0.49996000  0.36399000  1
  O  O3  1  0.55428000  0.55438000  0.36380000  1
  O  O4  1  0.55450000  0.55458000  0.63562000  1
  O  O5  1  0.67936000  0.49974000  0.36420000  1
  O  O6  1  0.67941000  0.49997000  0.63601000  1
  O  O7  1  0.44550000  0.44562000  0.63620000  1
  O  O8  1  0.44575000  0.44542000  0.36438000  1
  O  O9  1  0.81652000  0.99978000  0.27342000  1
  O  O10  1  0.81710000  0.00016000  0.54523000  1
  O  O11  1  0.94269000  0.94564000  0.54541000  1
  O  O12  1  0.94246000  0.94543000  0.27359000  1
  O  O13  1  0.17615000  0.00018000  0.54497000  1
  O  O14  1  0.17572000  0.99995000  0.27317000  1
  O  O15  1  0.04980000  0.05439000  0.27298000  1
  O  O16  1  0.05049000  0.05460000  0.54480000  1
  O  O17  1  0.99648000  0.91787000  0.13764000  1
  O  O18  1  0.78787000  0.87169000  0.04636000  1
  O  O19  1  0.68750000  0.77058000  0.13608000  1
  O  O20  1  0.89631000  0.81697000  0.04614000  1
  O  O21  1  0.83373000  0.91786000  0.68109000  1
  O  O22  1  0.95057000  0.87159000  0.77239000  1
  O  O23  1  0.85109000  0.77138000  0.68689000  1
  O  O24  1  0.73501000  0.81840000  0.77323000  1
  O  O25  1  0.80859000  0.72859000  0.22233000  1
  O  O26  1  0.59923000  0.68166000  0.13602000  1
  O  O27  1  0.50052000  0.58221000  0.22815000  1
  O  O28  1  0.70912000  0.62839000  0.13683000  1
  O  O29  1  0.64674000  0.72948000  0.77319000  1
  O  O30  1  0.76336000  0.68300000  0.86310000  1
  O  O31  1  0.66320000  0.58210000  0.77158000  1
  O  O32  1  0.54637000  0.62836000  0.86289000  1
  O  O33  1  0.99667000  0.08239000  0.13695000  1
  O  O34  1  0.20611000  0.12827000  0.04611000  1
  O  O35  1  0.30846000  0.22936000  0.13615000  1
  O  O36  1  0.09915000  0.18331000  0.04576000  1
  O  O37  1  0.15810000  0.08195000  0.68070000  1
  O  O38  1  0.04238000  0.12851000  0.77184000  1
  O  O39  1  0.14414000  0.22874000  0.68665000  1
  O  O40  1  0.25875000  0.18138000  0.77315000  1
  O  O41  1  0.18841000  0.27164000  0.22222000  1
  O  O42  1  0.39861000  0.31828000  0.13636000  1
  O  O43  1  0.49926000  0.41770000  0.22879000  1
  O  O44  1  0.29017000  0.37186000  0.13703000  1
  O  O45  1  0.34891000  0.27030000  0.77339000  1
  O  O46  1  0.23341000  0.31708000  0.86313000  1
  O  O47  1  0.33589000  0.41800000  0.77192000  1
  O  O48  1  0.45125000  0.37140000  0.86339000  1
