# generated using pymatgen
data_Cu4H25C62S2NO24
_symmetry_space_group_name_H-M   'P 1'
_cell_length_a   29.79420000
_cell_length_b   40.43030000
_cell_length_c   10.00000000
_cell_angle_alpha   90.00000000
_cell_angle_beta   90.00000000
_cell_angle_gamma   42.66130000
_symmetry_Int_Tables_number   1
_chemical_formula_structural   Cu4H25C62S2NO24
_chemical_formula_sum   'Cu8 H50 C124 S4 N2 O48'
_cell_volume   8163.05166726
_cell_formula_units_Z   2
loop_
 _symmetry_equiv_pos_site_id
 _symmetry_equiv_pos_as_xyz
  1  'x, y, z'
loop_
 _atom_site_type_symbol
 _atom_site_label
 _atom_site_symmetry_multiplicity
 _atom_site_fract_x
 _atom_site_fract_y
 _atom_site_fract_z
 _atom_site_occupancy
  Cu  Cu1  1  0.50000000  0.50000000  0.37274000  1
  Cu  Cu2  1  0.50000000  0.50000000  0.62726000  1
  Cu  Cu3  1  0.99987000  0.50014000  0.62729000  1
  Cu  Cu4  1  0.00011000  0.49990000  0.37278000  1
  Cu  Cu5  1  0.04402000  0.95628000  0.62731000  1
  Cu  Cu6  1  0.04371000  0.95628000  0.37279000  1
  Cu  Cu7  1  0.54544000  0.95617000  0.36945000  1
  Cu  Cu8  1  0.54552000  0.95641000  0.62397000  1
  H  H1  1  0.63883000  0.50016000  0.70130000  1
  H  H2  1  0.71159000  0.50022000  0.81168000  1
  H  H3  1  0.63902000  0.49997000  0.29871000  1
  H  H4  1  0.86104000  0.49998000  0.29873000  1
  H  H5  1  0.78828000  0.49992000  0.18835000  1
  H  H6  1  0.86084000  0.50017000  0.70132000  1
  H  H7  1  0.36095000  0.50007000  0.70130000  1
  H  H8  1  0.28806000  0.50014000  0.81168000  1
  H  H9  1  0.36119000  0.49982000  0.29871000  1
  H  H10  1  0.13916000  0.49983000  0.29873000  1
  H  H11  1  0.21205000  0.49976000  0.18835000  1
  H  H12  1  0.13892000  0.50008000  0.70132000  1
  H  H13  1  0.21117000  0.78886000  0.30523000  1
  H  H14  1  0.65114000  0.34886000  0.70131000  1
  H  H15  1  0.73040000  0.26968000  0.81169000  1
  H  H16  1  0.65103000  0.34886000  0.29872000  1
  H  H17  1  0.89260000  0.10742000  0.29875000  1
  H  H18  1  0.81334000  0.18660000  0.18836000  1
  H  H19  1  0.89271000  0.10743000  0.70134000  1
  H  H20  1  0.71212000  0.78906000  0.69273000  1
  H  H21  1  0.15069000  0.34868000  0.29981000  1
  H  H22  1  0.22957000  0.26940000  0.19000000  1
  H  H23  1  0.15043000  0.34906000  0.70240000  1
  H  H24  1  0.39072000  0.10763000  0.70410000  1
  H  H25  1  0.31184000  0.18691000  0.81392000  1
  H  H26  1  0.39098000  0.10725000  0.30152000  1
  H  H27  1  0.18217000  0.95671000  0.29721000  1
  H  H28  1  0.25459000  0.95697000  0.18603000  1
  H  H29  1  0.18248000  0.95690000  0.69980000  1
  H  H30  1  0.40356000  0.95784000  0.69732000  1
  H  H31  1  0.33114000  0.95759000  0.80851000  1
  H  H32  1  0.40325000  0.95765000  0.29473000  1
  H  H33  1  0.90528000  0.95562000  0.30029000  1
  H  H34  1  0.83272000  0.95524000  0.19072000  1
  H  H35  1  0.90553000  0.95587000  0.70288000  1
  H  H36  1  0.68447000  0.95491000  0.70532000  1
  H  H37  1  0.75704000  0.95530000  0.81489000  1
  H  H38  1  0.68422000  0.95466000  0.30273000  1
  H  H39  1  0.83394000  0.50024000  0.84583000  1
  H  H40  1  0.66593000  0.49990000  0.15420000  1
  H  H41  1  0.16566000  0.50017000  0.84583000  1
  H  H42  1  0.33444000  0.49973000  0.15420000  1
  H  H43  1  0.86355000  0.13661000  0.84584000  1
  H  H44  1  0.68019000  0.31967000  0.15421000  1
  H  H45  1  0.36203000  0.13629000  0.15680000  1
  H  H46  1  0.17938000  0.32002000  0.84712000  1
  H  H47  1  0.37642000  0.95747000  0.15052000  1
  H  H48  1  0.20931000  0.95709000  0.84401000  1
  H  H49  1  0.71085000  0.95469000  0.15792000  1
  H  H50  1  0.87890000  0.95584000  0.84768000  1
  C  C1  1  0.40855000  0.59154000  0.50000000  1
  C  C2  1  0.59145000  0.40846000  0.50001000  1
  C  C3  1  0.41589000  0.49994000  0.50000000  1
  C  C4  1  0.58411000  0.50007000  0.50000000  1
  C  C5  1  0.90874000  0.59155000  0.49938000  1
  C  C6  1  0.09123000  0.40848000  0.50069000  1
  C  C7  1  0.08422000  0.49996000  0.50003000  1
  C  C8  1  0.91575000  0.50008000  0.50003000  1
  C  C9  1  0.13544000  0.86474000  0.50005000  1
  C  C10  1  0.95229000  0.04782000  0.50005000  1
  C  C11  1  0.95998000  0.95598000  0.50098000  1
  C  C12  1  0.12775000  0.95657000  0.49912000  1
  C  C13  1  0.63660000  0.86475000  0.49737000  1
  C  C14  1  0.45436000  0.04783000  0.49606000  1
  C  C15  1  0.62995000  0.95600000  0.49578000  1
  C  C16  1  0.46101000  0.95658000  0.49764000  1
  C  C17  1  0.65352000  0.50013000  0.61913000  1
  C  C18  1  0.70049000  0.50012000  0.61330000  1
  C  C19  1  0.72640000  0.50018000  0.72951000  1
  C  C20  1  0.65364000  0.50001000  0.38088000  1
  C  C21  1  0.70060000  0.50002000  0.38672000  1
  C  C22  1  0.72662000  0.49996000  0.27052000  1
  C  C23  1  0.84634000  0.50002000  0.38090000  1
  C  C24  1  0.79938000  0.50002000  0.38673000  1
  C  C25  1  0.77347000  0.49996000  0.27052000  1
  C  C26  1  0.84623000  0.50013000  0.61915000  1
  C  C27  1  0.79926000  0.50013000  0.61331000  1
  C  C28  1  0.77324000  0.50018000  0.72952000  1
  C  C29  1  0.62900000  0.50007000  0.50001000  1
  C  C30  1  0.72778000  0.50007000  0.50002000  1
  C  C31  1  0.87086000  0.50007000  0.50003000  1
  C  C32  1  0.77209000  0.50007000  0.50002000  1
  C  C33  1  0.34634000  0.50002000  0.61913000  1
  C  C34  1  0.29938000  0.50002000  0.61330000  1
  C  C35  1  0.27334000  0.50009000  0.72951000  1
  C  C36  1  0.34649000  0.49987000  0.38089000  1
  C  C37  1  0.29951000  0.49988000  0.38672000  1
  C  C38  1  0.27362000  0.49981000  0.27052000  1
  C  C39  1  0.15377000  0.49988000  0.38090000  1
  C  C40  1  0.20073000  0.49988000  0.38673000  1
  C  C41  1  0.22677000  0.49981000  0.27052000  1
  C  C42  1  0.15362000  0.50003000  0.61915000  1
  C  C43  1  0.20059000  0.50002000  0.61331000  1
  C  C44  1  0.22649000  0.50009000  0.72952000  1
  C  C45  1  0.37099000  0.49994000  0.50001000  1
  C  C46  1  0.27221000  0.49995000  0.50002000  1
  C  C47  1  0.12911000  0.49996000  0.50003000  1
  C  C48  1  0.22790000  0.49995000  0.50002000  1
  C  C49  1  0.32253000  0.67765000  0.60609000  1
  C  C50  1  0.22145000  0.77863000  0.39397000  1
  C  C51  1  0.35410000  0.64601000  0.50001000  1
  C  C52  1  0.18988000  0.81028000  0.50004000  1
  C  C53  1  0.27195000  0.72814000  0.43168000  1
  C  C54  1  0.27204000  0.72814000  0.56837000  1
  C  C55  1  0.66707000  0.33292000  0.61914000  1
  C  C56  1  0.71817000  0.28185000  0.61331000  1
  C  C57  1  0.74645000  0.25362000  0.72952000  1
  C  C58  1  0.66700000  0.33292000  0.38089000  1
  C  C59  1  0.71810000  0.28185000  0.38673000  1
  C  C60  1  0.74632000  0.25361000  0.27053000  1
  C  C61  1  0.87668000  0.12336000  0.38091000  1
  C  C62  1  0.82558000  0.17443000  0.38674000  1
  C  C63  1  0.79730000  0.20266000  0.27053000  1
  C  C64  1  0.87674000  0.12336000  0.61916000  1
  C  C65  1  0.82564000  0.17443000  0.61332000  1
  C  C66  1  0.79742000  0.20267000  0.72953000  1
  C  C67  1  0.64029000  0.35965000  0.50001000  1
  C  C68  1  0.74777000  0.25223000  0.50002000  1
  C  C69  1  0.90345000  0.09663000  0.50004000  1
  C  C70  1  0.79598000  0.20405000  0.50003000  1
  C  C71  1  0.82300000  0.67756000  0.39268000  1
  C  C72  1  0.72234000  0.77875000  0.60407000  1
  C  C73  1  0.85449000  0.64602000  0.49898000  1
  C  C74  1  0.69086000  0.81029000  0.49777000  1
  C  C75  1  0.77265000  0.72822000  0.56672000  1
  C  C76  1  0.77270000  0.72809000  0.43003000  1
  C  C77  1  0.16650000  0.33282000  0.38210000  1
  C  C78  1  0.21732000  0.28176000  0.38829000  1
  C  C79  1  0.24550000  0.25341000  0.27228000  1
  C  C80  1  0.16634000  0.33305000  0.62034000  1
  C  C81  1  0.21718000  0.28197000  0.61487000  1
  C  C82  1  0.24520000  0.25384000  0.73127000  1
  C  C83  1  0.37491000  0.12349000  0.62182000  1
  C  C84  1  0.32409000  0.17455000  0.61563000  1
  C  C85  1  0.29591000  0.20290000  0.73163000  1
  C  C86  1  0.37507000  0.12326000  0.38357000  1
  C  C87  1  0.32423000  0.17434000  0.38905000  1
  C  C88  1  0.29621000  0.20247000  0.27264000  1
  C  C89  1  0.13982000  0.35966000  0.50103000  1
  C  C90  1  0.24672000  0.25225000  0.50179000  1
  C  C91  1  0.40159000  0.09664000  0.50289000  1
  C  C92  1  0.29468000  0.20406000  0.50213000  1
  C  C93  1  0.19683000  0.95681000  0.37922000  1
  C  C94  1  0.24360000  0.95701000  0.38453000  1
  C  C95  1  0.26936000  0.95707000  0.26803000  1
  C  C96  1  0.19701000  0.95693000  0.61747000  1
  C  C97  1  0.24377000  0.95712000  0.61111000  1
  C  C98  1  0.26972000  0.95729000  0.72702000  1
  C  C99  1  0.38890000  0.95774000  0.61532000  1
  C  C100  1  0.34213000  0.95754000  0.61000000  1
  C  C101  1  0.31637000  0.95749000  0.72650000  1
  C  C102  1  0.38872000  0.95763000  0.37707000  1
  C  C103  1  0.34196000  0.95743000  0.38343000  1
  C  C104  1  0.31601000  0.95727000  0.26751000  1
  C  C105  1  0.17244000  0.95676000  0.49862000  1
  C  C106  1  0.27080000  0.95718000  0.49752000  1
  C  C107  1  0.41328000  0.95779000  0.49592000  1
  C  C108  1  0.31493000  0.95737000  0.49702000  1
  C  C109  1  0.89074000  0.95561000  0.38262000  1
  C  C110  1  0.84398000  0.95541000  0.38897000  1
  C  C111  1  0.81806000  0.95522000  0.27305000  1
  C  C112  1  0.89089000  0.95576000  0.62087000  1
  C  C113  1  0.84412000  0.95555000  0.61555000  1
  C  C114  1  0.81834000  0.95551000  0.73204000  1
  C  C115  1  0.69901000  0.95492000  0.62298000  1
  C  C116  1  0.74577000  0.95512000  0.61664000  1
  C  C117  1  0.77169000  0.95531000  0.73255000  1
  C  C118  1  0.69887000  0.95478000  0.38474000  1
  C  C119  1  0.74563000  0.95498000  0.39006000  1
  C  C120  1  0.77141000  0.95502000  0.27357000  1
  C  C121  1  0.91529000  0.95579000  0.50148000  1
  C  C122  1  0.81694000  0.95536000  0.50256000  1
  C  C123  1  0.67447000  0.95474000  0.50413000  1
  C  C124  1  0.77282000  0.95517000  0.50305000  1
  S  S1  1  0.32463000  0.67540000  0.34694000  1
  S  S2  1  0.21936000  0.78089000  0.65311000  1
  S  S3  1  0.82516000  0.67556000  0.65184000  1
  S  S4  1  0.72018000  0.78075000  0.34491000  1
  N  N1  1  0.33924000  0.66103000  0.75024000  1
  N  N2  1  0.83960000  0.66081000  0.24864000  1
  O  O1  1  0.43654000  0.56346000  0.38131000  1
  O  O2  1  0.56345000  0.43641000  0.38132000  1
  O  O3  1  0.44165000  0.49987000  0.38132000  1
  O  O4  1  0.55835000  0.50001000  0.38132000  1
  O  O5  1  0.55836000  0.50012000  0.61868000  1
  O  O6  1  0.44164000  0.50001000  0.61868000  1
  O  O7  1  0.56345000  0.43649000  0.61868000  1
  O  O8  1  0.43656000  0.56360000  0.61867000  1
  O  O9  1  0.93667000  0.56359000  0.61826000  1
  O  O10  1  0.06334000  0.43654000  0.61917000  1
  O  O11  1  0.05849000  0.49999000  0.61872000  1
  O  O12  1  0.94152000  0.50013000  0.61872000  1
  O  O13  1  0.94150000  0.50002000  0.38136000  1
  O  O14  1  0.05844000  0.49992000  0.38135000  1
  O  O15  1  0.06342000  0.43639000  0.38181000  1
  O  O16  1  0.93662000  0.56349000  0.38091000  1
  O  O17  1  0.10744000  0.89282000  0.61874000  1
  O  O18  1  0.98032000  0.01987000  0.61873000  1
  O  O19  1  0.98564000  0.95617000  0.61938000  1
  O  O20  1  0.10212000  0.95652000  0.61809000  1
  O  O21  1  0.10207000  0.95641000  0.38073000  1
  O  O22  1  0.98562000  0.95602000  0.38202000  1
  O  O23  1  0.98017000  0.01979000  0.38137000  1
  O  O24  1  0.10742000  0.89269000  0.38138000  1
  O  O25  1  0.60867000  0.89271000  0.37848000  1
  O  O26  1  0.48222000  0.01977000  0.37758000  1
  O  O27  1  0.60404000  0.95607000  0.37738000  1
  O  O28  1  0.48685000  0.95642000  0.37867000  1
  O  O29  1  0.48690000  0.95653000  0.61603000  1
  O  O30  1  0.60412000  0.95615000  0.61474000  1
  O  O31  1  0.48230000  0.01992000  0.61493000  1
  O  O32  1  0.60873000  0.89281000  0.61584000  1
  O  O33  1  0.79711000  0.50025000  0.86263000  1
  O  O34  1  0.70276000  0.49990000  0.13741000  1
  O  O35  1  0.20248000  0.50018000  0.86263000  1
  O  O36  1  0.29763000  0.49972000  0.13741000  1
  O  O37  1  0.82349000  0.17665000  0.86264000  1
  O  O38  1  0.72025000  0.27963000  0.13742000  1
  O  O39  1  0.32219000  0.17632000  0.13972000  1
  O  O40  1  0.21922000  0.27999000  0.86420000  1
  O  O41  1  0.33973000  0.95730000  0.13413000  1
  O  O42  1  0.24599000  0.95725000  0.86040000  1
  O  O43  1  0.74751000  0.95484000  0.14072000  1
  O  O44  1  0.84225000  0.95570000  0.86489000  1
  O  O45  1  0.28553000  0.68546000  0.84899000  1
  O  O46  1  0.40925000  0.62038000  0.79224000  1
  O  O47  1  0.84464000  0.68514000  0.14972000  1
  O  O48  1  0.85077000  0.62011000  0.20693000  1
