# generated using pymatgen
data_Cu2H26C38SN2O15
_symmetry_space_group_name_H-M   'P 1'
_cell_length_a   15.84940000
_cell_length_b   17.52180000
_cell_length_c   10.80460000
_cell_angle_alpha   89.92160000
_cell_angle_beta   87.67480000
_cell_angle_gamma   95.29000000
_symmetry_Int_Tables_number   1
_chemical_formula_structural   Cu2H26C38SN2O15
_chemical_formula_sum   'Cu2 H26 C38 S1 N2 O15'
_cell_volume   2985.26639661
_cell_formula_units_Z   1
loop_
 _symmetry_equiv_pos_site_id
 _symmetry_equiv_pos_as_xyz
  1  'x, y, z'
loop_
 _atom_site_type_symbol
 _atom_site_label
 _atom_site_symmetry_multiplicity
 _atom_site_fract_x
 _atom_site_fract_y
 _atom_site_fract_z
 _atom_site_occupancy
  Cu  Cu1  1  0.41940000  0.49703000  0.50481000  1
  Cu  Cu2  1  0.58060000  0.50296000  0.49521000  1
  H  H1  1  0.29241000  0.57948000  0.37126000  1
  H  H2  1  0.13885000  0.57438000  0.37952000  1
  H  H3  1  0.12741000  0.39904000  0.66353000  1
  H  H4  1  0.28238000  0.40486000  0.65410000  1
  H  H5  1  0.87258000  0.60096000  0.33647000  1
  H  H6  1  0.86115000  0.42561000  0.62049000  1
  H  H7  1  0.70759000  0.42051000  0.62875000  1
  H  H8  1  0.71761000  0.59513000  0.34591000  1
  H  H9  1  0.62266000  0.26479000  0.49310000  1
  H  H10  1  0.61553000  0.12593000  0.49346000  1
  H  H11  1  0.34149000  0.11464000  0.50910000  1
  H  H12  1  0.34974000  0.25478000  0.50867000  1
  H  H13  1  0.65854000  0.88534000  0.49092000  1
  H  H14  1  0.38449000  0.87406000  0.50656000  1
  H  H15  1  0.37735000  0.73521000  0.50692000  1
  H  H16  1  0.65027000  0.74520000  0.49134000  1
  H  H17  1  0.37067000  0.49551000  0.11745000  1
  H  H18  1  0.69297000  0.55693000  0.09856000  1
  H  H19  1  0.68648000  0.45645000  0.09985000  1
  H  H20  1  0.68699000  0.45639000  0.87879000  1
  H  H21  1  0.69244000  0.55684000  0.87757000  1
  H  H22  1  0.03502000  0.39333000  0.67278000  1
  H  H23  1  0.96498000  0.60668000  0.32721000  1
  H  H24  1  0.33306000  0.03108000  0.50955000  1
  H  H25  1  0.66697000  0.96891000  0.49047000  1
  H  H26  1  0.28391000  0.56738000  0.74472000  1
  C  C1  1  0.49999000  0.49994000  0.73213000  1
  C  C2  1  0.50001000  0.50005000  0.26788000  1
  C  C3  1  0.50824000  0.64363000  0.49942000  1
  C  C4  1  0.49176000  0.35636000  0.50060000  1
  C  C5  1  0.25676000  0.53995000  0.43529000  1
  C  C6  1  0.16805000  0.53676000  0.44046000  1
  C  C7  1  0.11957000  0.48593000  0.52280000  1
  C  C8  1  0.16257000  0.43873000  0.59923000  1
  C  C9  1  0.25120000  0.44196000  0.59401000  1
  C  C10  1  0.02495000  0.47942000  0.53333000  1
  C  C11  1  0.97505000  0.52058000  0.46666000  1
  C  C12  1  0.83742000  0.56126000  0.40077000  1
  C  C13  1  0.88043000  0.51407000  0.47721000  1
  C  C14  1  0.83195000  0.46324000  0.55955000  1
  C  C15  1  0.74324000  0.46004000  0.56472000  1
  C  C16  1  0.74879000  0.55804000  0.40600000  1
  C  C17  1  0.48685000  0.27084000  0.50085000  1
  C  C18  1  0.56106000  0.23234000  0.49660000  1
  C  C19  1  0.55656000  0.15212000  0.49683000  1
  C  C20  1  0.47736000  0.10802000  0.50134000  1
  C  C21  1  0.40335000  0.14664000  0.50558000  1
  C  C22  1  0.40790000  0.22679000  0.50534000  1
  C  C23  1  0.46771000  0.02245000  0.50186000  1
  C  C24  1  0.53232000  0.97755000  0.49816000  1
  C  C25  1  0.59667000  0.85334000  0.49444000  1
  C  C26  1  0.52267000  0.89197000  0.49868000  1
  C  C27  1  0.44346000  0.84787000  0.50319000  1
  C  C28  1  0.43895000  0.76765000  0.50342000  1
  C  C29  1  0.51316000  0.72915000  0.49917000  1
  C  C30  1  0.59211000  0.77320000  0.49467000  1
  C  C31  1  0.50001000  0.50002000  0.13514000  1
  C  C32  1  0.50000000  0.49997000  0.86487000  1
  C  C33  1  0.56689000  0.50236000  0.06346000  1
  C  C34  1  0.43312000  0.49764000  0.93655000  1
  C  C35  1  0.56688000  0.50233000  0.92857000  1
  C  C36  1  0.43312000  0.49766000  0.07144000  1
  C  C37  1  0.66200000  0.50569000  0.05492000  1
  C  C38  1  0.66200000  0.50567000  0.92577000  1
  S  S1  1  0.33284000  0.49409000  0.87465000  1
  N  N1  1  0.29962000  0.49263000  0.51194000  1
  N  N2  1  0.70038000  0.50736000  0.48808000  1
  O  O1  1  0.42483000  0.49729000  0.66541000  1
  O  O2  1  0.42485000  0.49740000  0.34323000  1
  O  O3  1  0.43056000  0.59702000  0.50384000  1
  O  O4  1  0.41912000  0.39767000  0.50480000  1
  O  O5  1  0.56943000  0.40297000  0.49614000  1
  O  O6  1  0.58087000  0.60232000  0.49526000  1
  O  O7  1  0.57517000  0.50281000  0.33447000  1
  O  O8  1  0.57514000  0.50256000  0.65679000  1
  O  O9  1  0.98470000  0.42164000  0.62691000  1
  O  O10  1  0.01529000  0.57836000  0.37308000  1
  O  O11  1  0.37760000  0.98575000  0.50699000  1
  O  O12  1  0.62243000  0.01424000  0.49303000  1
  O  O13  1  0.31196000  0.58074000  0.82188000  1
  O  O14  1  0.25841000  0.46604000  0.97210000  1
  O  O15  1  0.32545000  0.43923000  0.75762000  1
