# generated using pymatgen
data_ZnH7C11(NO4)2
_symmetry_space_group_name_H-M   'P 1'
_cell_length_a   10.90060000
_cell_length_b   36.52860000
_cell_length_c   10.00000000
_cell_angle_alpha   90.00000000
_cell_angle_beta   90.00000000
_cell_angle_gamma   107.18100000
_symmetry_Int_Tables_number   1
_chemical_formula_structural   ZnH7C11(NO4)2
_chemical_formula_sum   'Zn4 H28 C44 N8 O32'
_cell_volume   3804.15257010
_cell_formula_units_Z   4
loop_
 _symmetry_equiv_pos_site_id
 _symmetry_equiv_pos_as_xyz
  1  'x, y, z'
loop_
 _atom_site_type_symbol
 _atom_site_label
 _atom_site_symmetry_multiplicity
 _atom_site_fract_x
 _atom_site_fract_y
 _atom_site_fract_z
 _atom_site_occupancy
  Zn  Zn1  1  0.50003000  0.50011000  0.66577000  1
  Zn  Zn2  1  0.50000000  0.49989000  0.33423000  1
  Zn  Zn3  1  0.99628000  0.99991000  0.23657000  1
  Zn  Zn4  1  0.99672000  0.00013000  0.56810000  1
  H  H1  1  0.10766000  0.49986000  0.29689000  1
  H  H2  1  0.89235000  0.50011000  0.70312000  1
  H  H3  1  0.60408000  0.99980000  0.60538000  1
  H  H4  1  0.38836000  0.99968000  0.19917000  1
  H  H5  1  0.91172000  0.91436000  0.16831000  1
  H  H6  1  0.76737000  0.76898000  0.17008000  1
  H  H7  1  0.91163000  0.91424000  0.63692000  1
  H  H8  1  0.76733000  0.76892000  0.63463000  1
  H  H9  1  0.72972000  0.73103000  0.73225000  1
  H  H10  1  0.58536000  0.58565000  0.73402000  1
  H  H11  1  0.72976000  0.73110000  0.26770000  1
  H  H12  1  0.58546000  0.58578000  0.26542000  1
  H  H13  1  0.08151000  0.08573000  0.16783000  1
  H  H14  1  0.22886000  0.23110000  0.17003000  1
  H  H15  1  0.08075000  0.08574000  0.63643000  1
  H  H16  1  0.22804000  0.23106000  0.63458000  1
  H  H17  1  0.26625000  0.26892000  0.73231000  1
  H  H18  1  0.41359000  0.41429000  0.73451000  1
  H  H19  1  0.26707000  0.26896000  0.26776000  1
  H  H20  1  0.41436000  0.41428000  0.26590000  1
  H  H21  1  0.80382000  0.51847000  0.23622000  1
  H  H22  1  0.87837000  0.48086000  0.16632000  1
  H  H23  1  0.23324000  0.51910000  0.76340000  1
  H  H24  1  0.08457000  0.48151000  0.83407000  1
  H  H25  1  0.26348000  0.98138000  0.66609000  1
  H  H26  1  0.41267000  0.01892000  0.73597000  1
  H  H27  1  0.69135000  0.98050000  0.13885000  1
  H  H28  1  0.61739000  0.01815000  0.06819000  1
  C  C1  1  0.26084000  0.50010000  0.49992000  1
  C  C2  1  0.57451000  0.57474000  0.49974000  1
  C  C3  1  0.73916000  0.49988000  0.50008000  1
  C  C4  1  0.42510000  0.42526000  0.50026000  1
  C  C5  1  0.75728000  0.00007000  0.40244000  1
  C  C6  1  0.92257000  0.92528000  0.40259000  1
  C  C7  1  0.23575000  0.00000000  0.40222000  1
  C  C8  1  0.07001000  0.07476000  0.40207000  1
  C  C9  1  0.88011000  0.88251000  0.40252000  1
  C  C10  1  0.85958000  0.86183000  0.52364000  1
  C  C11  1  0.81969000  0.82166000  0.52325000  1
  C  C12  1  0.79953000  0.80136000  0.40193000  1
  C  C13  1  0.81977000  0.82175000  0.28137000  1
  C  C14  1  0.85963000  0.86190000  0.28129000  1
  C  C15  1  0.67732000  0.67827000  0.62097000  1
  C  C16  1  0.69756000  0.69866000  0.50041000  1
  C  C17  1  0.67739000  0.67836000  0.37908000  1
  C  C18  1  0.63751000  0.63819000  0.37870000  1
  C  C19  1  0.61698000  0.61751000  0.49981000  1
  C  C20  1  0.63745000  0.63812000  0.62104000  1
  C  C21  1  0.11335000  0.11752000  0.40213000  1
  C  C22  1  0.13409000  0.13818000  0.52330000  1
  C  C23  1  0.17479000  0.17834000  0.52304000  1
  C  C24  1  0.19560000  0.19867000  0.40178000  1
  C  C25  1  0.17517000  0.17831000  0.28115000  1
  C  C26  1  0.13448000  0.13817000  0.28096000  1
  C  C27  1  0.31994000  0.32171000  0.62118000  1
  C  C28  1  0.29951000  0.30135000  0.50056000  1
  C  C29  1  0.32031000  0.32168000  0.37930000  1
  C  C30  1  0.36102000  0.36184000  0.37903000  1
  C  C31  1  0.38175000  0.38250000  0.50021000  1
  C  C32  1  0.36063000  0.36185000  0.62138000  1
  C  C33  1  0.87145000  0.49993000  0.50004000  1
  C  C34  1  0.12855000  0.50004000  0.49996000  1
  C  C35  1  0.93604000  0.49986000  0.38008000  1
  C  C36  1  0.06396000  0.50011000  0.61992000  1
  C  C37  1  0.06370000  0.49991000  0.38004000  1
  C  C38  1  0.93630000  0.50006000  0.61996000  1
  C  C39  1  0.36786000  0.99987000  0.40225000  1
  C  C40  1  0.62459000  0.99961000  0.40230000  1
  C  C41  1  0.43256000  0.99990000  0.52220000  1
  C  C42  1  0.55988000  0.99957000  0.28235000  1
  C  C43  1  0.56004000  0.99977000  0.52222000  1
  C  C44  1  0.43240000  0.99970000  0.28232000  1
  N  N1  1  0.75867000  0.76022000  0.39829000  1
  N  N2  1  0.73841000  0.73980000  0.50405000  1
  N  N3  1  0.23731000  0.23982000  0.39826000  1
  N  N4  1  0.25780000  0.26020000  0.50408000  1
  N  N5  1  0.86661000  0.49972000  0.24933000  1
  N  N6  1  0.13339000  0.50025000  0.75068000  1
  N  N7  1  0.36347000  0.00009000  0.65296000  1
  N  N8  1  0.62897000  0.99939000  0.15158000  1
  O  O1  1  0.32334000  0.50034000  0.63580000  1
  O  O2  1  0.32314000  0.49996000  0.36399000  1
  O  O3  1  0.55506000  0.55516000  0.36380000  1
  O  O4  1  0.55528000  0.55537000  0.63562000  1
  O  O5  1  0.67677000  0.49973000  0.36420000  1
  O  O6  1  0.67682000  0.49996000  0.63601000  1
  O  O7  1  0.44472000  0.44484000  0.63620000  1
  O  O8  1  0.44496000  0.44464000  0.36438000  1
  O  O9  1  0.81924000  0.99979000  0.26656000  1
  O  O10  1  0.81982000  0.00016000  0.53836000  1
  O  O11  1  0.94202000  0.94486000  0.53853000  1
  O  O12  1  0.94180000  0.94465000  0.26672000  1
  O  O13  1  0.17369000  0.00018000  0.53811000  1
  O  O14  1  0.17326000  0.99995000  0.26631000  1
  O  O15  1  0.05073000  0.05518000  0.26614000  1
  O  O16  1  0.05141000  0.05538000  0.53795000  1
  O  O17  1  0.88060000  0.88302000  0.14951000  1
  O  O18  1  0.79844000  0.80028000  0.15027000  1
  O  O19  1  0.88049000  0.88289000  0.65554000  1
  O  O20  1  0.79840000  0.80021000  0.65439000  1
  O  O21  1  0.69864000  0.69974000  0.75206000  1
  O  O22  1  0.61649000  0.61700000  0.75283000  1
  O  O23  1  0.69868000  0.69980000  0.24795000  1
  O  O24  1  0.61659000  0.61713000  0.24679000  1
  O  O25  1  0.11332000  0.11708000  0.14911000  1
  O  O26  1  0.19718000  0.19981000  0.15012000  1
  O  O27  1  0.11249000  0.11708000  0.65515000  1
  O  O28  1  0.19628000  0.19976000  0.65424000  1
  O  O29  1  0.29793000  0.30020000  0.75221000  1
  O  O30  1  0.38179000  0.38294000  0.75322000  1
  O  O31  1  0.29882000  0.30026000  0.24810000  1
  O  O32  1  0.38262000  0.38293000  0.24719000  1
