# generated using pymatgen
data_ZnH12C27(NO8)2
_symmetry_space_group_name_H-M   'P 1'
_cell_length_a   32.98470000
_cell_length_b   21.91110000
_cell_length_c   21.89930000
_cell_angle_alpha   121.59600000
_cell_angle_beta   43.54160000
_cell_angle_gamma   136.48900000
_symmetry_Int_Tables_number   1
_chemical_formula_structural   ZnH12C27(NO8)2
_chemical_formula_sum   'Zn4 H48 C108 N8 O64'
_cell_volume   7506.68471533
_cell_formula_units_Z   4
loop_
 _symmetry_equiv_pos_site_id
 _symmetry_equiv_pos_as_xyz
  1  'x, y, z'
loop_
 _atom_site_type_symbol
 _atom_site_label
 _atom_site_symmetry_multiplicity
 _atom_site_fract_x
 _atom_site_fract_y
 _atom_site_fract_z
 _atom_site_occupancy
  Zn  Zn1  1  0.45428000  0.50461000  0.49538000  1
  Zn  Zn2  1  0.95425000  0.50463000  0.49546000  1
  Zn  Zn3  1  0.04570000  0.49539000  0.50467000  1
  Zn  Zn4  1  0.54573000  0.49538000  0.50459000  1
  H  H1  1  0.41521000  0.21383000  0.50560000  1
  H  H2  1  0.19602000  0.77567000  0.50610000  1
  H  H3  1  0.08452000  0.78616000  0.49509000  1
  H  H4  1  0.58442000  0.78617000  0.49513000  1
  H  H5  1  0.69568000  0.77567000  0.50663000  1
  H  H6  1  0.91346000  0.21381000  0.50895000  1
  H  H7  1  0.80220000  0.22431000  0.49745000  1
  H  H8  1  0.01755000  0.70994000  0.36543000  1
  H  H9  1  0.85776000  0.63748000  0.43751000  1
  H  H10  1  0.70090000  0.31859000  0.60628000  1
  H  H11  1  0.70415000  0.39230000  0.68146000  1
  H  H12  1  0.64207000  0.43679000  0.63718000  1
  H  H13  1  0.48228000  0.36433000  0.70926000  1
  H  H14  1  0.79568000  0.68197000  0.39323000  1
  H  H15  1  0.79923000  0.60715000  0.31914000  1
  H  H16  1  0.98237000  0.36485000  0.70963000  1
  H  H17  1  0.14217000  0.43713000  0.63734000  1
  H  H18  1  0.29911000  0.60668000  0.31889000  1
  H  H19  1  0.29575000  0.68169000  0.39279000  1
  H  H20  1  0.35785000  0.63731000  0.43715000  1
  H  H21  1  0.51765000  0.70960000  0.36486000  1
  H  H22  1  0.20427000  0.39276000  0.68170000  1
  H  H23  1  0.20083000  0.31886000  0.60670000  1
  H  H24  1  0.73749000  0.50944000  0.82453000  1
  H  H25  1  0.57160000  0.50987000  0.15673000  1
  H  H26  1  0.92832000  0.48988000  0.84334000  1
  H  H27  1  0.76243000  0.49030000  0.17555000  1
  H  H28  1  0.07235000  0.51140000  0.15665000  1
  H  H29  1  0.23796000  0.51045000  0.82445000  1
  H  H30  1  0.26277000  0.49099000  0.17543000  1
  H  H31  1  0.42838000  0.49003000  0.84322000  1
  H  H32  1  0.07098000  0.84288000  0.49108000  1
  H  H33  1  0.23719000  0.17512000  0.49070000  1
  H  H34  1  0.26254000  0.82487000  0.50999000  1
  H  H35  1  0.42875000  0.15711000  0.50961000  1
  H  H36  1  0.73595000  0.17512000  0.49304000  1
  H  H37  1  0.57081000  0.84289000  0.49128000  1
  H  H38  1  0.92707000  0.15709000  0.51280000  1
  H  H39  1  0.76193000  0.82486000  0.51104000  1
  H  H40  1  0.58504000  0.50585000  0.21362000  1
  H  H41  1  0.69612000  0.49446000  0.22456000  1
  H  H42  1  0.91489000  0.49390000  0.78646000  1
  H  H43  1  0.80380000  0.50529000  0.77551000  1
  H  H44  1  0.30414000  0.50603000  0.77542000  1
  H  H45  1  0.41499000  0.49414000  0.78635000  1
  H  H46  1  0.19659000  0.49541000  0.22446000  1
  H  H47  1  0.08574000  0.50729000  0.21353000  1
  H  H48  1  0.30371000  0.22431000  0.49459000  1
  C  C1  1  0.37799000  0.18705000  0.50338000  1
  C  C2  1  0.33000000  0.09451000  0.50333000  1
  C  C3  1  0.33656000  0.04024000  0.50657000  1
  C  C4  1  0.18773000  0.80674000  0.50382000  1
  C  C5  1  0.23248000  0.89957000  0.50356000  1
  C  C6  1  0.29030000  0.94779000  0.50667000  1
  C  C7  1  0.12174000  0.81294000  0.49731000  1
  C  C8  1  0.16973000  0.90548000  0.49736000  1
  C  C9  1  0.16318000  0.95974000  0.49412000  1
  C  C10  1  0.36926000  0.23865000  0.50007000  1
  C  C11  1  0.27174000  0.04372000  0.50030000  1
  C  C12  1  0.13047000  0.76133000  0.50062000  1
  C  C13  1  0.22799000  0.95627000  0.50040000  1
  C  C14  1  0.62151000  0.81295000  0.49763000  1
  C  C15  1  0.66919000  0.90548000  0.49829000  1
  C  C16  1  0.66254000  0.95975000  0.49524000  1
  C  C17  1  0.68734000  0.80673000  0.50444000  1
  C  C18  1  0.73180000  0.89957000  0.50476000  1
  C  C19  1  0.78938000  0.94778000  0.50835000  1
  C  C20  1  0.87637000  0.18703000  0.50645000  1
  C  C21  1  0.82869000  0.09450000  0.50579000  1
  C  C22  1  0.83534000  0.04023000  0.50884000  1
  C  C23  1  0.81054000  0.19324000  0.49964000  1
  C  C24  1  0.76608000  0.10041000  0.49932000  1
  C  C25  1  0.58628000  0.67275000  0.50031000  1
  C  C26  1  0.70850000  0.05220000  0.49573000  1
  C  C27  1  0.63032000  0.76134000  0.50078000  1
  C  C28  1  0.72721000  0.95627000  0.50181000  1
  C  C29  1  0.86757000  0.23864000  0.50330000  1
  C  C30  1  0.77067000  0.04371000  0.50227000  1
  C  C31  1  0.02014000  0.62926000  0.37145000  1
  C  C32  1  0.93985000  0.63691000  0.36382000  1
  C  C33  1  0.78186000  0.39077000  0.60874000  1
  C  C34  1  0.70253000  0.39932000  0.60021000  1
  C  C35  1  0.56013000  0.36310000  0.63623000  1
  C  C36  1  0.47984000  0.37075000  0.62860000  1
  C  C37  1  0.08615000  0.67275000  0.50072000  1
  C  C38  1  0.79745000  0.60069000  0.39984000  1
  C  C39  1  0.71812000  0.60924000  0.39132000  1
  C  C40  1  0.97983000  0.37107000  0.62897000  1
  C  C41  1  0.06013000  0.36343000  0.63659000  1
  C  C42  1  0.21809000  0.60895000  0.39108000  1
  C  C43  1  0.29743000  0.60042000  0.39960000  1
  C  C44  1  0.43985000  0.63656000  0.36345000  1
  C  C45  1  0.52015000  0.62893000  0.37107000  1
  C  C46  1  0.20255000  0.39957000  0.60044000  1
  C  C47  1  0.28189000  0.39104000  0.60896000  1
  C  C48  1  0.41348000  0.49977000  0.67272000  1
  C  C49  1  0.08674000  0.50087000  0.32732000  1
  C  C50  1  0.91375000  0.32727000  0.49949000  1
  C  C51  1  0.91335000  0.49945000  0.67282000  1
  C  C52  1  0.82370000  0.45515000  0.54468000  1
  C  C53  1  0.78519000  0.45921000  0.54063000  1
  C  C54  1  0.82256000  0.51819000  0.48195000  1
  C  C55  1  0.89878000  0.57288000  0.42754000  1
  C  C56  1  0.93750000  0.56904000  0.43137000  1
  C  C57  1  0.60120000  0.42713000  0.57252000  1
  C  C58  1  0.67742000  0.48182000  0.51811000  1
  C  C59  1  0.71479000  0.54080000  0.45942000  1
  C  C60  1  0.67628000  0.54486000  0.45538000  1
  C  C61  1  0.56248000  0.43097000  0.56869000  1
  C  C62  1  0.17626000  0.54474000  0.45529000  1
  C  C63  1  0.21478000  0.54069000  0.45933000  1
  C  C64  1  0.17741000  0.48186000  0.51816000  1
  C  C65  1  0.10119000  0.42731000  0.57272000  1
  C  C66  1  0.06247000  0.43114000  0.56890000  1
  C  C67  1  0.39879000  0.57269000  0.42732000  1
  C  C68  1  0.32257000  0.51813000  0.48188000  1
  C  C69  1  0.28520000  0.45930000  0.54071000  1
  C  C70  1  0.32372000  0.45525000  0.54475000  1
  C  C71  1  0.43751000  0.56886000  0.43115000  1
  C  C72  1  0.62215000  0.50349000  0.18693000  1
  C  C73  1  0.67004000  0.50321000  0.09441000  1
  C  C74  1  0.66356000  0.50643000  0.04002000  1
  C  C75  1  0.41358000  0.32724000  0.49997000  1
  C  C76  1  0.68789000  0.49675000  0.19341000  1
  C  C77  1  0.73255000  0.49679000  0.10057000  1
  C  C78  1  0.79020000  0.49344000  0.05250000  1
  C  C79  1  0.87777000  0.49626000  0.81314000  1
  C  C80  1  0.82989000  0.49654000  0.90566000  1
  C  C81  1  0.83637000  0.49332000  0.96005000  1
  C  C82  1  0.81204000  0.50300000  0.80666000  1
  C  C83  1  0.76737000  0.50295000  0.89950000  1
  C  C84  1  0.70972000  0.50631000  0.94757000  1
  C  C85  1  0.63080000  0.50018000  0.23867000  1
  C  C86  1  0.72813000  0.49993000  0.04375000  1
  C  C87  1  0.86912000  0.49957000  0.76140000  1
  C  C88  1  0.77179000  0.49982000  0.95632000  1
  C  C89  1  0.31235000  0.50369000  0.80657000  1
  C  C90  1  0.26776000  0.50378000  0.89940000  1
  C  C91  1  0.21022000  0.50736000  0.94749000  1
  C  C92  1  0.37795000  0.49665000  0.81304000  1
  C  C93  1  0.33014000  0.49709000  0.90556000  1
  C  C94  1  0.33660000  0.49381000  0.95994000  1
  C  C95  1  0.18838000  0.49775000  0.19331000  1
  C  C96  1  0.23297000  0.49766000  0.10047000  1
  C  C97  1  0.29051000  0.49408000  0.05239000  1
  C  C98  1  0.12278000  0.50478000  0.18684000  1
  C  C99  1  0.17059000  0.50434000  0.09432000  1
  C  C100  1  0.58657000  0.50029000  0.32725000  1
  C  C101  1  0.16413000  0.50763000  0.03993000  1
  C  C102  1  0.36933000  0.50003000  0.76130000  1
  C  C103  1  0.27216000  0.50059000  0.95622000  1
  C  C104  1  0.13140000  0.50141000  0.23857000  1
  C  C105  1  0.22857000  0.50084000  0.04366000  1
  C  C106  1  0.31200000  0.19325000  0.49687000  1
  C  C107  1  0.26725000  0.10041000  0.49714000  1
  C  C108  1  0.20943000  0.05220000  0.49402000  1
  N  N1  1  0.90046000  0.51007000  0.49004000  1
  N  N2  1  0.78464000  0.52387000  0.47629000  1
  N  N3  1  0.71534000  0.47614000  0.52377000  1
  N  N4  1  0.59952000  0.48994000  0.51002000  1
  N  N5  1  0.09950000  0.48995000  0.51008000  1
  N  N6  1  0.21534000  0.47619000  0.52383000  1
  N  N7  1  0.28464000  0.52380000  0.47621000  1
  N  N8  1  0.40048000  0.51004000  0.48996000  1
  O  O1  1  0.47329000  0.49563000  0.63150000  1
  O  O2  1  0.39855000  0.50366000  0.62393000  1
  O  O3  1  0.60132000  0.62391000  0.50395000  1
  O  O4  1  0.52648000  0.63154000  0.49619000  1
  O  O5  1  0.05465000  0.70779000  0.34784000  1
  O  O6  1  0.05475000  0.60606000  0.34693000  1
  O  O7  1  0.02644000  0.63154000  0.49636000  1
  O  O8  1  0.91055000  0.67106000  0.38437000  1
  O  O9  1  0.00082000  0.65864000  0.29460000  1
  O  O10  1  0.71711000  0.31532000  0.62928000  1
  O  O11  1  0.80889000  0.40769000  0.63951000  1
  O  O12  1  0.66744000  0.37512000  0.67882000  1
  O  O13  1  0.10118000  0.62394000  0.50436000  1
  O  O14  1  0.66846000  0.37537000  0.57643000  1
  O  O15  1  0.58932000  0.38347000  0.67049000  1
  O  O16  1  0.49926000  0.29376000  0.65761000  1
  O  O17  1  0.44522000  0.34674000  0.70701000  1
  O  O18  1  0.44533000  0.34634000  0.60528000  1
  O  O19  1  0.83243000  0.67941000  0.37604000  1
  O  O20  1  0.83162000  0.57704000  0.37578000  1
  O  O21  1  0.78298000  0.63017000  0.31598000  1
  O  O22  1  0.69100000  0.63992000  0.40839000  1
  O  O23  1  0.94529000  0.34726000  0.70744000  1
  O  O24  1  0.94525000  0.34660000  0.60572000  1
  O  O25  1  0.08940000  0.38390000  0.67078000  1
  O  O26  1  0.99920000  0.29415000  0.65815000  1
  O  O27  1  0.28288000  0.62969000  0.31568000  1
  O  O28  1  0.19102000  0.63968000  0.40808000  1
  O  O29  1  0.10163000  0.49686000  0.37615000  1
  O  O30  1  0.33248000  0.67909000  0.37559000  1
  O  O31  1  0.33155000  0.57671000  0.37558000  1
  O  O32  1  0.41061000  0.67076000  0.38392000  1
  O  O33  1  0.50075000  0.65811000  0.29417000  1
  O  O34  1  0.55472000  0.70740000  0.34727000  1
  O  O35  1  0.02663000  0.50432000  0.36853000  1
  O  O36  1  0.55471000  0.60567000  0.34660000  1
  O  O37  1  0.16753000  0.37557000  0.67911000  1
  O  O38  1  0.16841000  0.37556000  0.57674000  1
  O  O39  1  0.21707000  0.31564000  0.62970000  1
  O  O40  1  0.30898000  0.40804000  0.63969000  1
  O  O41  1  0.69657000  0.51001000  0.89674000  1
  O  O42  1  0.60325000  0.51025000  0.08361000  1
  O  O43  1  0.89667000  0.48950000  0.91646000  1
  O  O44  1  0.80335000  0.48974000  0.10334000  1
  O  O45  1  0.10395000  0.51169000  0.08353000  1
  O  O46  1  0.97359000  0.36848000  0.50361000  1
  O  O47  1  0.19711000  0.51115000  0.89666000  1
  O  O48  1  0.30362000  0.49029000  0.10322000  1
  O  O49  1  0.39678000  0.48975000  0.91634000  1
  O  O50  1  0.10269000  0.91599000  0.49054000  1
  O  O51  1  0.19618000  0.10289000  0.49032000  1
  O  O52  1  0.89868000  0.37608000  0.49594000  1
  O  O53  1  0.30355000  0.89710000  0.51037000  1
  O  O54  1  0.39705000  0.08400000  0.51016000  1
  O  O55  1  0.69518000  0.10289000  0.49217000  1
  O  O56  1  0.60229000  0.91600000  0.49118000  1
  O  O57  1  0.89559000  0.08398000  0.51290000  1
  O  O58  1  0.80269000  0.89709000  0.51191000  1
  O  O59  1  0.89840000  0.50334000  0.62399000  1
  O  O60  1  0.97325000  0.49555000  0.63160000  1
  O  O61  1  0.39860000  0.37608000  0.49620000  1
  O  O62  1  0.47361000  0.36845000  0.50363000  1
  O  O63  1  0.52664000  0.50420000  0.36847000  1
  O  O64  1  0.60155000  0.49651000  0.37604000  1
