# generated using pymatgen
data_Zn4H28C40Br4N12O13
_symmetry_space_group_name_H-M   'P 1'
_cell_length_a   21.41210000
_cell_length_b   24.70490000
_cell_length_c   39.08860000
_cell_angle_alpha   80.96090000
_cell_angle_beta   74.10330000
_cell_angle_gamma   64.32510000
_symmetry_Int_Tables_number   1
_chemical_formula_structural   Zn4H28C40Br4N12O13
_chemical_formula_sum   'Zn16 H112 C160 Br16 N48 O52'
_cell_volume   17905.39564719
_cell_formula_units_Z   4
loop_
 _symmetry_equiv_pos_site_id
 _symmetry_equiv_pos_as_xyz
  1  'x, y, z'
loop_
 _atom_site_type_symbol
 _atom_site_label
 _atom_site_symmetry_multiplicity
 _atom_site_fract_x
 _atom_site_fract_y
 _atom_site_fract_z
 _atom_site_occupancy
  Zn  Zn1  1  0.39726000  0.54306000  0.51436000  1
  Zn  Zn2  1  0.52870000  0.49394000  0.44864000  1
  Zn  Zn3  1  0.52871000  0.41992000  0.52266000  1
  Zn  Zn4  1  0.54533000  0.54308000  0.51435000  1
  Zn  Zn5  1  0.10288000  0.20695000  0.73562000  1
  Zn  Zn6  1  0.97139000  0.33008000  0.72736000  1
  Zn  Zn7  1  0.97148000  0.25603000  0.80137000  1
  Zn  Zn8  1  0.95479000  0.20691000  0.73567000  1
  Zn  Zn9  1  0.97128000  0.75600000  0.30144000  1
  Zn  Zn10  1  0.95472000  0.70685000  0.23571000  1
  Zn  Zn11  1  0.10278000  0.70686000  0.23574000  1
  Zn  Zn12  1  0.97135000  0.83000000  0.22741000  1
  Zn  Zn13  1  0.52900000  0.91981000  0.02274000  1
  Zn  Zn14  1  0.54552000  0.04301000  0.01442000  1
  Zn  Zn15  1  0.39745000  0.04292000  0.01450000  1
  Zn  Zn16  1  0.52882000  0.99387000  0.94873000  1
  H  H1  1  0.03581000  0.04839000  0.68281000  1
  H  H2  1  0.23318000  0.04841000  0.68276000  1
  H  H3  1  0.26694000  0.70162000  0.56720000  1
  H  H4  1  0.46430000  0.70163000  0.56718000  1
  H  H5  1  0.86562000  0.00088000  0.26792000  1
  H  H6  1  0.86556000  0.90225000  0.36658000  1
  H  H7  1  0.63438000  0.34770000  0.38348000  1
  H  H8  1  0.63439000  0.24905000  0.48214000  1
  H  H9  1  0.63451000  0.84768000  0.88354000  1
  H  H10  1  0.63472000  0.74897000  0.98218000  1
  H  H11  1  0.86571000  0.50093000  0.76791000  1
  H  H12  1  0.86584000  0.40224000  0.86655000  1
  H  H13  1  0.26710000  0.20150000  0.06728000  1
  H  H14  1  0.46442000  0.20149000  0.06736000  1
  H  H15  1  0.03581000  0.54828000  0.18288000  1
  H  H16  1  0.23314000  0.54830000  0.18292000  1
  H  H17  1  0.47751000  0.34075000  0.55063000  1
  H  H18  1  0.49210000  0.30629000  0.59696000  1
  H  H19  1  0.38057000  0.24084000  0.65652000  1
  H  H20  1  0.43518000  0.22661000  0.60823000  1
  H  H21  1  0.27301000  0.23078000  0.69315000  1
  H  H22  1  0.32727000  0.21706000  0.64478000  1
  H  H23  1  0.01564000  0.38898000  0.67213000  1
  H  H24  1  0.01483000  0.46410000  0.68020000  1
  H  H25  1  0.12634000  0.52955000  0.62064000  1
  H  H26  1  0.05797000  0.50309000  0.61454000  1
  H  H27  1  0.23392000  0.53959000  0.58402000  1
  H  H28  1  0.16590000  0.51267000  0.57799000  1
  H  H29  1  0.63110000  0.49630000  0.39507000  1
  H  H30  1  0.60465000  0.54856000  0.35467000  1
  H  H31  1  0.72207000  0.60517000  0.29216000  1
  H  H32  1  0.72996000  0.52563000  0.30920000  1
  H  H33  1  0.80307000  0.65508000  0.26882000  1
  H  H34  1  0.81089000  0.57566000  0.28615000  1
  H  H35  1  0.92326000  0.70268000  0.35841000  1
  H  H36  1  0.84091000  0.75235000  0.39193000  1
  H  H37  1  0.72350000  0.69574000  0.45443000  1
  H  H38  1  0.82442000  0.67336000  0.44426000  1
  H  H39  1  0.64249000  0.64584000  0.47777000  1
  H  H40  1  0.74346000  0.62333000  0.46733000  1
  H  H41  1  0.48437000  0.54725000  0.39164000  1
  H  H42  1  0.48519000  0.49758000  0.35812000  1
  H  H43  1  0.37365000  0.55418000  0.29562000  1
  H  H44  1  0.44203000  0.57658000  0.30578000  1
  H  H45  1  0.26609000  0.60412000  0.27229000  1
  H  H46  1  0.33411000  0.62663000  0.28274000  1
  H  H47  1  0.02249000  0.75361000  0.35503000  1
  H  H48  1  0.00792000  0.70134000  0.39543000  1
  H  H49  1  0.11945000  0.64475000  0.45791000  1
  H  H50  1  0.06484000  0.72429000  0.44087000  1
  H  H51  1  0.22703000  0.59479000  0.48124000  1
  H  H52  1  0.17276000  0.67422000  0.46393000  1
  H  H53  1  0.65568000  0.52277000  0.53834000  1
  H  H54  1  0.63956000  0.56479000  0.57951000  1
  H  H55  1  0.75871000  0.51199000  0.63820000  1
  H  H56  1  0.77093000  0.52989000  0.58775000  1
  H  H57  1  0.83202000  0.44492000  0.67866000  1
  H  H58  1  0.84405000  0.46244000  0.62819000  1
  H  H59  1  0.89873000  0.20701000  0.68436000  1
  H  H60  1  0.80605000  0.20566000  0.69759000  1
  H  H61  1  0.68692000  0.25844000  0.63890000  1
  H  H62  1  0.78351000  0.19989000  0.63495000  1
  H  H63  1  0.61361000  0.32553000  0.59844000  1
  H  H64  1  0.71036000  0.26734000  0.59451000  1
  H  H65  1  0.02275000  0.25367000  0.85491000  1
  H  H66  1  0.00822000  0.20139000  0.89531000  1
  H  H67  1  0.11984000  0.14479000  0.95776000  1
  H  H68  1  0.06519000  0.22433000  0.94075000  1
  H  H69  1  0.22745000  0.09490000  0.98107000  1
  H  H70  1  0.17315000  0.17431000  0.96375000  1
  H  H71  1  0.48473000  0.04739000  0.89139000  1
  H  H72  1  0.48552000  0.99772000  0.85788000  1
  H  H73  1  0.37391000  0.05432000  0.79543000  1
  H  H74  1  0.44229000  0.07672000  0.80557000  1
  H  H75  1  0.26629000  0.10421000  0.77214000  1
  H  H76  1  0.33432000  0.12674000  0.78255000  1
  H  H77  1  0.84447000  0.18104000  0.75786000  1
  H  H78  1  0.86061000  0.09827000  0.75744000  1
  H  H79  1  0.74154000  0.03658000  0.81323000  1
  H  H80  1  0.72926000  0.10332000  0.77906000  1
  H  H81  1  0.66829000  0.00939000  0.86702000  1
  H  H82  1  0.65621000  0.07635000  0.83302000  1
  H  H83  1  0.60169000  0.11980000  0.98880000  1
  H  H84  1  0.69439000  0.10065000  0.99606000  1
  H  H85  1  0.81345000  0.16234000  0.94028000  1
  H  H86  1  0.71688000  0.19751000  0.96760000  1
  H  H87  1  0.88670000  0.18951000  0.88648000  1
  H  H88  1  0.78997000  0.22448000  0.91364000  1
  H  H89  1  0.89883000  0.70682000  0.18450000  1
  H  H90  1  0.80615000  0.70547000  0.19770000  1
  H  H91  1  0.68709000  0.75826000  0.13897000  1
  H  H92  1  0.78367000  0.69970000  0.13504000  1
  H  H93  1  0.61388000  0.82530000  0.09846000  1
  H  H94  1  0.71062000  0.76713000  0.09457000  1
  H  H95  1  0.65599000  0.02256000  0.03840000  1
  H  H96  1  0.63982000  0.06458000  0.07958000  1
  H  H97  1  0.75888000  0.01179000  0.13830000  1
  H  H98  1  0.77114000  0.02968000  0.08785000  1
  H  H99  1  0.83207000  0.94474000  0.17881000  1
  H  H100  1  0.84419000  0.96225000  0.12834000  1
  H  H101  1  0.01572000  0.88883000  0.17226000  1
  H  H102  1  0.01489000  0.96395000  0.18033000  1
  H  H103  1  0.12646000  0.02939000  0.12079000  1
  H  H104  1  0.05810000  0.00295000  0.11466000  1
  H  H105  1  0.23404000  0.03942000  0.08417000  1
  H  H106  1  0.16604000  0.01248000  0.07813000  1
  H  H107  1  0.47765000  0.84055000  0.05085000  1
  H  H108  1  0.49219000  0.80611000  0.09719000  1
  H  H109  1  0.38062000  0.74068000  0.15672000  1
  H  H110  1  0.43527000  0.72646000  0.10844000  1
  H  H111  1  0.27303000  0.73067000  0.19334000  1
  H  H112  1  0.32733000  0.71691000  0.14498000  1
  C  C1  1  0.38167000  0.55914000  0.44086000  1
  C  C2  1  0.59175000  0.36234000  0.45412000  1
  C  C3  1  0.38168000  0.44085000  0.55916000  1
  C  C4  1  0.61833000  0.44086000  0.55914000  1
  C  C5  1  0.40825000  0.63766000  0.54588000  1
  C  C6  1  0.61832000  0.55915000  0.44084000  1
  C  C7  1  0.11839000  0.30919000  0.69083000  1
  C  C8  1  0.90840000  0.38763000  0.79590000  1
  C  C9  1  0.11854000  0.19085000  0.80911000  1
  C  C10  1  0.88188000  0.19080000  0.80919000  1
  C  C11  1  0.09187000  0.11235000  0.70411000  1
  C  C12  1  0.88173000  0.30914000  0.69090000  1
  C  C13  1  0.88167000  0.69079000  0.30920000  1
  C  C14  1  0.09183000  0.61226000  0.20421000  1
  C  C15  1  0.11829000  0.69080000  0.30925000  1
  C  C16  1  0.11840000  0.80906000  0.19095000  1
  C  C17  1  0.90824000  0.88759000  0.29594000  1
  C  C18  1  0.88178000  0.80906000  0.19090000  1
  C  C19  1  0.61865000  0.94080000  0.05918000  1
  C  C20  1  0.40842000  0.13753000  0.04600000  1
  C  C21  1  0.38202000  0.94065000  0.05929000  1
  C  C22  1  0.38174000  0.05901000  0.94102000  1
  C  C23  1  0.59197000  0.86227000  0.95419000  1
  C  C24  1  0.61837000  0.05916000  0.94090000  1
  C  C25  1  0.12815000  0.05792000  0.68596000  1
  C  C26  1  0.09033000  0.02962000  0.67654000  1
  C  C27  1  0.12622000  0.97552000  0.65851000  1
  C  C28  1  0.20133000  0.94812000  0.64935000  1
  C  C29  1  0.23990000  0.97554000  0.65848000  1
  C  C30  1  0.20368000  0.02963000  0.67651000  1
  C  C31  1  0.23474000  0.89798000  0.63264000  1
  C  C32  1  0.26535000  0.85205000  0.61733000  1
  C  C33  1  0.29877000  0.80191000  0.60062000  1
  C  C34  1  0.26021000  0.77450000  0.59148000  1
  C  C35  1  0.29643000  0.72040000  0.57345000  1
  C  C36  1  0.37196000  0.69210000  0.56402000  1
  C  C37  1  0.40977000  0.72040000  0.57344000  1
  C  C38  1  0.37388000  0.77450000  0.59148000  1
  C  C39  1  0.87194000  0.94204000  0.31408000  1
  C  C40  1  0.85309000  0.99866000  0.29518000  1
  C  C41  1  0.81702000  0.05285000  0.31312000  1
  C  C42  1  0.79872000  0.05186000  0.35067000  1
  C  C43  1  0.81698000  0.99604000  0.36995000  1
  C  C44  1  0.85306000  0.94202000  0.35184000  1
  C  C45  1  0.76530000  0.10200000  0.36737000  1
  C  C46  1  0.73467000  0.14795000  0.38268000  1
  C  C47  1  0.70124000  0.19808000  0.39939000  1
  C  C48  1  0.68296000  0.25391000  0.38011000  1
  C  C49  1  0.64690000  0.30793000  0.39823000  1
  C  C50  1  0.62804000  0.30790000  0.43598000  1
  C  C51  1  0.64691000  0.25128000  0.45488000  1
  C  C52  1  0.68297000  0.19709000  0.43694000  1
  C  C53  1  0.23764000  0.31053000  0.65403000  1
  C  C54  1  0.12410000  0.39319000  0.65615000  1
  C  C55  1  0.15392000  0.42964000  0.63279000  1
  C  C56  1  0.22892000  0.40478000  0.61974000  1
  C  C57  1  0.26240000  0.43952000  0.59594000  1
  C  C58  1  0.37594000  0.35686000  0.59382000  1
  C  C59  1  0.34612000  0.32041000  0.61718000  1
  C  C60  1  0.27112000  0.34527000  0.63023000  1
  C  C61  1  0.16725000  0.33364000  0.66637000  1
  C  C62  1  0.33280000  0.41641000  0.58360000  1
  C  C63  1  0.79781000  0.63629000  0.32825000  1
  C  C64  1  0.82658000  0.68081000  0.36851000  1
  C  C65  1  0.78366000  0.66401000  0.39841000  1
  C  C66  1  0.74657000  0.63199000  0.39252000  1
  C  C67  1  0.70215000  0.61367000  0.42178000  1
  C  C68  1  0.67338000  0.56915000  0.38152000  1
  C  C69  1  0.71630000  0.58595000  0.35162000  1
  C  C70  1  0.75339000  0.61797000  0.35751000  1
  C  C71  1  0.83275000  0.66636000  0.33363000  1
  C  C72  1  0.66721000  0.58360000  0.41640000  1
  C  C73  1  0.23760000  0.63625000  0.32829000  1
  C  C74  1  0.12407000  0.68076000  0.36856000  1
  C  C75  1  0.15390000  0.66396000  0.39846000  1
  C  C76  1  0.22890000  0.63195000  0.39255000  1
  C  C77  1  0.26238000  0.61364000  0.42181000  1
  C  C78  1  0.37592000  0.56913000  0.38154000  1
  C  C79  1  0.34609000  0.58592000  0.35164000  1
  C  C80  1  0.27109000  0.61794000  0.35755000  1
  C  C81  1  0.16721000  0.66631000  0.33368000  1
  C  C82  1  0.33278000  0.58357000  0.41642000  1
  C  C83  1  0.80811000  0.38660000  0.64886000  1
  C  C84  1  0.81234000  0.28745000  0.66324000  1
  C  C85  1  0.76562000  0.29580000  0.64179000  1
  C  C86  1  0.73950000  0.35225000  0.62325000  1
  C  C87  1  0.69191000  0.36351000  0.60104000  1
  C  C88  1  0.68768000  0.46267000  0.58666000  1
  C  C89  1  0.73440000  0.45432000  0.60812000  1
  C  C90  1  0.76051000  0.39786000  0.62665000  1
  C  C91  1  0.83279000  0.33369000  0.66632000  1
  C  C92  1  0.66723000  0.41643000  0.58358000  1
  C  C93  1  0.62827000  0.80784000  0.93604000  1
  C  C94  1  0.64707000  0.80789000  0.89828000  1
  C  C95  1  0.68314000  0.75389000  0.88016000  1
  C  C96  1  0.70147000  0.69805000  0.89942000  1
  C  C97  1  0.68325000  0.69703000  0.93697000  1
  C  C98  1  0.64719000  0.75121000  0.95493000  1
  C  C99  1  0.73489000  0.64792000  0.88270000  1
  C  C100  1  0.76551000  0.60200000  0.86738000  1
  C  C101  1  0.79893000  0.55186000  0.85066000  1
  C  C102  1  0.81717000  0.55287000  0.81312000  1
  C  C103  1  0.85323000  0.49870000  0.79516000  1
  C  C104  1  0.87212000  0.44207000  0.81405000  1
  C  C105  1  0.85330000  0.44202000  0.85181000  1
  C  C106  1  0.81724000  0.49603000  0.86993000  1
  C  C107  1  0.26274000  0.11372000  0.92163000  1
  C  C108  1  0.37625000  0.06924000  0.88133000  1
  C  C109  1  0.34639000  0.08604000  0.85145000  1
  C  C110  1  0.27138000  0.11804000  0.85737000  1
  C  C111  1  0.23786000  0.13636000  0.82812000  1
  C  C112  1  0.12436000  0.18084000  0.86842000  1
  C  C113  1  0.15422000  0.16404000  0.89831000  1
  C  C114  1  0.22922000  0.13204000  0.89238000  1
  C  C115  1  0.33314000  0.08366000  0.91622000  1
  C  C116  1  0.16747000  0.16641000  0.83353000  1
  C  C117  1  0.69220000  0.08327000  0.88125000  1
  C  C118  1  0.68804000  0.11128000  0.93800000  1
  C  C119  1  0.73473000  0.13930000  0.92308000  1
  C  C120  1  0.76080000  0.13889000  0.88558000  1
  C  C121  1  0.80838000  0.16659000  0.86883000  1
  C  C122  1  0.81254000  0.13858000  0.81208000  1
  C  C123  1  0.76585000  0.11056000  0.82700000  1
  C  C124  1  0.73978000  0.11097000  0.86450000  1
  C  C125  1  0.66756000  0.08352000  0.91644000  1
  C  C126  1  0.83302000  0.16634000  0.83364000  1
  C  C127  1  0.37211000  0.19197000  0.06415000  1
  C  C128  1  0.29658000  0.22027000  0.07356000  1
  C  C129  1  0.26033000  0.27437000  0.09159000  1
  C  C130  1  0.29887000  0.30178000  0.10075000  1
  C  C131  1  0.37398000  0.27437000  0.09163000  1
  C  C132  1  0.40990000  0.22026000  0.07360000  1
  C  C133  1  0.26543000  0.35192000  0.11746000  1
  C  C134  1  0.23479000  0.39786000  0.13277000  1
  C  C135  1  0.20136000  0.44800000  0.14948000  1
  C  C136  1  0.12625000  0.47541000  0.15860000  1
  C  C137  1  0.09034000  0.52951000  0.17663000  1
  C  C138  1  0.12813000  0.55781000  0.18607000  1
  C  C139  1  0.20366000  0.52952000  0.17665000  1
  C  C140  1  0.23990000  0.47541000  0.15863000  1
  C  C141  1  0.69212000  0.86331000  0.10111000  1
  C  C142  1  0.68791000  0.96246000  0.08674000  1
  C  C143  1  0.73460000  0.95411000  0.10821000  1
  C  C144  1  0.76069000  0.89766000  0.12675000  1
  C  C145  1  0.80826000  0.88640000  0.14897000  1
  C  C146  1  0.81247000  0.78725000  0.16335000  1
  C  C147  1  0.76578000  0.79560000  0.14188000  1
  C  C148  1  0.73969000  0.85205000  0.12333000  1
  C  C149  1  0.66746000  0.91622000  0.08364000  1
  C  C150  1  0.83292000  0.83349000  0.16644000  1
  C  C151  1  0.26252000  0.93936000  0.09612000  1
  C  C152  1  0.37604000  0.85670000  0.09403000  1
  C  C153  1  0.34621000  0.82025000  0.11737000  1
  C  C154  1  0.27120000  0.84512000  0.13041000  1
  C  C155  1  0.23770000  0.81039000  0.15419000  1
  C  C156  1  0.12417000  0.89304000  0.15629000  1
  C  C157  1  0.15401000  0.92949000  0.13294000  1
  C  C158  1  0.22902000  0.90463000  0.11990000  1
  C  C159  1  0.33292000  0.91624000  0.08379000  1
  C  C160  1  0.16730000  0.83350000  0.16652000  1
  Br  Br1  1  0.35053000  0.93708000  0.64563000  1
  Br  Br2  1  0.06686000  0.93704000  0.64570000  1
  Br  Br3  1  0.43323000  0.81297000  0.60429000  1
  Br  Br4  1  0.14957000  0.81297000  0.60431000  1
  Br  Br5  1  0.79131000  0.99204000  0.42526000  1
  Br  Br6  1  0.79139000  0.13380000  0.28345000  1
  Br  Br7  1  0.70862000  0.11614000  0.46660000  1
  Br  Br8  1  0.70860000  0.25792000  0.32480000  1
  Br  Br9  1  0.70899000  0.61606000  0.96662000  1
  Br  Br10  1  0.70870000  0.75793000  0.82485000  1
  Br  Br11  1  0.79165000  0.49200000  0.92524000  1
  Br  Br12  1  0.79148000  0.63384000  0.78346000  1
  Br  Br13  1  0.43330000  0.31283000  0.10449000  1
  Br  Br14  1  0.14970000  0.31284000  0.10438000  1
  Br  Br15  1  0.35054000  0.43695000  0.14582000  1
  Br  Br16  1  0.06692000  0.43693000  0.14576000  1
  N  N1  1  0.45555000  0.33248000  0.57918000  1
  N  N2  1  0.39128000  0.25702000  0.62829000  1
  N  N3  1  0.28334000  0.24720000  0.66495000  1
  N  N4  1  0.04450000  0.41758000  0.67079000  1
  N  N5  1  0.10876000  0.49302000  0.62168000  1
  N  N6  1  0.21671000  0.50285000  0.58502000  1
  N  N7  1  0.63279000  0.53499000  0.37666000  1
  N  N8  1  0.72341000  0.57092000  0.31437000  1
  N  N9  1  0.80452000  0.62099000  0.29113000  1
  N  N10  1  0.86717000  0.71496000  0.37338000  1
  N  N11  1  0.77657000  0.67903000  0.43566000  1
  N  N12  1  0.69544000  0.62896000  0.45890000  1
  N  N13  1  0.45552000  0.53497000  0.37667000  1
  N  N14  1  0.39124000  0.57090000  0.31439000  1
  N  N15  1  0.28330000  0.62099000  0.29116000  1
  N  N16  1  0.04446000  0.71492000  0.37344000  1
  N  N17  1  0.10874000  0.67900000  0.43570000  1
  N  N18  1  0.21669000  0.62890000  0.45894000  1
  N  N19  1  0.65839000  0.52198000  0.56638000  1
  N  N20  1  0.75664000  0.50304000  0.61167000  1
  N  N21  1  0.82999000  0.43565000  0.65220000  1
  N  N22  1  0.84163000  0.22813000  0.68352000  1
  N  N23  1  0.74339000  0.24708000  0.63823000  1
  N  N24  1  0.67002000  0.31446000  0.59770000  1
  N  N25  1  0.04474000  0.21498000  0.87331000  1
  N  N26  1  0.10910000  0.17905000  0.93556000  1
  N  N27  1  0.21708000  0.12899000  0.95876000  1
  N  N28  1  0.45586000  0.03510000  0.87643000  1
  N  N29  1  0.39151000  0.07104000  0.81419000  1
  N  N30  1  0.28352000  0.12109000  0.79099000  1
  N  N31  1  0.84179000  0.13937000  0.77228000  1
  N  N32  1  0.74358000  0.08086000  0.80444000  1
  N  N33  1  0.67030000  0.05373000  0.85841000  1
  N  N34  1  0.65879000  0.11051000  0.97780000  1
  N  N35  1  0.75698000  0.16901000  0.94564000  1
  N  N36  1  0.83028000  0.19613000  0.89167000  1
  N  N37  1  0.84173000  0.72795000  0.18364000  1
  N  N38  1  0.74355000  0.74688000  0.13831000  1
  N  N39  1  0.67028000  0.81425000  0.09775000  1
  N  N40  1  0.65866000  0.02177000  0.06645000  1
  N  N41  1  0.75683000  0.00283000  0.11177000  1
  N  N42  1  0.83010000  0.93546000  0.15234000  1
  N  N43  1  0.04456000  0.91743000  0.17092000  1
  N  N44  1  0.10887000  0.99288000  0.12182000  1
  N  N45  1  0.21683000  0.00268000  0.08517000  1
  N  N46  1  0.45566000  0.83230000  0.07940000  1
  N  N47  1  0.39135000  0.75687000  0.12849000  1
  N  N48  1  0.28339000  0.74706000  0.16514000  1
  O  O1  1  0.50000000  0.50000000  0.50000000  1
  O  O2  1  0.35271000  0.56752000  0.47469000  1
  O  O3  1  0.57675000  0.41206000  0.43442000  1
  O  O4  1  0.44935000  0.40526000  0.55253000  1
  O  O5  1  0.44933000  0.53141000  0.42638000  1
  O  O6  1  0.35272000  0.49578000  0.54643000  1
  O  O7  1  0.57675000  0.35765000  0.48883000  1
  O  O8  1  0.59287000  0.40527000  0.55252000  1
  O  O9  1  0.47768000  0.61515000  0.53837000  1
  O  O10  1  0.60509000  0.49580000  0.54641000  1
  O  O11  1  0.36883000  0.61514000  0.53838000  1
  O  O12  1  0.59286000  0.53142000  0.42637000  1
  O  O13  1  0.60508000  0.56754000  0.47467000  1
  O  O14  1  0.00013000  0.24999000  0.75001000  1
  O  O15  1  0.14737000  0.25425000  0.70354000  1
  O  O16  1  0.92337000  0.39234000  0.76119000  1
  O  O17  1  0.05088000  0.21857000  0.82361000  1
  O  O18  1  0.05072000  0.34476000  0.69747000  1
  O  O19  1  0.14747000  0.18248000  0.77528000  1
  O  O20  1  0.92344000  0.33791000  0.81560000  1
  O  O21  1  0.90735000  0.21853000  0.82365000  1
  O  O22  1  0.02244000  0.13485000  0.71164000  1
  O  O23  1  0.89509000  0.18243000  0.77536000  1
  O  O24  1  0.13129000  0.13488000  0.71160000  1
  O  O25  1  0.90719000  0.34473000  0.69752000  1
  O  O26  1  0.89499000  0.25420000  0.70363000  1
  O  O27  1  0.00003000  0.74993000  0.25008000  1
  O  O28  1  0.90711000  0.71852000  0.32369000  1
  O  O29  1  0.02240000  0.63477000  0.21170000  1
  O  O30  1  0.14728000  0.68241000  0.27543000  1
  O  O31  1  0.89494000  0.68240000  0.27537000  1
  O  O32  1  0.05062000  0.71853000  0.32372000  1
  O  O33  1  0.13123000  0.63477000  0.21172000  1
  O  O34  1  0.14734000  0.75413000  0.20368000  1
  O  O35  1  0.92328000  0.89228000  0.26123000  1
  O  O36  1  0.05073000  0.84465000  0.19756000  1
  O  O37  1  0.92323000  0.83788000  0.31565000  1
  O  O38  1  0.89501000  0.75413000  0.20362000  1
  O  O39  1  0.90723000  0.84465000  0.19753000  1
  O  O40  1  0.50020000  0.99990000  0.00010000  1
  O  O41  1  0.59321000  0.90519000  0.05257000  1
  O  O42  1  0.47785000  0.11506000  0.03847000  1
  O  O43  1  0.35300000  0.99558000  0.04658000  1
  O  O44  1  0.60535000  0.99575000  0.04646000  1
  O  O45  1  0.44969000  0.90510000  0.05264000  1
  O  O46  1  0.36901000  0.11499000  0.03852000  1
  O  O47  1  0.35283000  0.06736000  0.97485000  1
  O  O48  1  0.57690000  0.91200000  0.93450000  1
  O  O49  1  0.44940000  0.03131000  0.92651000  1
  O  O50  1  0.57703000  0.85756000  0.98890000  1
  O  O51  1  0.60518000  0.06753000  0.97473000  1
  O  O52  1  0.59291000  0.03141000  0.92644000  1
