# generated using pymatgen
data_CuH11C13N13O
_symmetry_space_group_name_H-M   'P 1'
_cell_length_a   13.29130000
_cell_length_b   19.68640000
_cell_length_c   7.05280000
_cell_angle_alpha   82.55880000
_cell_angle_beta   105.38600000
_cell_angle_gamma   67.22500000
_symmetry_Int_Tables_number   1
_chemical_formula_structural   CuH11C13N13O
_chemical_formula_sum   'Cu2 H22 C26 N26 O2'
_cell_volume   1583.59483525
_cell_formula_units_Z   2
loop_
 _symmetry_equiv_pos_site_id
 _symmetry_equiv_pos_as_xyz
  1  'x, y, z'
loop_
 _atom_site_type_symbol
 _atom_site_label
 _atom_site_symmetry_multiplicity
 _atom_site_fract_x
 _atom_site_fract_y
 _atom_site_fract_z
 _atom_site_occupancy
  Cu  Cu1  1  0.50000000  0.50000000  0.00000000  1
  Cu  Cu2  1  0.50000000  0.50000000  0.50000000  1
  H  H1  1  0.11279000  0.59622000  0.76101000  1
  H  H2  1  0.97195000  0.67963000  0.86747000  1
  H  H3  1  0.75808000  0.59651000  0.58355000  1
  H  H4  1  0.78724000  0.67977000  0.77506000  1
  H  H5  1  0.44261000  0.29960000  0.91489000  1
  H  H6  1  0.55677000  0.20377000  0.90943000  1
  H  H7  1  0.55699000  0.02797000  0.07280000  1
  H  H8  1  0.44283000  0.12344000  0.88227000  1
  H  H9  1  0.55669000  0.26650000  0.74170000  1
  H  H10  1  0.44269000  0.23658000  0.79256000  1
  H  H11  1  0.44291000  0.06095000  0.75647000  1
  H  H12  1  0.55691000  0.09054000  0.90147000  1
  H  H13  1  0.55710000  0.93906000  0.99616000  1
  H  H14  1  0.44309000  0.90952000  0.04877000  1
  H  H15  1  0.44331000  0.73337000  0.01615000  1
  H  H16  1  0.55731000  0.76326000  0.15953000  1
  H  H17  1  0.44301000  0.97202000  0.17457000  1
  H  H18  1  0.55717000  0.87650000  0.16749000  1
  H  H19  1  0.55739000  0.70053000  0.32726000  1
  H  H20  1  0.44323000  0.79638000  0.13848000  1
  H  H21  1  0.86857000  0.40720000  0.23689000  1
  H  H22  1  0.25600000  0.40689000  0.43073000  1
  C  C1  1  0.78423000  0.50017000  0.39205000  1
  C  C2  1  0.49962000  0.31344000  0.31725000  1
  C  C3  1  0.21577000  0.49983000  0.60795000  1
  C  C4  1  0.50038000  0.68656000  0.68275000  1
  C  C5  1  0.49971000  0.23695000  0.34494000  1
  C  C6  1  0.49976000  0.20000000  0.53009000  1
  C  C7  1  0.49984000  0.12816000  0.55564000  1
  C  C8  1  0.49989000  0.09182000  0.39683000  1
  C  C9  1  0.49984000  0.12826000  0.21265000  1
  C  C10  1  0.49976000  0.20006000  0.18645000  1
  C  C11  1  0.50016000  0.87174000  0.78736000  1
  C  C12  1  0.50011000  0.90818000  0.60317000  1
  C  C13  1  0.50016000  0.87184000  0.44436000  1
  C  C14  1  0.50024000  0.80001000  0.46991000  1
  C  C15  1  0.50029000  0.76304000  0.65506000  1
  C  C16  1  0.50025000  0.79994000  0.81355000  1
  C  C17  1  0.10184000  0.49992000  0.55095000  1
  C  C18  1  0.01529000  0.54937000  0.61254000  1
  C  C19  1  0.08150000  0.45055000  0.43588000  1
  C  C20  1  0.03942000  0.59758000  0.72707000  1
  C  C21  1  0.95572000  0.64760000  0.79130000  1
  C  C22  1  0.89817000  0.50008000  0.44905000  1
  C  C23  1  0.98471000  0.45063000  0.38746000  1
  C  C24  1  0.91850000  0.54945000  0.56412000  1
  C  C25  1  0.82970000  0.59775000  0.62215000  1
  C  C26  1  0.84642000  0.64769000  0.73662000  1
  N  N1  1  0.63063000  0.49933000  0.22175000  1
  N  N2  1  0.72659000  0.50022000  0.20611000  1
  N  N3  1  0.50096000  0.41426000  0.37528000  1
  N  N4  1  0.49957000  0.35128000  0.46065000  1
  N  N5  1  0.36938000  0.50067000  0.59065000  1
  N  N6  1  0.27341000  0.49978000  0.47969000  1
  N  N7  1  0.49904000  0.58574000  0.81233000  1
  N  N8  1  0.50043000  0.64872000  0.85355000  1
  N  N9  1  0.36938000  0.50067000  0.77825000  1
  N  N10  1  0.27341000  0.49978000  0.79389000  1
  N  N11  1  0.49904000  0.58574000  0.62473000  1
  N  N12  1  0.50043000  0.64872000  0.53935000  1
  N  N13  1  0.63063000  0.49933000  0.40935000  1
  N  N14  1  0.72659000  0.50022000  0.52031000  1
  N  N15  1  0.50096000  0.41426000  0.18768000  1
  N  N16  1  0.49957000  0.35128000  0.14645000  1
  N  N17  1  0.49998000  0.01824000  0.41840000  1
  N  N18  1  0.50002000  0.98176000  0.58160000  1
  N  N19  1  0.49971000  0.23781000  0.98588000  1
  N  N20  1  0.49989000  0.08983000  0.04072000  1
  N  N21  1  0.49971000  0.23769000  0.70342000  1
  N  N22  1  0.49989000  0.08983000  0.75551000  1
  N  N23  1  0.50011000  0.91017000  0.95928000  1
  N  N24  1  0.50029000  0.76219000  0.01412000  1
  N  N25  1  0.50011000  0.91017000  0.24449000  1
  N  N26  1  0.50029000  0.76231000  0.29658000  1
  O  O1  1  0.95943000  0.39833000  0.26368000  1
  O  O2  1  0.17693000  0.39816000  0.37249000  1
