# generated using pymatgen
data_CuH3C8N9O2
_symmetry_space_group_name_H-M   'P 1'
_cell_length_a   25.94420000
_cell_length_b   13.71410000
_cell_length_c   7.05280000
_cell_angle_alpha   90.00000000
_cell_angle_beta   90.00000000
_cell_angle_gamma   58.08920000
_symmetry_Int_Tables_number   1
_chemical_formula_structural   CuH3C8N9O2
_chemical_formula_sum   'Cu4 H12 C32 N36 O8'
_cell_volume   2130.15597922
_cell_formula_units_Z   4
loop_
 _symmetry_equiv_pos_site_id
 _symmetry_equiv_pos_as_xyz
  1  'x, y, z'
loop_
 _atom_site_type_symbol
 _atom_site_label
 _atom_site_symmetry_multiplicity
 _atom_site_fract_x
 _atom_site_fract_y
 _atom_site_fract_z
 _atom_site_occupancy
  Cu  Cu1  1  0.50000000  0.50000000  0.00000000  1
  Cu  Cu2  1  0.50000000  0.50000000  0.50000000  1
  Cu  Cu3  1  0.00000000  0.50000000  0.00000000  1
  Cu  Cu4  1  0.00000000  0.50000000  0.50000000  1
  H  H1  1  0.79528000  0.50011000  0.03795000  1
  H  H2  1  0.79528000  0.50011000  0.46205000  1
  H  H3  1  0.70473000  0.49989000  0.03795000  1
  H  H4  1  0.20473000  0.49989000  0.53795000  1
  H  H5  1  0.20473000  0.49989000  0.96205000  1
  H  H6  1  0.29528000  0.50011000  0.53795000  1
  H  H7  1  0.79527000  0.90934000  0.53795000  1
  H  H8  1  0.79527000  0.90934000  0.96205000  1
  H  H9  1  0.70473000  0.09066000  0.53795000  1
  H  H10  1  0.20473000  0.09066000  0.46205000  1
  H  H11  1  0.20473000  0.09066000  0.03795000  1
  H  H12  1  0.29528000  0.90934000  0.46205000  1
  C  C1  1  0.64053000  0.21921000  0.25000000  1
  C  C2  1  0.35948000  0.50026000  0.25000000  1
  C  C3  1  0.35947000  0.78078000  0.75000000  1
  C  C4  1  0.64053000  0.49973000  0.75000000  1
  C  C5  1  0.85948000  0.78078000  0.25000000  1
  C  C6  1  0.14052000  0.49973000  0.25000000  1
  C  C7  1  0.14053000  0.21921000  0.75000000  1
  C  C8  1  0.85948000  0.50026000  0.75000000  1
  C  C9  1  0.69605000  0.49987000  0.75000000  1
  C  C10  1  0.80395000  0.50013000  0.75000000  1
  C  C11  1  0.72321000  0.49993000  0.57994000  1
  C  C12  1  0.77679000  0.50006000  0.92006000  1
  C  C13  1  0.77679000  0.50006000  0.57994000  1
  C  C14  1  0.72321000  0.49993000  0.92006000  1
  C  C15  1  0.30395000  0.50013000  0.25000000  1
  C  C16  1  0.19605000  0.49987000  0.25000000  1
  C  C17  1  0.27679000  0.50006000  0.07994000  1
  C  C18  1  0.22321000  0.49993000  0.42006000  1
  C  C19  1  0.22321000  0.49993000  0.07994000  1
  C  C20  1  0.27679000  0.50006000  0.42006000  1
  C  C21  1  0.69605000  0.10803000  0.25000000  1
  C  C22  1  0.80395000  0.89197000  0.25000000  1
  C  C23  1  0.72321000  0.05364000  0.07994000  1
  C  C24  1  0.77679000  0.94635000  0.42006000  1
  C  C25  1  0.77679000  0.94635000  0.07994000  1
  C  C26  1  0.72321000  0.05364000  0.42006000  1
  C  C27  1  0.30395000  0.89197000  0.75000000  1
  C  C28  1  0.19605000  0.10803000  0.75000000  1
  C  C29  1  0.27679000  0.94635000  0.92006000  1
  C  C30  1  0.22321000  0.05364000  0.57994000  1
  C  C31  1  0.22321000  0.05364000  0.92006000  1
  C  C32  1  0.27679000  0.94635000  0.57994000  1
  N  N1  1  0.56402000  0.37096000  0.15620000  1
  N  N2  1  0.61209000  0.27616000  0.09290000  1
  N  N3  1  0.43598000  0.49900000  0.34380000  1
  N  N4  1  0.38791000  0.50033000  0.40710000  1
  N  N5  1  0.43598000  0.62904000  0.65620000  1
  N  N6  1  0.38791000  0.72384000  0.59290000  1
  N  N7  1  0.56402000  0.50100000  0.84380000  1
  N  N8  1  0.61209000  0.49966000  0.90710000  1
  N  N9  1  0.43598000  0.62904000  0.84380000  1
  N  N10  1  0.38791000  0.72384000  0.90710000  1
  N  N11  1  0.56402000  0.50100000  0.65620000  1
  N  N12  1  0.61209000  0.49966000  0.59290000  1
  N  N13  1  0.56402000  0.37096000  0.34380000  1
  N  N14  1  0.61209000  0.27616000  0.40710000  1
  N  N15  1  0.43598000  0.49900000  0.15620000  1
  N  N16  1  0.38791000  0.50033000  0.09290000  1
  N  N17  1  0.93598000  0.62904000  0.15620000  1
  N  N18  1  0.88791000  0.72384000  0.09290000  1
  N  N19  1  0.06402000  0.50100000  0.34380000  1
  N  N20  1  0.11209000  0.49966000  0.40710000  1
  N  N21  1  0.06402000  0.37096000  0.65620000  1
  N  N22  1  0.11209000  0.27616000  0.59290000  1
  N  N23  1  0.93598000  0.49900000  0.84380000  1
  N  N24  1  0.88791000  0.50033000  0.90710000  1
  N  N25  1  0.06402000  0.37096000  0.84380000  1
  N  N26  1  0.11209000  0.27616000  0.90710000  1
  N  N27  1  0.93598000  0.49900000  0.65620000  1
  N  N28  1  0.88791000  0.50033000  0.59290000  1
  N  N29  1  0.93598000  0.62904000  0.34380000  1
  N  N30  1  0.88791000  0.72384000  0.40710000  1
  N  N31  1  0.06402000  0.50100000  0.15620000  1
  N  N32  1  0.11209000  0.49966000  0.09290000  1
  N  N33  1  0.69410000  0.49986000  0.39430000  1
  N  N34  1  0.30590000  0.50013000  0.89430000  1
  N  N35  1  0.69410000  0.11193000  0.89430000  1
  N  N36  1  0.30590000  0.88806000  0.10570000  1
  O  O1  1  0.66966000  0.42465000  0.37009000  1
  O  O2  1  0.69012000  0.57501000  0.23728000  1
  O  O3  1  0.33034000  0.57535000  0.87009000  1
  O  O4  1  0.30988000  0.42499000  0.73728000  1
  O  O5  1  0.62762000  0.16991000  0.87009000  1
  O  O6  1  0.73216000  0.11087000  0.73728000  1
  O  O7  1  0.33034000  0.76397000  0.12992000  1
  O  O8  1  0.30988000  0.95525000  0.26272000  1
