# generated using pymatgen
data_CuH10C19Br2(NO4)2
_symmetry_space_group_name_H-M   'P 1'
_cell_length_a   31.21260000
_cell_length_b   21.12580000
_cell_length_c   21.12490000
_cell_angle_alpha   119.91500000
_cell_angle_beta   44.97520000
_cell_angle_gamma   135.02700000
_symmetry_Int_Tables_number   1
_chemical_formula_structural   CuH10C19Br2(NO4)2
_chemical_formula_sum   'Cu4 H40 C76 Br8 N8 O32'
_cell_volume   6958.44718483
_cell_formula_units_Z   4
loop_
 _symmetry_equiv_pos_site_id
 _symmetry_equiv_pos_as_xyz
  1  'x, y, z'
loop_
 _atom_site_type_symbol
 _atom_site_label
 _atom_site_symmetry_multiplicity
 _atom_site_fract_x
 _atom_site_fract_y
 _atom_site_fract_z
 _atom_site_occupancy
  Cu  Cu1  1  0.46293000  0.50378000  0.49621000  1
  Cu  Cu2  1  0.53708000  0.49622000  0.50378000  1
  Cu  Cu3  1  0.03707000  0.49622000  0.50378000  1
  Cu  Cu4  1  0.96293000  0.50378000  0.49622000  1
  H  H1  1  0.22180000  0.06908000  0.49416000  1
  H  H2  1  0.27821000  0.93092000  0.50582000  1
  H  H3  1  0.08042000  0.78536000  0.49413000  1
  H  H4  1  0.15881000  0.94307000  0.49413000  1
  H  H5  1  0.41959000  0.21465000  0.50585000  1
  H  H6  1  0.34120000  0.05694000  0.50585000  1
  H  H7  1  0.65886000  0.94308000  0.49406000  1
  H  H8  1  0.84119000  0.05693000  0.50589000  1
  H  H9  1  0.80110000  0.22672000  0.49416000  1
  H  H10  1  0.72186000  0.06909000  0.49409000  1
  H  H11  1  0.69895000  0.77329000  0.50579000  1
  H  H12  1  0.77820000  0.93091000  0.50586000  1
  H  H13  1  0.65880000  0.50584000  0.05692000  1
  H  H14  1  0.84121000  0.49417000  0.94308000  1
  H  H15  1  0.80104000  0.50574000  0.77328000  1
  H  H16  1  0.72180000  0.50582000  0.93090000  1
  H  H17  1  0.69897000  0.49428000  0.22671000  1
  H  H18  1  0.77821000  0.49420000  0.06909000  1
  H  H19  1  0.22200000  0.50619000  0.93092000  1
  H  H20  1  0.27836000  0.49442000  0.06908000  1
  H  H21  1  0.08075000  0.50648000  0.21464000  1
  H  H22  1  0.15907000  0.50634000  0.05693000  1
  H  H23  1  0.41960000  0.49413000  0.78535000  1
  H  H24  1  0.34128000  0.49427000  0.94306000  1
  H  H25  1  0.05110000  0.61702000  0.38298000  1
  H  H26  1  0.90235000  0.63114000  0.36885000  1
  H  H27  1  0.82917000  0.39516000  0.60485000  1
  H  H28  1  0.68240000  0.41119000  0.58881000  1
  H  H29  1  0.59765000  0.36887000  0.63114000  1
  H  H30  1  0.44891000  0.38299000  0.61702000  1
  H  H31  1  0.81761000  0.58882000  0.41118000  1
  H  H32  1  0.67083000  0.60485000  0.39514000  1
  H  H33  1  0.94891000  0.38299000  0.61702000  1
  H  H34  1  0.09765000  0.36887000  0.63114000  1
  H  H35  1  0.17083000  0.60485000  0.39515000  1
  H  H36  1  0.31761000  0.58882000  0.41118000  1
  H  H37  1  0.40235000  0.63114000  0.36886000  1
  H  H38  1  0.55110000  0.61702000  0.38297000  1
  H  H39  1  0.18240000  0.41119000  0.58881000  1
  H  H40  1  0.32917000  0.39516000  0.60485000  1
  C  C1  1  0.58394000  0.50009000  0.33219000  1
  C  C2  1  0.41607000  0.49992000  0.66780000  1
  C  C3  1  0.41606000  0.33220000  0.50007000  1
  C  C4  1  0.58395000  0.66781000  0.49991000  1
  C  C5  1  0.91605000  0.33220000  0.50009000  1
  C  C6  1  0.08395000  0.66781000  0.49991000  1
  C  C7  1  0.08394000  0.50007000  0.33219000  1
  C  C8  1  0.91607000  0.49993000  0.66780000  1
  C  C9  1  0.82947000  0.45419000  0.54582000  1
  C  C10  1  0.78878000  0.45850000  0.54150000  1
  C  C11  1  0.82555000  0.51803000  0.48197000  1
  C  C12  1  0.90336000  0.57302000  0.42698000  1
  C  C13  1  0.94424000  0.56892000  0.43107000  1
  C  C14  1  0.59665000  0.42699000  0.57301000  1
  C  C15  1  0.67445000  0.48197000  0.51802000  1
  C  C16  1  0.71122000  0.54151000  0.45849000  1
  C  C17  1  0.67054000  0.54582000  0.45418000  1
  C  C18  1  0.55576000  0.43108000  0.56892000  1
  C  C19  1  0.17054000  0.54582000  0.45418000  1
  C  C20  1  0.21122000  0.54151000  0.45849000  1
  C  C21  1  0.17445000  0.48197000  0.51803000  1
  C  C22  1  0.09665000  0.42699000  0.57302000  1
  C  C23  1  0.05576000  0.43108000  0.56892000  1
  C  C24  1  0.40336000  0.57302000  0.42698000  1
  C  C25  1  0.32555000  0.51803000  0.48197000  1
  C  C26  1  0.28879000  0.45850000  0.54150000  1
  C  C27  1  0.32947000  0.45419000  0.54582000  1
  C  C28  1  0.44425000  0.56892000  0.43107000  1
  C  C29  1  0.36785000  0.23575000  0.50005000  1
  C  C30  1  0.13217000  0.76426000  0.49993000  1
  C  C31  1  0.30926000  0.19213000  0.49661000  1
  C  C32  1  0.26203000  0.09833000  0.49655000  1
  C  C33  1  0.19076000  0.80788000  0.50337000  1
  C  C34  1  0.23799000  0.90168000  0.50343000  1
  C  C35  1  0.12074000  0.81500000  0.49651000  1
  C  C36  1  0.16732000  0.90887000  0.49651000  1
  C  C37  1  0.37927000  0.18501000  0.50347000  1
  C  C38  1  0.33269000  0.09114000  0.50347000  1
  C  C39  1  0.27364000  0.04728000  0.50000000  1
  C  C40  1  0.22638000  0.95273000  0.49998000  1
  C  C41  1  0.63217000  0.76426000  0.49993000  1
  C  C42  1  0.86788000  0.23575000  0.50002000  1
  C  C43  1  0.62077000  0.81501000  0.49648000  1
  C  C44  1  0.66735000  0.90887000  0.49647000  1
  C  C45  1  0.87928000  0.18500000  0.50347000  1
  C  C46  1  0.83270000  0.09113000  0.50348000  1
  C  C47  1  0.80930000  0.19213000  0.49655000  1
  C  C48  1  0.76207000  0.09833000  0.49650000  1
  C  C49  1  0.69075000  0.80787000  0.50340000  1
  C  C50  1  0.73798000  0.90168000  0.50345000  1
  C  C51  1  0.72639000  0.95273000  0.49997000  1
  C  C52  1  0.77366000  0.04728000  0.49998000  1
  C  C53  1  0.63216000  0.50006000  0.23574000  1
  C  C54  1  0.86785000  0.49995000  0.76425000  1
  C  C55  1  0.62073000  0.50347000  0.18499000  1
  C  C56  1  0.66732000  0.50348000  0.09112000  1
  C  C57  1  0.87928000  0.49655000  0.81500000  1
  C  C58  1  0.83269000  0.49654000  0.90887000  1
  C  C59  1  0.80926000  0.50338000  0.80786000  1
  C  C60  1  0.76202000  0.50343000  0.90166000  1
  C  C61  1  0.69075000  0.49664000  0.19213000  1
  C  C62  1  0.73799000  0.49658000  0.09833000  1
  C  C63  1  0.72637000  0.50002000  0.04727000  1
  C  C64  1  0.77364000  0.50000000  0.95272000  1
  C  C65  1  0.36790000  0.50003000  0.76425000  1
  C  C66  1  0.13245000  0.50058000  0.23574000  1
  C  C67  1  0.30936000  0.50358000  0.80787000  1
  C  C68  1  0.26218000  0.50372000  0.90167000  1
  C  C69  1  0.19099000  0.49703000  0.19212000  1
  C  C70  1  0.23817000  0.49689000  0.09832000  1
  C  C71  1  0.12104000  0.50402000  0.18500000  1
  C  C72  1  0.16757000  0.50394000  0.09113000  1
  C  C73  1  0.37932000  0.49659000  0.81499000  1
  C  C74  1  0.33278000  0.49667000  0.90886000  1
  C  C75  1  0.27378000  0.50025000  0.95272000  1
  C  C76  1  0.22657000  0.50036000  0.04727000  1
  Br  Br1  1  0.29148000  0.26695000  0.49149000  1
  Br  Br2  1  0.20853000  0.73306000  0.50850000  1
  Br  Br3  1  0.53355000  0.75088000  0.49128000  1
  Br  Br4  1  0.96650000  0.24913000  0.50867000  1
  Br  Br5  1  0.53349000  0.50860000  0.24911000  1
  Br  Br6  1  0.96652000  0.49141000  0.75088000  1
  Br  Br7  1  0.29160000  0.50874000  0.73305000  1
  Br  Br8  1  0.20875000  0.49187000  0.26694000  1
  N  N1  1  0.90784000  0.50940000  0.49060000  1
  N  N2  1  0.78542000  0.52399000  0.47601000  1
  N  N3  1  0.71459000  0.47602000  0.52398000  1
  N  N4  1  0.59217000  0.49060000  0.50940000  1
  N  N5  1  0.09217000  0.49060000  0.50940000  1
  N  N6  1  0.21459000  0.47602000  0.52398000  1
  N  N7  1  0.28542000  0.52399000  0.47601000  1
  N  N8  1  0.40784000  0.50940000  0.49060000  1
  O  O1  1  0.52357000  0.50348000  0.38013000  1
  O  O2  1  0.40704000  0.50332000  0.61304000  1
  O  O3  1  0.40702000  0.38694000  0.49670000  1
  O  O4  1  0.52359000  0.61985000  0.49648000  1
  O  O5  1  0.59297000  0.61307000  0.50333000  1
  O  O6  1  0.47643000  0.38015000  0.50348000  1
  O  O7  1  0.47633000  0.49641000  0.61996000  1
  O  O8  1  0.59298000  0.49672000  0.38695000  1
  O  O9  1  0.97643000  0.38014000  0.50347000  1
  O  O10  1  0.09297000  0.61305000  0.50331000  1
  O  O11  1  0.09298000  0.49670000  0.38694000  1
  O  O12  1  0.97642000  0.49649000  0.61985000  1
  O  O13  1  0.90704000  0.50334000  0.61306000  1
  O  O14  1  0.02357000  0.50348000  0.38015000  1
  O  O15  1  0.02369000  0.61996000  0.49639000  1
  O  O16  1  0.90702000  0.38695000  0.49672000  1
  O  O17  1  0.02811000  0.62915000  0.37085000  1
  O  O18  1  0.94357000  0.63730000  0.36269000  1
  O  O19  1  0.78846000  0.38956000  0.61044000  1
  O  O20  1  0.70489000  0.39862000  0.60139000  1
  O  O21  1  0.55644000  0.36271000  0.63730000  1
  O  O22  1  0.47190000  0.37086000  0.62915000  1
  O  O23  1  0.79511000  0.60139000  0.39860000  1
  O  O24  1  0.71155000  0.61044000  0.38955000  1
  O  O25  1  0.97189000  0.37086000  0.62915000  1
  O  O26  1  0.05644000  0.36271000  0.63730000  1
  O  O27  1  0.21155000  0.61044000  0.38955000  1
  O  O28  1  0.29511000  0.60139000  0.39861000  1
  O  O29  1  0.44357000  0.63730000  0.36269000  1
  O  O30  1  0.52811000  0.62915000  0.37085000  1
  O  O31  1  0.20489000  0.39862000  0.60139000  1
  O  O32  1  0.28846000  0.38957000  0.61044000  1
