# generated using pymatgen
data_Cu2H21C32N5O8
_symmetry_space_group_name_H-M   'P 1'
_cell_length_a   23.53340000
_cell_length_b   10.54320000
_cell_length_c   8.93660000
_cell_angle_alpha   89.99920000
_cell_angle_beta   89.99870000
_cell_angle_gamma   89.89260000
_symmetry_Int_Tables_number   1
_chemical_formula_structural   Cu2H21C32N5O8
_chemical_formula_sum   'Cu4 H42 C64 N10 O16'
_cell_volume   2217.32155010
_cell_formula_units_Z   2
loop_
 _symmetry_equiv_pos_site_id
 _symmetry_equiv_pos_as_xyz
  1  'x, y, z'
loop_
 _atom_site_type_symbol
 _atom_site_label
 _atom_site_symmetry_multiplicity
 _atom_site_fract_x
 _atom_site_fract_y
 _atom_site_fract_z
 _atom_site_occupancy
  Cu  Cu1  1  0.50000000  0.49999000  0.35759000  1
  Cu  Cu2  1  0.50000000  0.49999000  0.64240000  1
  Cu  Cu3  1  0.05199000  0.49928000  0.64245000  1
  Cu  Cu4  1  0.05199000  0.50017000  0.35765000  1
  H  H1  1  0.42821000  0.66033000  0.25419000  1
  H  H2  1  0.36612000  0.79898000  0.13237000  1
  H  H3  1  0.42821000  0.66033000  0.74581000  1
  H  H4  1  0.36612000  0.79898000  0.86763000  1
  H  H5  1  0.56082000  0.36417000  0.87739000  1
  H  H6  1  0.56082000  0.36417000  0.12261000  1
  H  H7  1  0.57191000  0.21508000  0.68862000  1
  H  H8  1  0.63404000  0.11152000  0.85172000  1
  H  H9  1  0.57184000  0.78418000  0.68861000  1
  H  H10  1  0.63400000  0.88712000  0.85172000  1
  H  H11  1  0.43911000  0.89637000  0.34022000  1
  H  H12  1  0.43914000  0.10423000  0.34023000  1
  H  H13  1  0.17966000  0.33987000  0.31094000  1
  H  H14  1  0.22607000  0.20157000  0.14741000  1
  H  H15  1  0.37271000  0.34018000  0.31091000  1
  H  H16  1  0.32661000  0.20173000  0.14739000  1
  H  H17  1  0.32240000  0.63565000  0.66020000  1
  H  H18  1  0.22928000  0.63550000  0.66022000  1
  H  H19  1  0.12355000  0.66236000  0.74656000  1
  H  H20  1  0.18543000  0.80057000  0.86898000  1
  H  H21  1  0.12355000  0.66076000  0.25493000  1
  H  H22  1  0.18543000  0.79974000  0.13372000  1
  H  H23  1  0.99138000  0.36515000  0.12207000  1
  H  H24  1  0.99138000  0.36592000  0.87685000  1
  H  H25  1  0.97903000  0.21548000  0.31454000  1
  H  H26  1  0.91705000  0.11248000  0.15098000  1
  H  H27  1  0.97974000  0.78457000  0.31267000  1
  H  H28  1  0.91742000  0.88809000  0.15001000  1
  H  H29  1  0.11230000  0.89554000  0.66154000  1
  H  H30  1  0.11196000  0.10339000  0.66244000  1
  H  H31  1  0.60388000  0.43714000  0.76204000  1
  H  H32  1  0.64639000  0.56140000  0.87248000  1
  H  H33  1  0.79859000  0.56129000  0.89072000  1
  H  H34  1  0.74161000  0.43678000  0.93672000  1
  H  H35  1  0.89784000  0.56132000  0.80859000  1
  H  H36  1  0.84071000  0.43683000  0.85332000  1
  H  H37  1  0.94820000  0.43776000  0.23769000  1
  H  H38  1  0.90551000  0.56242000  0.12781000  1
  H  H39  1  0.75332000  0.56252000  0.10958000  1
  H  H40  1  0.81049000  0.43811000  0.06306000  1
  H  H41  1  0.65408000  0.56252000  0.19175000  1
  H  H42  1  0.71137000  0.43808000  0.14643000  1
  C  C1  1  0.60658000  0.49977000  0.50000000  1
  C  C2  1  0.39343000  0.50022000  0.50001000  1
  C  C3  1  0.49996000  0.73787000  0.50000000  1
  C  C4  1  0.50005000  0.26211000  0.50001000  1
  C  C5  1  0.94542000  0.49961000  0.50005000  1
  C  C6  1  0.15857000  0.49985000  0.50004000  1
  C  C7  1  0.05168000  0.73760000  0.50108000  1
  C  C8  1  0.05231000  0.26185000  0.49901000  1
  C  C9  1  0.46319000  0.58220000  0.06936000  1
  C  C10  1  0.53681000  0.41779000  0.06936000  1
  C  C11  1  0.42724000  0.66249000  0.15029000  1
  C  C12  1  0.39000000  0.74565000  0.07832000  1
  C  C13  1  0.53681000  0.41779000  0.93063000  1
  C  C14  1  0.46319000  0.58220000  0.93063000  1
  C  C15  1  0.42724000  0.66249000  0.84971000  1
  C  C16  1  0.39000000  0.74565000  0.92168000  1
  C  C17  1  0.50002000  0.12370000  0.50000000  1
  C  C18  1  0.53686000  0.05860000  0.59670000  1
  C  C19  1  0.46317000  0.05897000  0.40330000  1
  C  C20  1  0.57286000  0.12701000  0.69116000  1
  C  C21  1  0.61013000  0.06583000  0.78899000  1
  C  C22  1  0.49998000  0.87628000  0.50000000  1
  C  C23  1  0.46315000  0.94138000  0.40330000  1
  C  C24  1  0.53684000  0.94101000  0.59670000  1
  C  C25  1  0.57282000  0.87224000  0.69116000  1
  C  C26  1  0.61011000  0.93305000  0.78899000  1
  C  C27  1  0.84415000  0.49948000  0.60956000  1
  C  C28  1  0.86538000  0.49988000  0.34765000  1
  C  C29  1  0.80772000  0.49997000  0.30717000  1
  C  C30  1  0.76705000  0.49981000  0.42431000  1
  C  C31  1  0.70785000  0.49989000  0.39049000  1
  C  C32  1  0.68662000  0.49949000  0.65239000  1
  C  C33  1  0.74428000  0.49940000  0.69288000  1
  C  C34  1  0.78495000  0.49956000  0.57574000  1
  C  C35  1  0.88251000  0.49963000  0.50004000  1
  C  C36  1  0.66949000  0.49974000  0.50001000  1
  C  C37  1  0.22057000  0.49994000  0.50003000  1
  C  C38  1  0.24975000  0.41795000  0.40308000  1
  C  C39  1  0.24956000  0.58203000  0.59698000  1
  C  C40  1  0.21911000  0.33777000  0.30838000  1
  C  C41  1  0.24654000  0.25483000  0.21030000  1
  C  C42  1  0.33142000  0.50012000  0.50002000  1
  C  C43  1  0.30224000  0.58211000  0.59697000  1
  C  C44  1  0.30243000  0.41804000  0.40307000  1
  C  C45  1  0.33325000  0.33795000  0.30836000  1
  C  C46  1  0.30602000  0.25492000  0.21029000  1
  C  C47  1  0.08868000  0.58368000  0.93104000  1
  C  C48  1  0.01530000  0.41935000  0.93033000  1
  C  C49  1  0.12452000  0.66420000  0.85047000  1
  C  C50  1  0.16163000  0.74710000  0.92279000  1
  C  C51  1  0.01530000  0.41891000  0.06906000  1
  C  C52  1  0.08868000  0.58325000  0.06977000  1
  C  C53  1  0.12452000  0.66325000  0.15104000  1
  C  C54  1  0.16163000  0.74660000  0.07944000  1
  C  C55  1  0.05105000  0.12343000  0.50275000  1
  C  C56  1  0.01431000  0.05867000  0.40577000  1
  C  C57  1  0.08800000  0.05836000  0.59917000  1
  C  C58  1  0.97821000  0.12741000  0.31161000  1
  C  C59  1  0.94103000  0.06657000  0.21352000  1
  C  C60  1  0.05145000  0.87601000  0.50168000  1
  C  C61  1  0.08819000  0.94077000  0.59867000  1
  C  C62  1  0.01450000  0.94108000  0.40526000  1
  C  C63  1  0.97862000  0.87264000  0.31050000  1
  C  C64  1  0.94125000  0.93380000  0.21294000  1
  N  N1  1  0.50000000  0.49999000  0.14595000  1
  N  N2  1  0.50000000  0.49999000  0.85404000  1
  N  N3  1  0.05199000  0.50176000  0.85410000  1
  N  N4  1  0.05199000  0.50084000  0.14600000  1
  N  N5  1  0.64166000  0.49933000  0.77295000  1
  N  N6  1  0.76316000  0.49913000  0.85436000  1
  N  N7  1  0.86252000  0.49918000  0.77145000  1
  N  N8  1  0.91033000  0.50003000  0.22707000  1
  N  N9  1  0.78884000  0.50022000  0.14568000  1
  N  N10  1  0.68948000  0.50019000  0.22859000  1
  O  O1  1  0.57389000  0.49999000  0.36719000  1
  O  O2  1  0.42597000  0.50036000  0.36720000  1
  O  O3  1  0.49987000  0.66526000  0.36719000  1
  O  O4  1  0.49999000  0.33509000  0.36720000  1
  O  O5  1  0.50012000  0.33472000  0.63280000  1
  O  O6  1  0.50004000  0.66489000  0.63280000  1
  O  O7  1  0.42606000  0.50017000  0.63280000  1
  O  O8  1  0.57404000  0.49958000  0.63279000  1
  O  O9  1  0.97811000  0.49938000  0.63286000  1
  O  O10  1  0.12603000  0.49961000  0.63284000  1
  O  O11  1  0.05189000  0.66458000  0.63357000  1
  O  O12  1  0.05225000  0.33441000  0.63213000  1
  O  O13  1  0.05212000  0.33487000  0.36653000  1
  O  O14  1  0.05172000  0.66504000  0.36797000  1
  O  O15  1  0.12594000  0.50025000  0.36724000  1
  O  O16  1  0.97796000  0.49980000  0.36725000  1
