# generated using pymatgen
data_ZnH9C12Br2(NO)4
_symmetry_space_group_name_H-M   'P 1'
_cell_length_a   10.90060000
_cell_length_b   37.00480000
_cell_length_c   10.00000000
_cell_angle_alpha   90.00000000
_cell_angle_beta   90.00000000
_cell_angle_gamma   106.95000000
_symmetry_Int_Tables_number   1
_chemical_formula_structural   ZnH9C12Br2(NO)4
_chemical_formula_sum   'Zn4 H36 C48 Br8 N16 O16'
_cell_volume   3858.51745731
_cell_formula_units_Z   4
loop_
 _symmetry_equiv_pos_site_id
 _symmetry_equiv_pos_as_xyz
  1  'x, y, z'
loop_
 _atom_site_type_symbol
 _atom_site_label
 _atom_site_symmetry_multiplicity
 _atom_site_fract_x
 _atom_site_fract_y
 _atom_site_fract_z
 _atom_site_occupancy
  Zn  Zn1  1  0.50003000  0.50011000  0.66577000  1
  Zn  Zn2  1  0.50000000  0.49989000  0.33423000  1
  Zn  Zn3  1  0.99620000  0.99991000  0.24343000  1
  Zn  Zn4  1  0.99664000  0.00013000  0.57496000  1
  H  H1  1  0.74842000  0.74993000  0.30208000  1
  H  H2  1  0.74859000  0.75009000  0.60719000  1
  H  H3  1  0.24788000  0.25013000  0.30205000  1
  H  H4  1  0.24715000  0.24989000  0.60717000  1
  H  H5  1  0.96707000  0.90955000  0.14235000  1
  H  H6  1  0.81231000  0.87492000  0.07390000  1
  H  H7  1  0.71696000  0.77888000  0.14104000  1
  H  H8  1  0.87188000  0.81367000  0.07359000  1
  H  H9  1  0.84669000  0.90953000  0.67637000  1
  H  H10  1  0.93263000  0.87483000  0.74485000  1
  H  H11  1  0.83814000  0.77966000  0.68129000  1
  H  H12  1  0.75278000  0.81493000  0.74605000  1
  H  H13  1  0.77921000  0.72032000  0.22794000  1
  H  H14  1  0.62388000  0.68512000  0.16321000  1
  H  H15  1  0.52997000  0.59053000  0.23286000  1
  H  H16  1  0.68473000  0.62516000  0.16438000  1
  H  H17  1  0.65969000  0.72116000  0.76823000  1
  H  H18  1  0.74547000  0.68630000  0.83566000  1
  H  H19  1  0.65027000  0.59042000  0.76687000  1
  H  H20  1  0.56435000  0.62512000  0.83534000  1
  H  H21  1  0.02631000  0.09066000  0.14173000  1
  H  H22  1  0.18169000  0.12507000  0.07361000  1
  H  H23  1  0.27891000  0.22109000  0.14104000  1
  H  H24  1  0.12363000  0.18656000  0.07326000  1
  H  H25  1  0.14547000  0.09032000  0.67598000  1
  H  H26  1  0.06037000  0.12524000  0.74433000  1
  H  H27  1  0.15696000  0.22042000  0.68107000  1
  H  H28  1  0.24123000  0.18490000  0.74594000  1
  H  H29  1  0.21797000  0.27987000  0.22789000  1
  H  H30  1  0.37391000  0.31484000  0.16350000  1
  H  H31  1  0.46966000  0.40942000  0.23344000  1
  H  H32  1  0.31455000  0.37505000  0.16462000  1
  H  H33  1  0.33623000  0.27866000  0.76841000  1
  H  H34  1  0.25130000  0.31374000  0.83571000  1
  H  H35  1  0.34862000  0.40964000  0.76722000  1
  H  H36  1  0.43345000  0.37468000  0.83582000  1
  C  C1  1  0.26084000  0.50009000  0.49992000  1
  C  C2  1  0.57346000  0.57369000  0.49974000  1
  C  C3  1  0.73916000  0.49988000  0.50008000  1
  C  C4  1  0.42616000  0.42632000  0.50026000  1
  C  C5  1  0.75720000  0.00007000  0.40930000  1
  C  C6  1  0.92355000  0.92633000  0.40948000  1
  C  C7  1  0.23567000  0.00000000  0.40908000  1
  C  C8  1  0.06887000  0.07370000  0.40891000  1
  C  C9  1  0.88166000  0.88414000  0.40941000  1
  C  C10  1  0.86143000  0.86375000  0.53029000  1
  C  C11  1  0.82214000  0.82418000  0.53040000  1
  C  C12  1  0.80193000  0.80383000  0.40905000  1
  C  C13  1  0.82223000  0.82428000  0.28847000  1
  C  C14  1  0.86148000  0.86381000  0.28845000  1
  C  C15  1  0.76011000  0.76170000  0.40149000  1
  C  C16  1  0.73690000  0.73832000  0.50778000  1
  C  C17  1  0.67478000  0.67574000  0.62078000  1
  C  C18  1  0.69508000  0.69619000  0.50020000  1
  C  C19  1  0.67487000  0.67584000  0.37885000  1
  C  C20  1  0.63558000  0.63627000  0.37894000  1
  C  C21  1  0.61534000  0.61588000  0.49982000  1
  C  C22  1  0.63552000  0.63620000  0.62078000  1
  C  C23  1  0.11164000  0.11589000  0.40898000  1
  C  C24  1  0.13208000  0.13625000  0.52992000  1
  C  C25  1  0.17219000  0.17583000  0.53015000  1
  C  C26  1  0.19305000  0.19620000  0.40886000  1
  C  C27  1  0.17255000  0.17578000  0.28822000  1
  C  C28  1  0.13247000  0.13625000  0.28808000  1
  C  C29  1  0.23576000  0.23833000  0.40143000  1
  C  C30  1  0.25926000  0.26169000  0.50779000  1
  C  C31  1  0.32249000  0.32424000  0.62098000  1
  C  C32  1  0.30198000  0.30382000  0.50035000  1
  C  C33  1  0.32284000  0.32419000  0.37905000  1
  C  C34  1  0.36295000  0.36376000  0.37927000  1
  C  C35  1  0.38339000  0.38413000  0.50021000  1
  C  C36  1  0.36256000  0.36378000  0.62111000  1
  C  C37  1  0.87146000  0.49993000  0.50004000  1
  C  C38  1  0.12855000  0.50004000  0.49996000  1
  C  C39  1  0.93604000  0.49986000  0.38008000  1
  C  C40  1  0.06396000  0.50011000  0.61992000  1
  C  C41  1  0.06370000  0.49991000  0.38004000  1
  C  C42  1  0.93630000  0.50006000  0.61996000  1
  C  C43  1  0.36778000  0.99987000  0.40911000  1
  C  C44  1  0.62451000  0.99961000  0.40916000  1
  C  C45  1  0.43249000  0.99991000  0.52906000  1
  C  C46  1  0.55980000  0.99957000  0.28921000  1
  C  C47  1  0.55997000  0.99978000  0.52909000  1
  C  C48  1  0.43232000  0.99970000  0.28918000  1
  Br  Br1  1  0.84055000  0.49967000  0.20022000  1
  Br  Br2  1  0.15946000  0.50030000  0.79979000  1
  Br  Br3  1  0.15881000  0.49980000  0.20012000  1
  Br  Br4  1  0.84119000  0.50017000  0.79989000  1
  Br  Br5  1  0.33745000  0.00016000  0.70894000  1
  Br  Br6  1  0.65485000  0.99933000  0.10933000  1
  Br  Br7  1  0.65526000  0.99984000  0.70900000  1
  Br  Br8  1  0.33703000  0.99964000  0.10927000  1
  N  N1  1  0.88211000  0.88460000  0.15659000  1
  N  N2  1  0.80189000  0.80380000  0.15600000  1
  N  N3  1  0.88207000  0.88454000  0.66215000  1
  N  N4  1  0.80263000  0.80452000  0.66441000  1
  N  N5  1  0.69438000  0.69550000  0.24483000  1
  N  N6  1  0.61494000  0.61548000  0.24708000  1
  N  N7  1  0.69511000  0.69621000  0.75325000  1
  N  N8  1  0.61489000  0.61541000  0.75264000  1
  N  N9  1  0.11165000  0.11549000  0.15616000  1
  N  N10  1  0.19355000  0.19629000  0.15582000  1
  N  N11  1  0.11075000  0.11543000  0.66171000  1
  N  N12  1  0.19186000  0.19545000  0.66422000  1
  N  N13  1  0.30317000  0.30457000  0.24497000  1
  N  N14  1  0.38427000  0.38458000  0.24747000  1
  N  N15  1  0.30148000  0.30374000  0.75339000  1
  N  N16  1  0.38338000  0.38453000  0.75303000  1
  O  O1  1  0.32333000  0.50033000  0.63580000  1
  O  O2  1  0.32314000  0.49997000  0.36399000  1
  O  O3  1  0.55428000  0.55438000  0.36380000  1
  O  O4  1  0.55450000  0.55458000  0.63562000  1
  O  O5  1  0.67677000  0.49974000  0.36420000  1
  O  O6  1  0.67682000  0.49997000  0.63601000  1
  O  O7  1  0.44550000  0.44562000  0.63620000  1
  O  O8  1  0.44575000  0.44542000  0.36438000  1
  O  O9  1  0.81916000  0.99979000  0.27342000  1
  O  O10  1  0.81974000  0.00016000  0.54523000  1
  O  O11  1  0.94273000  0.94564000  0.54541000  1
  O  O12  1  0.94251000  0.94543000  0.27359000  1
  O  O13  1  0.17361000  0.00018000  0.54497000  1
  O  O14  1  0.17318000  0.99995000  0.27317000  1
  O  O15  1  0.04987000  0.05439000  0.27298000  1
  O  O16  1  0.05055000  0.05460000  0.54480000  1
