# generated using pymatgen
data_Zn2H21C44N2(Cl3O4)2
_symmetry_space_group_name_H-M   'P 1'
_cell_length_a   10.74380000
_cell_length_b   25.84080000
_cell_length_c   14.42190000
_cell_angle_alpha   90.04070000
_cell_angle_beta   89.88160000
_cell_angle_gamma   89.77590000
_symmetry_Int_Tables_number   1
_chemical_formula_structural   Zn2H21C44N2(Cl3O4)2
_chemical_formula_sum   'Zn4 H42 C88 N4 Cl12 O16'
_cell_volume   4003.88862655
_cell_formula_units_Z   2
loop_
 _symmetry_equiv_pos_site_id
 _symmetry_equiv_pos_as_xyz
  1  'x, y, z'
loop_
 _atom_site_type_symbol
 _atom_site_label
 _atom_site_symmetry_multiplicity
 _atom_site_fract_x
 _atom_site_fract_y
 _atom_site_fract_z
 _atom_site_occupancy
  Zn  Zn1  1  0.50000000  0.50001000  0.61494000  1
  Zn  Zn2  1  0.50001000  0.50001000  0.38506000  1
  Zn  Zn3  1  0.49919000  0.91576000  0.38513000  1
  Zn  Zn4  1  0.49959000  0.91577000  0.61501000  1
  H  H1  1  0.63321000  0.44501000  0.77039000  1
  H  H2  1  0.36679000  0.55500000  0.77095000  1
  H  H3  1  0.36681000  0.55500000  0.22962000  1
  H  H4  1  0.63323000  0.44501000  0.22905000  1
  H  H5  1  0.34177000  0.79607000  0.61739000  1
  H  H6  1  0.34203000  0.62026000  0.61746000  1
  H  H7  1  0.63207000  0.66525000  0.40061000  1
  H  H8  1  0.63194000  0.75006000  0.40058000  1
  H  H9  1  0.50017000  0.33580000  0.36039000  1
  H  H10  1  0.50109000  0.33595000  0.63954000  1
  H  H11  1  0.50048000  0.07997000  0.63967000  1
  H  H12  1  0.49956000  0.07981000  0.36053000  1
  H  H13  1  0.21233000  0.43444000  0.38303000  1
  H  H14  1  0.78946000  0.43462000  0.38281000  1
  H  H15  1  0.89726000  0.55535000  0.59913000  1
  H  H16  1  0.10124000  0.55527000  0.59923000  1
  H  H17  1  0.63198000  0.97040000  0.22915000  1
  H  H18  1  0.36589000  0.86113000  0.22966000  1
  H  H19  1  0.36514000  0.86114000  0.77099000  1
  H  H20  1  0.63123000  0.97040000  0.77048000  1
  H  H21  1  0.21172000  0.97937000  0.61418000  1
  H  H22  1  0.78885000  0.98036000  0.61609000  1
  H  H23  1  0.89664000  0.85933000  0.39935000  1
  H  H24  1  0.10062000  0.85886000  0.39842000  1
  H  H25  1  0.18930000  0.75830000  0.80842000  1
  H  H26  1  0.18375000  0.80310000  0.73529000  1
  H  H27  1  0.08594000  0.75829000  0.73185000  1
  H  H28  1  0.08607000  0.65874000  0.73170000  1
  H  H29  1  0.18430000  0.61377000  0.73556000  1
  H  H30  1  0.18919000  0.65875000  0.80845000  1
  H  H31  1  0.12190000  0.37093000  0.19227000  1
  H  H32  1  0.22947000  0.36866000  0.26545000  1
  H  H33  1  0.12164000  0.32801000  0.26904000  1
  H  H34  1  0.88221000  0.32810000  0.26911000  1
  H  H35  1  0.77411000  0.36896000  0.26502000  1
  H  H36  1  0.88247000  0.37092000  0.19216000  1
  H  H37  1  0.12142000  0.04314000  0.80530000  1
  H  H38  1  0.22887000  0.04511000  0.73169000  1
  H  H39  1  0.12090000  0.08606000  0.72853000  1
  H  H40  1  0.88147000  0.08662000  0.72943000  1
  H  H41  1  0.77350000  0.04606000  0.73395000  1
  H  H42  1  0.88199000  0.04380000  0.80637000  1
  C  C1  1  0.50078000  0.39908000  0.49993000  1
  C  C2  1  0.74277000  0.50003000  0.49987000  1
  C  C3  1  0.49912000  0.60094000  0.50007000  1
  C  C4  1  0.25723000  0.49981000  0.50013000  1
  C  C5  1  0.49987000  0.01669000  0.50013000  1
  C  C6  1  0.74216000  0.91508000  0.49923000  1
  C  C7  1  0.49880000  0.81483000  0.49999000  1
  C  C8  1  0.25662000  0.91663000  0.50090000  1
  C  C9  1  0.57883000  0.46746000  0.80078000  1
  C  C10  1  0.57498000  0.46905000  0.89781000  1
  C  C11  1  0.65188000  0.43730000  0.95129000  1
  C  C12  1  0.42117000  0.53255000  0.80111000  1
  C  C13  1  0.42504000  0.53096000  0.89813000  1
  C  C14  1  0.34814000  0.56271000  0.95193000  1
  C  C15  1  0.42119000  0.53255000  0.19922000  1
  C  C16  1  0.42505000  0.53096000  0.10219000  1
  C  C17  1  0.34815000  0.56271000  0.04871000  1
  C  C18  1  0.57885000  0.46746000  0.19889000  1
  C  C19  1  0.57499000  0.46905000  0.10188000  1
  C  C20  1  0.65188000  0.43730000  0.04807000  1
  C  C21  1  0.50001000  0.50001000  0.95423000  1
  C  C22  1  0.50002000  0.50001000  0.04577000  1
  C  C23  1  0.49889000  0.75836000  0.50002000  1
  C  C24  1  0.41840000  0.73202000  0.56021000  1
  C  C25  1  0.57945000  0.73173000  0.43984000  1
  C  C26  1  0.33970000  0.76014000  0.61899000  1
  C  C27  1  0.25828000  0.73539000  0.67989000  1
  C  C28  1  0.49904000  0.65741000  0.50005000  1
  C  C29  1  0.57952000  0.68376000  0.43986000  1
  C  C30  1  0.41847000  0.68404000  0.56023000  1
  C  C31  1  0.33986000  0.65619000  0.61903000  1
  C  C32  1  0.25836000  0.68122000  0.67991000  1
  C  C33  1  0.50032000  0.31893000  0.41737000  1
  C  C34  1  0.50020000  0.26479000  0.42145000  1
  C  C35  1  0.49986000  0.23481000  0.34089000  1
  C  C36  1  0.50086000  0.31903000  0.58257000  1
  C  C37  1  0.50072000  0.26487000  0.57856000  1
  C  C38  1  0.50092000  0.23498000  0.65915000  1
  C  C39  1  0.50033000  0.09683000  0.58269000  1
  C  C40  1  0.50045000  0.15098000  0.57861000  1
  C  C41  1  0.50079000  0.18096000  0.65918000  1
  C  C42  1  0.49979000  0.09674000  0.41749000  1
  C  C43  1  0.49993000  0.15090000  0.42151000  1
  C  C44  1  0.49973000  0.18079000  0.34092000  1
  C  C45  1  0.50066000  0.34732000  0.49996000  1
  C  C46  1  0.50038000  0.23343000  0.50002000  1
  C  C47  1  0.49999000  0.06845000  0.50011000  1
  C  C48  1  0.50026000  0.18234000  0.50005000  1
  C  C49  1  0.12141000  0.49987000  0.50006000  1
  C  C50  1  0.05816000  0.46637000  0.44001000  1
  C  C51  1  0.05724000  0.53342000  0.56006000  1
  C  C52  1  0.12592000  0.43360000  0.38141000  1
  C  C53  1  0.06652000  0.39971000  0.32065000  1
  C  C54  1  0.87860000  0.49997000  0.49994000  1
  C  C55  1  0.94185000  0.53347000  0.56000000  1
  C  C56  1  0.94276000  0.46642000  0.43995000  1
  C  C57  1  0.87590000  0.43370000  0.38128000  1
  C  C58  1  0.93622000  0.39976000  0.32058000  1
  C  C59  1  0.57762000  0.94809000  0.19897000  1
  C  C60  1  0.57361000  0.94651000  0.10196000  1
  C  C61  1  0.65033000  0.97805000  0.04817000  1
  C  C62  1  0.42015000  0.88343000  0.19928000  1
  C  C63  1  0.42385000  0.88502000  0.10224000  1
  C  C64  1  0.34696000  0.85348000  0.04875000  1
  C  C65  1  0.41950000  0.88344000  0.80116000  1
  C  C66  1  0.42352000  0.88502000  0.89818000  1
  C  C67  1  0.34680000  0.85348000  0.95196000  1
  C  C68  1  0.57697000  0.94810000  0.80086000  1
  C  C69  1  0.57327000  0.94651000  0.89789000  1
  C  C70  1  0.65017000  0.97805000  0.95139000  1
  C  C71  1  0.49864000  0.91577000  0.04584000  1
  C  C72  1  0.49849000  0.91577000  0.95430000  1
  C  C73  1  0.12079000  0.91420000  0.49751000  1
  C  C74  1  0.05754000  0.94787000  0.55782000  1
  C  C75  1  0.05663000  0.88082000  0.43777000  1
  C  C76  1  0.12530000  0.98046000  0.61615000  1
  C  C77  1  0.06591000  0.01451000  0.67714000  1
  C  C78  1  0.87799000  0.91476000  0.49861000  1
  C  C79  1  0.94123000  0.88109000  0.43830000  1
  C  C80  1  0.94215000  0.94814000  0.55835000  1
  C  C81  1  0.87529000  0.98104000  0.61728000  1
  C  C82  1  0.93561000  0.01481000  0.67773000  1
  C  C83  1  0.17099000  0.76676000  0.74508000  1
  C  C84  1  0.17116000  0.65016000  0.74513000  1
  C  C85  1  0.14209000  0.36336000  0.25565000  1
  C  C86  1  0.86163000  0.36347000  0.25551000  1
  C  C87  1  0.14149000  0.05065000  0.74184000  1
  C  C88  1  0.86103000  0.05131000  0.74311000  1
  N  N1  1  0.50000000  0.50001000  0.75016000  1
  N  N2  1  0.50002000  0.50000000  0.24984000  1
  N  N3  1  0.49897000  0.91576000  0.24990000  1
  N  N4  1  0.49816000  0.91577000  0.75023000  1
  Cl  Cl1  1  0.75456000  0.39492000  0.10547000  1
  Cl  Cl2  1  0.75455000  0.39492000  0.89346000  1
  Cl  Cl3  1  0.24548000  0.60510000  0.10654000  1
  Cl  Cl4  1  0.24547000  0.60510000  0.89453000  1
  Cl  Cl5  1  0.49930000  0.14857000  0.23335000  1
  Cl  Cl6  1  0.49958000  0.26690000  0.23329000  1
  Cl  Cl7  1  0.50107000  0.14887000  0.76677000  1
  Cl  Cl8  1  0.50135000  0.26720000  0.76671000  1
  Cl  Cl9  1  0.75262000  0.02016000  0.89357000  1
  Cl  Cl10  1  0.75297000  0.02016000  0.10559000  1
  Cl  Cl11  1  0.24416000  0.81137000  0.89454000  1
  Cl  Cl12  1  0.24450000  0.81137000  0.10656000  1
  O  O1  1  0.50115000  0.42537000  0.59415000  1
  O  O2  1  0.50053000  0.42538000  0.40568000  1
  O  O3  1  0.67946000  0.50002000  0.40560000  1
  O  O4  1  0.67954000  0.50009000  0.59407000  1
  O  O5  1  0.49908000  0.57465000  0.40585000  1
  O  O6  1  0.49924000  0.57464000  0.59432000  1
  O  O7  1  0.32054000  0.49989000  0.59440000  1
  O  O8  1  0.32046000  0.50002000  0.40593000  1
  O  O9  1  0.50016000  0.99040000  0.40591000  1
  O  O10  1  0.49985000  0.99039000  0.59438000  1
  O  O11  1  0.67901000  0.91526000  0.59375000  1
  O  O12  1  0.67877000  0.91519000  0.40527000  1
  O  O13  1  0.49884000  0.84113000  0.59422000  1
  O  O14  1  0.49869000  0.84113000  0.40575000  1
  O  O15  1  0.31977000  0.91637000  0.40638000  1
  O  O16  1  0.32000000  0.91625000  0.59486000  1
