# generated using pymatgen
data_Zn2H9C26Br7O8
_symmetry_space_group_name_H-M   'P 1'
_cell_length_a   35.39750000
_cell_length_b   26.58940000
_cell_length_c   10.00000000
_cell_angle_alpha   90.00000000
_cell_angle_beta   90.00000000
_cell_angle_gamma   89.69570000
_symmetry_Int_Tables_number   1
_chemical_formula_structural   Zn2H9C26Br7O8
_chemical_formula_sum   'Zn8 H36 C104 Br28 O32'
_cell_volume   9411.85012288
_cell_formula_units_Z   4
loop_
 _symmetry_equiv_pos_site_id
 _symmetry_equiv_pos_as_xyz
  1  'x, y, z'
loop_
 _atom_site_type_symbol
 _atom_site_label
 _atom_site_symmetry_multiplicity
 _atom_site_fract_x
 _atom_site_fract_y
 _atom_site_fract_z
 _atom_site_occupancy
  Zn  Zn1  1  0.50011000  0.49955000  0.33424000  1
  Zn  Zn2  1  0.49989000  0.50047000  0.66576000  1
  Zn  Zn3  1  0.99991000  0.49914000  0.75659000  1
  Zn  Zn4  1  0.00013000  0.49838000  0.42506000  1
  Zn  Zn5  1  0.49954000  0.83508000  0.76828000  1
  Zn  Zn6  1  0.49988000  0.83416000  0.43675000  1
  Zn  Zn7  1  0.99893000  0.83244000  0.31058000  1
  Zn  Zn8  1  0.99859000  0.83320000  0.64210000  1
  H  H1  1  0.87866000  0.49869000  0.37517000  1
  H  H2  1  0.81014000  0.49889000  0.37395000  1
  H  H3  1  0.69042000  0.49901000  0.28423000  1
  H  H4  1  0.68987000  0.50011000  0.71683000  1
  H  H5  1  0.74993000  0.49989000  0.69793000  1
  H  H6  1  0.75009000  0.49911000  0.39282000  1
  H  H7  1  0.12133000  0.49782000  0.37560000  1
  H  H8  1  0.18984000  0.49820000  0.37417000  1
  H  H9  1  0.30954000  0.49858000  0.28407000  1
  H  H10  1  0.31018000  0.49998000  0.71667000  1
  H  H11  1  0.25012000  0.49959000  0.69796000  1
  H  H12  1  0.24990000  0.49860000  0.39285000  1
  H  H13  1  0.50017000  0.99561000  0.38415000  1
  H  H14  1  0.50023000  0.08682000  0.38126000  1
  H  H15  1  0.50045000  0.24596000  0.28865000  1
  H  H16  1  0.49986000  0.24781000  0.72123000  1
  H  H17  1  0.49984000  0.16781000  0.70379000  1
  H  H18  1  0.50025000  0.16681000  0.39868000  1
  H  H19  1  0.00218000  0.99499000  0.72473000  1
  H  H20  1  0.00170000  0.08620000  0.72435000  1
  H  H21  1  0.00074000  0.24581000  0.81126000  1
  H  H22  1  0.00134000  0.24546000  0.37864000  1
  H  H23  1  0.00173000  0.16556000  0.39895000  1
  H  H24  1  0.00131000  0.16610000  0.70407000  1
  H  H25  1  0.87815000  0.83141000  0.73531000  1
  H  H26  1  0.80964000  0.83203000  0.73510000  1
  H  H27  1  0.68976000  0.83334000  0.82229000  1
  H  H28  1  0.68994000  0.83224000  0.38968000  1
  H  H29  1  0.74997000  0.83175000  0.40985000  1
  H  H30  1  0.74961000  0.83252000  0.71496000  1
  H  H31  1  0.12083000  0.84134000  0.71894000  1
  H  H32  1  0.18934000  0.84014000  0.72182000  1
  H  H33  1  0.30888000  0.83833000  0.81443000  1
  H  H34  1  0.31026000  0.83691000  0.38185000  1
  H  H35  1  0.25017000  0.83803000  0.39930000  1
  H  H36  1  0.24943000  0.83902000  0.70440000  1
  C  C1  1  0.50025000  0.40192000  0.50185000  1
  C  C2  1  0.57369000  0.49991000  0.50026000  1
  C  C3  1  0.49972000  0.59809000  0.49815000  1
  C  C4  1  0.42632000  0.49993000  0.49974000  1
  C  C5  1  0.00022000  0.40067000  0.59249000  1
  C  C6  1  0.92633000  0.49909000  0.59054000  1
  C  C7  1  0.99984000  0.59685000  0.58917000  1
  C  C8  1  0.07370000  0.49825000  0.59112000  1
  C  C9  1  0.49984000  0.93270000  0.60067000  1
  C  C10  1  0.57339000  0.83384000  0.60381000  1
  C  C11  1  0.49954000  0.73653000  0.60437000  1
  C  C12  1  0.42602000  0.83557000  0.60122000  1
  C  C13  1  0.99817000  0.93091000  0.47467000  1
  C  C14  1  0.92508000  0.83247000  0.47505000  1
  C  C15  1  0.99938000  0.73473000  0.47800000  1
  C  C16  1  0.07244000  0.83335000  0.47763000  1
  C  C17  1  0.88414000  0.49922000  0.59060000  1
  C  C18  1  0.86375000  0.49897000  0.46972000  1
  C  C19  1  0.82418000  0.49909000  0.46962000  1
  C  C20  1  0.80383000  0.49946000  0.59096000  1
  C  C21  1  0.82428000  0.49970000  0.71154000  1
  C  C22  1  0.86381000  0.49958000  0.71156000  1
  C  C23  1  0.76170000  0.49960000  0.59852000  1
  C  C24  1  0.73832000  0.49940000  0.49223000  1
  C  C25  1  0.67574000  0.49930000  0.37923000  1
  C  C26  1  0.69619000  0.49954000  0.49981000  1
  C  C27  1  0.67584000  0.49991000  0.62116000  1
  C  C28  1  0.63627000  0.50003000  0.62106000  1
  C  C29  1  0.61588000  0.49978000  0.50019000  1
  C  C30  1  0.63620000  0.49942000  0.37923000  1
  C  C31  1  0.11589000  0.49849000  0.59105000  1
  C  C32  1  0.13626000  0.49821000  0.47011000  1
  C  C33  1  0.17583000  0.49843000  0.46988000  1
  C  C34  1  0.19620000  0.49894000  0.59116000  1
  C  C35  1  0.17578000  0.49921000  0.71180000  1
  C  C36  1  0.13625000  0.49899000  0.71194000  1
  C  C37  1  0.23833000  0.49920000  0.59859000  1
  C  C38  1  0.26169000  0.49899000  0.49223000  1
  C  C39  1  0.32424000  0.49897000  0.37903000  1
  C  C40  1  0.30382000  0.49925000  0.49967000  1
  C  C41  1  0.32419000  0.49975000  0.62095000  1
  C  C42  1  0.36376000  0.49997000  0.62074000  1
  C  C43  1  0.38413000  0.49970000  0.49980000  1
  C  C44  1  0.36378000  0.49919000  0.37890000  1
  C  C45  1  0.49958000  0.68116000  0.60716000  1
  C  C46  1  0.49969000  0.65347000  0.49535000  1
  C  C47  1  0.49988000  0.98887000  0.59971000  1
  C  C48  1  0.50006000  0.01570000  0.47834000  1
  C  C49  1  0.50009000  0.06838000  0.47727000  1
  C  C50  1  0.49994000  0.09579000  0.59812000  1
  C  C51  1  0.49976000  0.06887000  0.71919000  1
  C  C52  1  0.49973000  0.01624000  0.72017000  1
  C  C53  1  0.49996000  0.15189000  0.60466000  1
  C  C54  1  0.50013000  0.18274000  0.49781000  1
  C  C55  1  0.50033000  0.26575000  0.38330000  1
  C  C56  1  0.50015000  0.23884000  0.50436000  1
  C  C57  1  0.50000000  0.26624000  0.62522000  1
  C  C58  1  0.50003000  0.31892000  0.62417000  1
  C  C59  1  0.50022000  0.34576000  0.50280000  1
  C  C60  1  0.50037000  0.31839000  0.38233000  1
  C  C61  1  0.99961000  0.67935000  0.47719000  1
  C  C62  1  0.99962000  0.65223000  0.58998000  1
  C  C63  1  0.00252000  0.98715000  0.50943000  1
  C  C64  1  0.00221000  0.01460000  0.62983000  1
  C  C65  1  0.00193000  0.06729000  0.62901000  1
  C  C66  1  0.00196000  0.09407000  0.50719000  1
  C  C67  1  0.00227000  0.06655000  0.38709000  1
  C  C68  1  0.00254000  0.01391000  0.38800000  1
  C  C69  1  0.00167000  0.15013000  0.49864000  1
  C  C70  1  0.00136000  0.18153000  0.60438000  1
  C  C71  1  0.00077000  0.26512000  0.71591000  1
  C  C72  1  0.00108000  0.23759000  0.59582000  1
  C  C73  1  0.00111000  0.26437000  0.47399000  1
  C  C74  1  0.00083000  0.31705000  0.47316000  1
  C  C75  1  0.00052000  0.34451000  0.59355000  1
  C  C76  1  0.00049000  0.31775000  0.71499000  1
  C  C77  1  0.88400000  0.83081000  0.52000000  1
  C  C78  1  0.86340000  0.83130000  0.64045000  1
  C  C79  1  0.82383000  0.83166000  0.63972000  1
  C  C80  1  0.80368000  0.83153000  0.51795000  1
  C  C81  1  0.82434000  0.83104000  0.39780000  1
  C  C82  1  0.86387000  0.83069000  0.39862000  1
  C  C83  1  0.76157000  0.83189000  0.50950000  1
  C  C84  1  0.73801000  0.83238000  0.61530000  1
  C  C85  1  0.67524000  0.83323000  0.72698000  1
  C  C86  1  0.69590000  0.83274000  0.60684000  1
  C  C87  1  0.67575000  0.83261000  0.48506000  1
  C  C88  1  0.63618000  0.83297000  0.48432000  1
  C  C89  1  0.61558000  0.83346000  0.60477000  1
  C  C90  1  0.63571000  0.83358000  0.72615000  1
  C  C91  1  0.11576000  0.84073000  0.50338000  1
  C  C92  1  0.13592000  0.84077000  0.62475000  1
  C  C93  1  0.17549000  0.84007000  0.62581000  1
  C  C94  1  0.19607000  0.83932000  0.50496000  1
  C  C95  1  0.17585000  0.83929000  0.38390000  1
  C  C96  1  0.13631000  0.83998000  0.38292000  1
  C  C97  1  0.23821000  0.83856000  0.49842000  1
  C  C98  1  0.26139000  0.83849000  0.60527000  1
  C  C99  1  0.32375000  0.83776000  0.71978000  1
  C  C100  1  0.30353000  0.83773000  0.59872000  1
  C  C101  1  0.32410000  0.83697000  0.47786000  1
  C  C102  1  0.36367000  0.83628000  0.47892000  1
  C  C103  1  0.38384000  0.83631000  0.60028000  1
  C  C104  1  0.36328000  0.83706000  0.72074000  1
  Br  Br1  1  0.89240000  0.49996000  0.89295000  1
  Br  Br2  1  0.79611000  0.50024000  0.89376000  1
  Br  Br3  1  0.60767000  0.50057000  0.80244000  1
  Br  Br4  1  0.60761000  0.49904000  0.19784000  1
  Br  Br5  1  0.10770000  0.49942000  0.89341000  1
  Br  Br6  1  0.20399000  0.49996000  0.89393000  1
  Br  Br7  1  0.39240000  0.50072000  0.80202000  1
  Br  Br8  1  0.39233000  0.49877000  0.19744000  1
  Br  Br9  1  0.49946000  0.97865000  0.90225000  1
  Br  Br10  1  0.49953000  0.10684000  0.90073000  1
  Br  Br11  1  0.49981000  0.35745000  0.80485000  1
  Br  Br12  1  0.50064000  0.35598000  0.20026000  1
  Br  Br13  1  0.00300000  0.97540000  0.20728000  1
  Br  Br14  1  0.00232000  0.10359000  0.20421000  1
  Br  Br15  1  0.00088000  0.35467000  0.29111000  1
  Br  Br16  1  0.00004000  0.35627000  0.89570000  1
  Br  Br17  1  0.89277000  0.82997000  0.21783000  1
  Br  Br18  1  0.79648000  0.83083000  0.21500000  1
  Br  Br19  1  0.60789000  0.83276000  0.30235000  1
  Br  Br20  1  0.60681000  0.83430000  0.90693000  1
  Br  Br21  1  0.10807000  0.83990000  0.20085000  1
  Br  Br22  1  0.20436000  0.83820000  0.20237000  1
  Br  Br23  1  0.39261000  0.83519000  0.29823000  1
  Br  Br24  1  0.39153000  0.83715000  0.90281000  1
  Br  Br25  1  0.49944000  0.64610000  0.79278000  1
  Br  Br26  1  0.49982000  0.68853000  0.30973000  1
  Br  Br27  1  0.99991000  0.64335000  0.29284000  1
  Br  Br28  1  0.99931000  0.68823000  0.77433000  1
  O  O1  1  0.50045000  0.42709000  0.36552000  1
  O  O2  1  0.50008000  0.42786000  0.63731000  1
  O  O3  1  0.55438000  0.50031000  0.63619000  1
  O  O4  1  0.55458000  0.49962000  0.36438000  1
  O  O5  1  0.49962000  0.57292000  0.63449000  1
  O  O6  1  0.49985000  0.57216000  0.36269000  1
  O  O7  1  0.44562000  0.49960000  0.36381000  1
  O  O8  1  0.44542000  0.50048000  0.63561000  1
  O  O9  1  0.99990000  0.42653000  0.72791000  1
  O  O10  1  0.00028000  0.42592000  0.45611000  1
  O  O11  1  0.94564000  0.49869000  0.45461000  1
  O  O12  1  0.94543000  0.49938000  0.72642000  1
  O  O13  1  0.00007000  0.57098000  0.45374000  1
  O  O14  1  0.99983000  0.57160000  0.72555000  1
  O  O15  1  0.05440000  0.49872000  0.72704000  1
  O  O16  1  0.05461000  0.49822000  0.45523000  1
  O  O17  1  0.49984000  0.90753000  0.73701000  1
  O  O18  1  0.49993000  0.90677000  0.46521000  1
  O  O19  1  0.55432000  0.83367000  0.46747000  1
  O  O20  1  0.55406000  0.83436000  0.73928000  1
  O  O21  1  0.49964000  0.76171000  0.46802000  1
  O  O22  1  0.49942000  0.76247000  0.73982000  1
  O  O23  1  0.44510000  0.83567000  0.73756000  1
  O  O24  1  0.44535000  0.83480000  0.46575000  1
  O  O25  1  0.99829000  0.90505000  0.33925000  1
  O  O26  1  0.99820000  0.90566000  0.61105000  1
  O  O27  1  0.94415000  0.83288000  0.61139000  1
  O  O28  1  0.94441000  0.83219000  0.33958000  1
  O  O29  1  0.99916000  0.76060000  0.61343000  1
  O  O30  1  0.99939000  0.75998000  0.34163000  1
  O  O31  1  0.05337000  0.83287000  0.34129000  1
  O  O32  1  0.05311000  0.83337000  0.61311000  1
