# generated using pymatgen
data_Cu2H8C20S2N16O3
_symmetry_space_group_name_H-M   'P 1'
_cell_length_a   13.29130000
_cell_length_b   15.18800000
_cell_length_c   7.05280000
_cell_angle_alpha   76.57430000
_cell_angle_beta   105.38600000
_cell_angle_gamma   69.38840000
_symmetry_Int_Tables_number   1
_chemical_formula_structural   Cu2H8C20S2N16O3
_chemical_formula_sum   'Cu2 H8 C20 S2 N16 O3'
_cell_volume   1198.30670372
_cell_formula_units_Z   1
loop_
 _symmetry_equiv_pos_site_id
 _symmetry_equiv_pos_as_xyz
  1  'x, y, z'
loop_
 _atom_site_type_symbol
 _atom_site_label
 _atom_site_symmetry_multiplicity
 _atom_site_fract_x
 _atom_site_fract_y
 _atom_site_fract_z
 _atom_site_occupancy
  Cu  Cu1  1  0.50000000  0.50000000  0.00000000  1
  Cu  Cu2  1  0.50000000  0.50000000  0.50000000  1
  H  H1  1  0.49986000  0.11266000  0.16739000  1
  H  H2  1  0.11275000  0.62716000  0.73219000  1
  H  H3  1  0.97188000  0.73738000  0.81368000  1
  H  H4  1  0.75804000  0.62753000  0.55465000  1
  H  H5  1  0.78717000  0.73757000  0.72122000  1
  H  H6  1  0.50008000  0.93557000  0.98150000  1
  H  H7  1  0.86860000  0.37736000  0.26469000  1
  H  H8  1  0.25604000  0.37695000  0.45861000  1
  C  C1  1  0.78423000  0.50023000  0.39200000  1
  C  C2  1  0.49969000  0.25346000  0.37312000  1
  C  C3  1  0.21577000  0.49977000  0.60800000  1
  C  C4  1  0.50031000  0.74654000  0.62688000  1
  C  C5  1  0.50012000  0.90631000  0.69729000  1
  C  C6  1  0.49989000  0.09368000  0.30271000  1
  C  C7  1  0.50019000  0.84759000  0.57630000  1
  C  C8  1  0.49981000  0.15240000  0.42371000  1
  C  C9  1  0.50000000  0.00000000  0.40309000  1
  C  C10  1  0.50000000  0.00000000  0.59691000  1
  C  C11  1  0.10184000  0.49989000  0.55097000  1
  C  C12  1  0.01527000  0.56524000  0.59776000  1
  C  C13  1  0.08152000  0.43465000  0.45069000  1
  C  C14  1  0.03938000  0.62896000  0.69785000  1
  C  C15  1  0.95566000  0.69506000  0.74710000  1
  C  C16  1  0.89817000  0.50011000  0.44903000  1
  C  C17  1  0.98473000  0.43476000  0.40224000  1
  C  C18  1  0.91848000  0.56534000  0.54931000  1
  C  C19  1  0.82966000  0.62918000  0.59288000  1
  C  C20  1  0.84637000  0.69518000  0.69239000  1
  S  S1  1  0.50012000  0.90212000  0.33195000  1
  S  S2  1  0.49988000  0.09787000  0.66805000  1
  N  N1  1  0.63063000  0.49912000  0.22195000  1
  N  N2  1  0.72659000  0.50029000  0.20605000  1
  N  N3  1  0.50100000  0.38669000  0.40095000  1
  N  N4  1  0.49963000  0.30346000  0.50519000  1
  N  N5  1  0.36938000  0.50088000  0.59045000  1
  N  N6  1  0.27342000  0.49971000  0.47975000  1
  N  N7  1  0.49900000  0.61330000  0.78665000  1
  N  N8  1  0.50037000  0.69654000  0.80902000  1
  N  N9  1  0.36938000  0.50088000  0.77805000  1
  N  N10  1  0.27341000  0.49971000  0.79395000  1
  N  N11  1  0.49900000  0.61330000  0.59905000  1
  N  N12  1  0.50037000  0.69654000  0.49482000  1
  N  N13  1  0.63063000  0.49912000  0.40955000  1
  N  N14  1  0.72659000  0.50029000  0.52025000  1
  N  N15  1  0.50100000  0.38669000  0.21335000  1
  N  N16  1  0.49963000  0.30346000  0.19099000  1
  O  O1  1  0.50015000  0.87553000  0.91687000  1
  O  O2  1  0.95947000  0.36564000  0.29412000  1
  O  O3  1  0.17697000  0.36541000  0.40299000  1
