# generated using pymatgen
data_CuH11C14N3O8
_symmetry_space_group_name_H-M   'P 1'
_cell_length_a   12.99020000
_cell_length_b   34.99640000
_cell_length_c   10.00000000
_cell_angle_alpha   90.00000000
_cell_angle_beta   90.00000000
_cell_angle_gamma   90.09710000
_symmetry_Int_Tables_number   1
_chemical_formula_structural   CuH11C14N3O8
_chemical_formula_sum   'Cu4 H44 C56 N12 O32'
_cell_volume   4546.09582447
_cell_formula_units_Z   4
loop_
 _symmetry_equiv_pos_site_id
 _symmetry_equiv_pos_as_xyz
  1  'x, y, z'
loop_
 _atom_site_type_symbol
 _atom_site_label
 _atom_site_symmetry_multiplicity
 _atom_site_fract_x
 _atom_site_fract_y
 _atom_site_fract_z
 _atom_site_occupancy
  Cu  Cu1  1  0.50000000  0.50000000  0.62726000  1
  Cu  Cu2  1  0.50001000  0.50000000  0.37274000  1
  Cu  Cu3  1  0.50041000  0.00000000  0.28188000  1
  Cu  Cu4  1  0.49989000  0.00001000  0.53639000  1
  H  H1  1  0.50037000  0.74990000  0.30204000  1
  H  H2  1  0.50005000  0.75010000  0.60716000  1
  H  H3  1  0.50015000  0.25010000  0.30202000  1
  H  H4  1  0.49975000  0.24990000  0.60714000  1
  H  H5  1  0.50052000  0.91736000  0.17498000  1
  H  H6  1  0.50050000  0.77307000  0.17372000  1
  H  H7  1  0.50003000  0.91736000  0.64314000  1
  H  H8  1  0.50001000  0.77375000  0.64895000  1
  H  H9  1  0.50041000  0.72625000  0.26022000  1
  H  H10  1  0.50039000  0.58265000  0.26602000  1
  H  H11  1  0.49992000  0.72693000  0.73549000  1
  H  H12  1  0.49990000  0.58264000  0.73418000  1
  H  H13  1  0.50034000  0.08265000  0.17494000  1
  H  H14  1  0.50033000  0.22694000  0.17369000  1
  H  H15  1  0.49971000  0.08264000  0.64310000  1
  H  H16  1  0.49969000  0.22625000  0.64893000  1
  H  H17  1  0.50021000  0.27376000  0.26020000  1
  H  H18  1  0.50019000  0.41736000  0.26601000  1
  H  H19  1  0.49957000  0.27307000  0.73547000  1
  H  H20  1  0.49956000  0.41736000  0.73418000  1
  H  H21  1  0.68803000  0.48116000  0.73419000  1
  H  H22  1  0.76542000  0.51860000  0.83288000  1
  H  H23  1  0.04114000  0.51856000  0.84915000  1
  H  H24  1  0.93756000  0.48105000  0.89026000  1
  H  H25  1  0.22094000  0.51856000  0.77573000  1
  H  H26  1  0.11708000  0.48106000  0.81571000  1
  H  H27  1  0.31177000  0.48134000  0.26553000  1
  H  H28  1  0.23478000  0.51890000  0.16734000  1
  H  H29  1  0.95908000  0.51893000  0.15108000  1
  H  H30  1  0.06227000  0.48145000  0.10949000  1
  H  H31  1  0.77930000  0.51894000  0.22454000  1
  H  H32  1  0.88271000  0.48145000  0.18402000  1
  H  H33  1  0.68865000  0.01907000  0.17560000  1
  H  H34  1  0.76624000  0.98173000  0.07720000  1
  H  H35  1  0.04200000  0.98211000  0.06189000  1
  H  H36  1  0.93851000  0.01948000  0.02041000  1
  H  H37  1  0.22164000  0.98232000  0.13593000  1
  H  H38  1  0.11787000  0.01969000  0.09558000  1
  H  H39  1  0.31142000  0.01967000  0.64644000  1
  H  H40  1  0.23423000  0.98202000  0.74437000  1
  H  H41  1  0.95850000  0.98164000  0.75967000  1
  H  H42  1  0.06160000  0.01925000  0.80160000  1
  H  H43  1  0.77886000  0.98142000  0.68558000  1
  H  H44  1  0.88220000  0.01904000  0.72645000  1
  C  C1  1  0.69308000  0.50003000  0.50001000  1
  C  C2  1  0.30694000  0.49997000  0.49999000  1
  C  C3  1  0.49988000  0.42834000  0.49999000  1
  C  C4  1  0.50015000  0.57167000  0.50000000  1
  C  C5  1  0.69322000  0.00021000  0.40980000  1
  C  C6  1  0.30708000  0.99980000  0.40847000  1
  C  C7  1  0.50003000  0.07167000  0.40912000  1
  C  C8  1  0.50027000  0.92834000  0.40915000  1
  C  C9  1  0.50027000  0.88566000  0.40916000  1
  C  C10  1  0.50014000  0.86506000  0.53008000  1
  C  C11  1  0.50014000  0.82503000  0.53024000  1
  C  C12  1  0.50026000  0.80443000  0.40893000  1
  C  C13  1  0.50039000  0.82510000  0.28832000  1
  C  C14  1  0.50039000  0.86509000  0.28824000  1
  C  C15  1  0.50027000  0.76182000  0.40144000  1
  C  C16  1  0.50015000  0.73818000  0.50777000  1
  C  C17  1  0.50003000  0.67490000  0.62087000  1
  C  C18  1  0.50016000  0.69557000  0.50026000  1
  C  C19  1  0.50028000  0.67498000  0.37894000  1
  C  C20  1  0.50028000  0.63495000  0.37910000  1
  C  C21  1  0.50015000  0.61434000  0.50001000  1
  C  C22  1  0.50003000  0.63491000  0.62094000  1
  C  C23  1  0.50002000  0.11434000  0.40913000  1
  C  C24  1  0.49986000  0.13495000  0.53004000  1
  C  C25  1  0.49986000  0.17498000  0.53022000  1
  C  C26  1  0.50002000  0.19557000  0.40890000  1
  C  C27  1  0.50018000  0.17491000  0.28829000  1
  C  C28  1  0.50018000  0.13492000  0.28821000  1
  C  C29  1  0.50002000  0.23819000  0.40142000  1
  C  C30  1  0.49988000  0.26182000  0.50774000  1
  C  C31  1  0.49972000  0.32510000  0.62085000  1
  C  C32  1  0.49988000  0.30443000  0.50024000  1
  C  C33  1  0.50005000  0.32503000  0.37892000  1
  C  C34  1  0.50004000  0.36505000  0.37909000  1
  C  C35  1  0.49988000  0.38566000  0.50000000  1
  C  C36  1  0.49972000  0.36509000  0.62092000  1
  C  C37  1  0.12348000  0.49994000  0.59787000  1
  C  C38  1  0.16193000  0.50006000  0.36381000  1
  C  C39  1  0.05745000  0.50009000  0.32764000  1
  C  C40  1  0.98379000  0.50004000  0.43233000  1
  C  C41  1  0.87654000  0.50007000  0.40212000  1
  C  C42  1  0.83809000  0.49995000  0.63618000  1
  C  C43  1  0.94257000  0.49992000  0.67235000  1
  C  C44  1  0.01622000  0.49996000  0.56766000  1
  C  C45  1  0.19297000  0.49998000  0.49999000  1
  C  C46  1  0.80705000  0.50002000  0.50001000  1
  C  C47  1  0.12382000  0.00083000  0.31345000  1
  C  C48  1  0.16178000  0.00076000  0.54764000  1
  C  C49  1  0.05723000  0.00061000  0.58344000  1
  C  C50  1  0.98379000  0.00056000  0.47849000  1
  C  C51  1  0.87648000  0.00040000  0.50833000  1
  C  C52  1  0.83851000  0.00047000  0.27414000  1
  C  C53  1  0.94306000  0.00063000  0.23833000  1
  C  C54  1  0.01650000  0.00067000  0.34328000  1
  C  C55  1  0.19311000  0.00088000  0.41157000  1
  C  C56  1  0.80719000  0.00036000  0.41020000  1
  N  N1  1  0.75665000  0.49990000  0.74393000  1
  N  N2  1  0.97678000  0.49983000  0.81666000  1
  N  N3  1  0.15677000  0.49985000  0.74255000  1
  N  N4  1  0.24335000  0.50010000  0.25605000  1
  N  N5  1  0.02325000  0.50016000  0.18333000  1
  N  N6  1  0.84324000  0.50016000  0.25745000  1
  N  N7  1  0.75730000  0.00042000  0.16610000  1
  N  N8  1  0.97757000  0.00075000  0.09414000  1
  N  N9  1  0.15741000  0.00096000  0.16889000  1
  N  N10  1  0.24298000  0.00082000  0.65569000  1
  N  N11  1  0.02273000  0.00049000  0.72764000  1
  N  N12  1  0.84288000  0.00027000  0.65288000  1
  O  O1  1  0.63385000  0.49998000  0.61869000  1
  O  O2  1  0.36588000  0.49991000  0.61867000  1
  O  O3  1  0.49971000  0.45021000  0.61868000  1
  O  O4  1  0.50002000  0.54968000  0.61868000  1
  O  O5  1  0.50027000  0.54979000  0.38132000  1
  O  O6  1  0.50003000  0.45033000  0.38132000  1
  O  O7  1  0.36605000  0.49997000  0.38131000  1
  O  O8  1  0.63414000  0.50010000  0.38133000  1
  O  O9  1  0.63424000  0.00019000  0.29091000  1
  O  O10  1  0.36627000  0.99992000  0.29000000  1
  O  O11  1  0.50011000  0.04979000  0.29044000  1
  O  O12  1  0.50040000  0.95032000  0.29047000  1
  O  O13  1  0.50015000  0.95021000  0.52783000  1
  O  O14  1  0.49993000  0.04968000  0.52780000  1
  O  O15  1  0.36595000  0.99987000  0.52735000  1
  O  O16  1  0.63403000  0.00007000  0.52827000  1
  O  O17  1  0.50053000  0.88609000  0.15634000  1
  O  O18  1  0.50053000  0.80437000  0.15588000  1
  O  O19  1  0.50001000  0.88610000  0.66189000  1
  O  O20  1  0.50000000  0.80517000  0.66429000  1
  O  O21  1  0.50042000  0.69484000  0.24489000  1
  O  O22  1  0.50041000  0.61391000  0.24727000  1
  O  O23  1  0.49990000  0.69563000  0.75331000  1
  O  O24  1  0.49989000  0.61391000  0.75283000  1
  O  O25  1  0.50036000  0.11391000  0.15631000  1
  O  O26  1  0.50035000  0.19563000  0.15586000  1
  O  O27  1  0.49969000  0.11390000  0.66186000  1
  O  O28  1  0.49968000  0.19484000  0.66426000  1
  O  O29  1  0.50023000  0.30517000  0.24487000  1
  O  O30  1  0.50022000  0.38610000  0.24727000  1
  O  O31  1  0.49955000  0.30438000  0.75329000  1
  O  O32  1  0.49954000  0.38610000  0.75282000  1
