# generated using pymatgen
data_CrH9C14N2O9
_symmetry_space_group_name_H-M   'P 1'
_cell_length_a   35.34560000
_cell_length_b   24.06650000
_cell_length_c   6.81200000
_cell_angle_alpha   90.00000000
_cell_angle_beta   93.16890000
_cell_angle_gamma   47.08220000
_symmetry_Int_Tables_number   1
_chemical_formula_structural   CrH9C14N2O9
_chemical_formula_sum   'Cr4 H36 C56 N8 O36'
_cell_volume   4231.45533715
_cell_formula_units_Z   4
loop_
 _symmetry_equiv_pos_site_id
 _symmetry_equiv_pos_as_xyz
  1  'x, y, z'
loop_
 _atom_site_type_symbol
 _atom_site_label
 _atom_site_symmetry_multiplicity
 _atom_site_fract_x
 _atom_site_fract_y
 _atom_site_fract_z
 _atom_site_occupancy
  Cr  Cr1  1  0.50001000  0.49999000  0.00000000  1
  Cr  Cr2  1  0.50001000  0.49999000  0.50000000  1
  Cr  Cr3  1  0.00008000  0.49981000  0.00002000  1
  Cr  Cr4  1  0.00009000  0.49980000  0.50002000  1
  H  H1  1  0.49996000  0.42594000  0.24999000  1
  H  H2  1  0.50001000  0.57411000  0.75000000  1
  H  H3  1  0.00013000  0.57385000  0.25004000  1
  H  H4  1  0.00008000  0.42568000  0.75002000  1
  H  H5  1  0.87740000  0.49594000  0.53150000  1
  H  H6  1  0.80655000  0.49814000  0.50975000  1
  H  H7  1  0.69354000  0.50165000  0.62110000  1
  H  H8  1  0.69355000  0.50165000  0.99028000  1
  H  H9  1  0.12275000  0.50372000  0.46854000  1
  H  H10  1  0.19357000  0.50159000  0.49028000  1
  H  H11  1  0.30652000  0.49820000  0.37892000  1
  H  H12  1  0.30652000  0.49820000  0.00974000  1
  H  H13  1  0.87727000  0.74919000  0.03146000  1
  H  H14  1  0.80644000  0.88872000  0.00972000  1
  H  H15  1  0.69348000  0.11124000  0.12108000  1
  H  H16  1  0.69348000  0.11124000  0.49026000  1
  H  H17  1  0.12269000  0.25085000  0.96853000  1
  H  H18  1  0.19352000  0.11133000  0.99027000  1
  H  H19  1  0.30649000  0.88881000  0.87891000  1
  H  H20  1  0.30649000  0.88881000  0.50973000  1
  H  H21  1  0.91489000  0.49478000  0.88169000  1
  H  H22  1  0.76904000  0.49931000  0.84279000  1
  H  H23  1  0.58520000  0.50501000  0.61833000  1
  H  H24  1  0.58526000  0.50501000  0.93044000  1
  H  H25  1  0.08528000  0.50484000  0.11836000  1
  H  H26  1  0.23106000  0.50046000  0.15724000  1
  H  H27  1  0.41482000  0.49495000  0.38167000  1
  H  H28  1  0.41475000  0.49495000  0.06956000  1
  H  H29  1  0.91476000  0.67536000  0.38165000  1
  H  H30  1  0.76896000  0.96256000  0.34276000  1
  H  H31  1  0.58517000  0.32460000  0.11833000  1
  H  H32  1  0.58523000  0.32447000  0.43043000  1
  H  H33  1  0.08520000  0.32469000  0.61834000  1
  H  H34  1  0.23101000  0.03749000  0.65723000  1
  H  H35  1  0.41480000  0.67545000  0.88167000  1
  H  H36  1  0.41474000  0.67558000  0.56956000  1
  C  C1  1  0.57422000  0.50535000  0.27128000  1
  C  C2  1  0.42578000  0.65383000  0.22871000  1
  C  C3  1  0.57420000  0.34622000  0.77128000  1
  C  C4  1  0.42579000  0.49462000  0.72872000  1
  C  C5  1  0.92587000  0.49444000  0.22874000  1
  C  C6  1  0.07431000  0.34596000  0.27131000  1
  C  C7  1  0.92590000  0.65357000  0.72875000  1
  C  C8  1  0.07430000  0.50517000  0.77131000  1
  C  C9  1  0.88297000  0.49577000  0.21643000  1
  C  C10  1  0.86223000  0.49641000  0.38832000  1
  C  C11  1  0.82194000  0.49766000  0.37629000  1
  C  C12  1  0.80156000  0.49830000  0.19239000  1
  C  C13  1  0.82199000  0.49766000  0.02122000  1
  C  C14  1  0.86227000  0.49641000  0.03257000  1
  C  C15  1  0.67810000  0.50213000  0.47881000  1
  C  C16  1  0.69854000  0.50149000  0.30764000  1
  C  C17  1  0.67815000  0.50213000  0.12374000  1
  C  C18  1  0.63786000  0.50338000  0.11170000  1
  C  C19  1  0.61712000  0.50402000  0.28360000  1
  C  C20  1  0.63782000  0.50338000  0.46746000  1
  C  C21  1  0.11719000  0.50388000  0.78362000  1
  C  C22  1  0.13791000  0.50326000  0.61172000  1
  C  C23  1  0.17819000  0.50205000  0.62375000  1
  C  C24  1  0.19856000  0.50144000  0.80764000  1
  C  C25  1  0.17813000  0.50205000  0.97882000  1
  C  C26  1  0.13787000  0.50326000  0.96747000  1
  C  C27  1  0.32196000  0.49774000  0.52121000  1
  C  C28  1  0.30153000  0.49835000  0.69238000  1
  C  C29  1  0.32191000  0.49774000  0.87628000  1
  C  C30  1  0.36218000  0.49653000  0.88831000  1
  C  C31  1  0.38290000  0.49591000  0.71641000  1
  C  C32  1  0.36222000  0.49653000  0.53255000  1
  C  C33  1  0.88284000  0.73823000  0.71639000  1
  C  C34  1  0.86212000  0.77905000  0.88829000  1
  C  C35  1  0.82183000  0.85840000  0.87626000  1
  C  C36  1  0.80146000  0.89854000  0.69236000  1
  C  C37  1  0.82189000  0.85830000  0.52119000  1
  C  C38  1  0.86215000  0.77898000  0.53254000  1
  C  C39  1  0.67804000  0.14166000  0.97879000  1
  C  C40  1  0.69847000  0.10141000  0.80762000  1
  C  C41  1  0.67809000  0.14155000  0.62372000  1
  C  C42  1  0.63781000  0.22090000  0.61169000  1
  C  C43  1  0.61709000  0.26173000  0.78359000  1
  C  C44  1  0.63778000  0.22097000  0.96744000  1
  C  C45  1  0.11712000  0.26182000  0.28360000  1
  C  C46  1  0.13785000  0.22099000  0.11170000  1
  C  C47  1  0.17813000  0.14165000  0.12373000  1
  C  C48  1  0.19851000  0.10150000  0.30763000  1
  C  C49  1  0.17808000  0.14175000  0.47880000  1
  C  C50  1  0.13781000  0.22107000  0.46745000  1
  C  C51  1  0.32193000  0.85839000  0.02120000  1
  C  C52  1  0.30150000  0.89864000  0.19237000  1
  C  C53  1  0.32188000  0.85850000  0.37627000  1
  C  C54  1  0.36216000  0.77915000  0.38830000  1
  C  C55  1  0.38289000  0.73832000  0.21640000  1
  C  C56  1  0.36220000  0.77908000  0.03255000  1
  N  N1  1  0.76028000  0.49958000  0.17530000  1
  N  N2  1  0.73981000  0.50021000  0.32473000  1
  N  N3  1  0.23982000  0.50020000  0.82473000  1
  N  N4  1  0.26027000  0.49959000  0.67530000  1
  N  N5  1  0.76019000  0.97983000  0.67527000  1
  N  N6  1  0.73973000  0.02013000  0.82470000  1
  N  N7  1  0.23977000  0.02022000  0.32472000  1
  N  N8  1  0.26023000  0.97992000  0.17529000  1
  O  O1  1  0.45033000  0.60548000  0.07971000  1
  O  O2  1  0.54966000  0.50611000  0.10819000  1
  O  O3  1  0.54966000  0.50611000  0.42029000  1
  O  O4  1  0.54965000  0.39457000  0.60819000  1
  O  O5  1  0.45034000  0.49388000  0.89180000  1
  O  O6  1  0.45034000  0.49388000  0.57971000  1
  O  O7  1  0.54965000  0.39457000  0.92029000  1
  O  O8  1  0.45033000  0.60548000  0.39180000  1
  O  O9  1  0.50001000  0.46533000  0.25000000  1
  O  O10  1  0.50001000  0.53468000  0.75000000  1
  O  O11  1  0.04976000  0.39431000  0.10822000  1
  O  O12  1  0.95043000  0.49368000  0.07973000  1
  O  O13  1  0.95043000  0.49368000  0.39183000  1
  O  O14  1  0.95045000  0.60522000  0.57974000  1
  O  O15  1  0.04976000  0.50591000  0.92032000  1
  O  O16  1  0.04976000  0.50591000  0.60822000  1
  O  O17  1  0.95045000  0.60522000  0.89184000  1
  O  O18  1  0.04976000  0.39431000  0.42032000  1
  O  O19  1  0.00009000  0.53446000  0.25002000  1
  O  O20  1  0.00008000  0.46511000  0.75002000  1
  O  O21  1  0.88345000  0.49576000  0.84514000  1
  O  O22  1  0.80044000  0.49833000  0.82264000  1
  O  O23  1  0.61665000  0.50403000  0.65489000  1
  O  O24  1  0.61671000  0.50403000  0.91205000  1
  O  O25  1  0.11671000  0.50390000  0.15491000  1
  O  O26  1  0.19968000  0.50140000  0.17740000  1
  O  O27  1  0.38338000  0.49589000  0.34512000  1
  O  O28  1  0.38332000  0.49589000  0.08796000  1
  O  O29  1  0.88332000  0.73729000  0.34510000  1
  O  O30  1  0.80034000  0.90074000  0.32261000  1
  O  O31  1  0.61661000  0.26267000  0.15488000  1
  O  O32  1  0.61668000  0.26254000  0.41204000  1
  O  O33  1  0.11664000  0.26276000  0.65489000  1
  O  O34  1  0.19963000  0.09930000  0.67738000  1
  O  O35  1  0.38336000  0.73738000  0.84511000  1
  O  O36  1  0.38330000  0.73751000  0.58795000  1
