# generated using pymatgen
data_Zn4H31C56N4(ClO4)5
_symmetry_space_group_name_H-M   'P 1'
_cell_length_a   21.74890000
_cell_length_b   11.00490000
_cell_length_c   10.13580000
_cell_angle_alpha   90.03600000
_cell_angle_beta   89.88240000
_cell_angle_gamma   89.84680000
_symmetry_Int_Tables_number   1
_chemical_formula_structural   Zn4H31C56N4(ClO4)5
_chemical_formula_sum   'Zn4 H31 C56 N4 Cl5 O20'
_cell_volume   2425.93340574
_cell_formula_units_Z   1
loop_
 _symmetry_equiv_pos_site_id
 _symmetry_equiv_pos_as_xyz
  1  'x, y, z'
loop_
 _atom_site_type_symbol
 _atom_site_label
 _atom_site_symmetry_multiplicity
 _atom_site_fract_x
 _atom_site_fract_y
 _atom_site_fract_z
 _atom_site_occupancy
  Zn  Zn1  1  0.50000000  0.50002000  0.66355000  1
  Zn  Zn2  1  0.50000000  0.50001000  0.33646000  1
  Zn  Zn3  1  0.99400000  0.49815000  0.33646000  1
  Zn  Zn4  1  0.99399000  0.49855000  0.66355000  1
  H  H1  1  0.43339000  0.63117000  0.11736000  1
  H  H2  1  0.62631000  0.36384000  0.11680000  1
  H  H3  1  0.56922000  0.25155000  0.11765000  1
  H  H4  1  0.56946000  0.25100000  0.88204000  1
  H  H5  1  0.62603000  0.36433000  0.88121000  1
  H  H6  1  0.50008000  0.10791000  0.70148000  1
  H  H7  1  0.45962000  0.10828000  0.20422000  1
  H  H8  1  0.54027000  0.10826000  0.20456000  1
  H  H9  1  0.54016000  0.89125000  0.20382000  1
  H  H10  1  0.45950000  0.89129000  0.20509000  1
  H  H11  1  0.85115000  0.65264000  0.66666667  1
  H  H12  1  0.64226000  0.65335000  0.66642000  1
  H  H13  1  0.69686000  0.36958000  0.35882000  1
  H  H14  1  0.79762000  0.36923000  0.35897000  1
  H  H15  1  0.19274000  0.49824000  0.29841000  1
  H  H16  1  0.19158000  0.57738000  0.79606000  1
  H  H17  1  0.19187000  0.41798000  0.79495000  1
  H  H18  1  0.30167000  0.41895000  0.79591000  1
  H  H19  1  0.30138000  0.57835000  0.79541000  1
  H  H20  1  0.06048000  0.62828000  0.88263000  1
  H  H21  1  0.86781000  0.36224000  0.88321000  1
  H  H22  1  0.92502000  0.24957000  0.88238000  1
  H  H23  1  0.92478000  0.24931000  0.11800000  1
  H  H24  1  0.86810000  0.36303000  0.11881000  1
  H  H25  1  0.99332000  0.10599000  0.29845000  1
  H  H26  1  0.03379000  0.10671000  0.79571000  1
  H  H27  1  0.95313000  0.10723000  0.79538000  1
  H  H28  1  0.95346000  0.89022000  0.79614000  1
  H  H29  1  0.03412000  0.88971000  0.79486000  1
  H  H30  1  0.88280000  0.81045000  0.72716000  1
  H  H31  1  0.61022000  0.70919000  0.83778000  1
  C  C1  1  0.50015000  0.26302000  0.49992000  1
  C  C2  1  0.61993000  0.49989000  0.49981000  1
  C  C3  1  0.49980000  0.73702000  0.50009000  1
  C  C4  1  0.38007000  0.49972000  0.50019000  1
  C  C5  1  0.99407000  0.26135000  0.50011000  1
  C  C6  1  0.87407000  0.49903000  0.50019000  1
  C  C7  1  0.99397000  0.73534000  0.49989000  1
  C  C8  1  0.11392000  0.49724000  0.49981000  1
  C  C9  1  0.53447000  0.43221000  0.07169000  1
  C  C10  1  0.46554000  0.56782000  0.92831000  1
  C  C11  1  0.53447000  0.43221000  0.92790000  1
  C  C12  1  0.46555000  0.56782000  0.07210000  1
  C  C13  1  0.58348000  0.33578000  0.06835000  1
  C  C14  1  0.58347000  0.33578000  0.93067000  1
  C  C15  1  0.50006000  0.13269000  0.49996000  1
  C  C16  1  0.49989000  0.86734000  0.50005000  1
  C  C17  1  0.49999000  0.06615000  0.39578000  1
  C  C18  1  0.49996000  0.93389000  0.60423000  1
  C  C19  1  0.49990000  0.93371000  0.39582000  1
  C  C20  1  0.50005000  0.06633000  0.60419000  1
  C  C21  1  0.49994000  0.06321000  0.24759000  1
  C  C22  1  0.49986000  0.93640000  0.24763000  1
  C  C23  1  0.80697000  0.49926000  0.50009000  1
  C  C24  1  0.77535000  0.57808000  0.58545000  1
  C  C25  1  0.77565000  0.42065000  0.41464000  1
  C  C26  1  0.80846000  0.65486000  0.66892000  1
  C  C27  1  0.77874000  0.73459000  0.75527000  1
  C  C28  1  0.68703000  0.49967000  0.49991000  1
  C  C29  1  0.71864000  0.42084000  0.41456000  1
  C  C30  1  0.71835000  0.57828000  0.58536000  1
  C  C31  1  0.68495000  0.65528000  0.66873000  1
  C  C32  1  0.71437000  0.73481000  0.75517000  1
  C  C33  1  0.17987000  0.49786000  0.49991000  1
  C  C34  1  0.31413000  0.49911000  0.50010000  1
  C  C35  1  0.21336000  0.49806000  0.60416000  1
  C  C36  1  0.28064000  0.49891000  0.39585000  1
  C  C37  1  0.28037000  0.49868000  0.60425000  1
  C  C38  1  0.21362000  0.49828000  0.39575000  1
  C  C39  1  0.21460000  0.49791000  0.75235000  1
  C  C40  1  0.27876000  0.49851000  0.75244000  1
  C  C41  1  0.95959000  0.43005000  0.92832000  1
  C  C42  1  0.02839000  0.56538000  0.07169000  1
  C  C43  1  0.95960000  0.43023000  0.07211000  1
  C  C44  1  0.02838000  0.56520000  0.92789000  1
  C  C45  1  0.91068000  0.33396000  0.93168000  1
  C  C46  1  0.91068000  0.33413000  0.06935000  1
  C  C47  1  0.99332000  0.13102000  0.49997000  1
  C  C48  1  0.99375000  0.86567000  0.49992000  1
  C  C49  1  0.99346000  0.06461000  0.60416000  1
  C  C50  1  0.99361000  0.93208000  0.39573000  1
  C  C51  1  0.99367000  0.93217000  0.60413000  1
  C  C52  1  0.99339000  0.06452000  0.39575000  1
  C  C53  1  0.99350000  0.06186000  0.75235000  1
  C  C54  1  0.99371000  0.93505000  0.75233000  1
  C  C55  1  0.81485000  0.81788000  0.84581000  1
  C  C56  1  0.67795000  0.81834000  0.84561000  1
  N  N1  1  0.50001000  0.50001000  0.14405000  1
  N  N2  1  0.50000000  0.50002000  0.85595000  1
  N  N3  1  0.99399000  0.49753000  0.85595000  1
  N  N4  1  0.99399000  0.49790000  0.14405000  1
  Cl  Cl1  1  0.41343000  0.67033000  0.85563000  1
  Cl  Cl2  1  0.49998000  0.86680000  0.76181000  1
  Cl  Cl3  1  0.31485000  0.49937000  0.23834000  1
  Cl  Cl4  1  0.08040000  0.66763000  0.14435000  1
  Cl  Cl5  1  0.99366000  0.86480000  0.23815000  1
  O  O1  1  0.50040000  0.32476000  0.63398000  1
  O  O2  1  0.50009000  0.32478000  0.36582000  1
  O  O3  1  0.58865000  0.49992000  0.36568000  1
  O  O4  1  0.58869000  0.50008000  0.63385000  1
  O  O5  1  0.49972000  0.67528000  0.36602000  1
  O  O6  1  0.49980000  0.67526000  0.63419000  1
  O  O7  1  0.41135000  0.49987000  0.63433000  1
  O  O8  1  0.41131000  0.50016000  0.36615000  1
  O  O9  1  0.99377000  0.32292000  0.36604000  1
  O  O10  1  0.99408000  0.32327000  0.63421000  1
  O  O11  1  0.90534000  0.49901000  0.63433000  1
  O  O12  1  0.90530000  0.49885000  0.36615000  1
  O  O13  1  0.99411000  0.67377000  0.63396000  1
  O  O14  1  0.99403000  0.67342000  0.36579000  1
  O  O15  1  0.08265000  0.49743000  0.36568000  1
  O  O16  1  0.08269000  0.49805000  0.63385000  1
  O  O17  1  0.86965000  0.85804000  0.80822000  1
  O  O18  1  0.79256000  0.85028000  0.95198000  1
  O  O19  1  0.62314000  0.78385000  0.88936000  1
  O  O20  1  0.70000000  0.91610000  0.88067000  1
