# generated using pymatgen
data_AlH3C8(SO3)2
_symmetry_space_group_name_H-M   'P 1'
_cell_length_a   17.05560000
_cell_length_b   24.33420000
_cell_length_c   6.60720000
_cell_angle_alpha   90.00000000
_cell_angle_beta   90.00000000
_cell_angle_gamma   45.50150000
_symmetry_Int_Tables_number   1
_chemical_formula_structural   AlH3C8(SO3)2
_chemical_formula_sum   'Al4 H12 C32 S8 O24'
_cell_volume   1955.93651685
_cell_formula_units_Z   4
loop_
 _symmetry_equiv_pos_site_id
 _symmetry_equiv_pos_as_xyz
  1  'x, y, z'
loop_
 _atom_site_type_symbol
 _atom_site_label
 _atom_site_symmetry_multiplicity
 _atom_site_fract_x
 _atom_site_fract_y
 _atom_site_fract_z
 _atom_site_occupancy
  Al  Al1  1  0.50000000  0.50000000  0.00000000  1
  Al  Al2  1  0.50000000  0.50000000  0.50000000  1
  Al  Al3  1  0.50000000  0.00000000  0.00000000  1
  Al  Al4  1  0.50000000  0.00000000  0.50000000  1
  H  H1  1  0.59078000  0.50000000  0.75000000  1
  H  H2  1  0.40922000  0.50000000  0.25000000  1
  H  H3  1  0.40922000  0.00000000  0.75000000  1
  H  H4  1  0.59078000  0.00000000  0.25000000  1
  H  H5  1  0.49925000  0.81872000  0.54484000  1
  H  H6  1  0.50075000  0.18127000  0.04484000  1
  H  H7  1  0.86330000  0.81872000  0.45516000  1
  H  H8  1  0.13670000  0.18127000  0.54484000  1
  H  H9  1  0.50043000  0.71069000  0.77046000  1
  H  H10  1  0.49957000  0.28931000  0.27046000  1
  H  H11  1  0.07819000  0.71069000  0.22954000  1
  H  H12  1  0.92181000  0.28931000  0.77046000  1
  C  C1  1  0.69244000  0.40462000  0.25000000  1
  C  C2  1  0.50168000  0.59538000  0.25000000  1
  C  C3  1  0.30756000  0.59538000  0.75000000  1
  C  C4  1  0.49832000  0.40462000  0.75000000  1
  C  C5  1  0.30756000  0.09538000  0.25000000  1
  C  C6  1  0.49832000  0.90462000  0.25000000  1
  C  C7  1  0.69244000  0.90462000  0.75000000  1
  C  C8  1  0.50168000  0.09538000  0.75000000  1
  C  C9  1  0.50062000  0.69285000  0.08946000  1
  C  C10  1  0.49938000  0.80715000  0.41054000  1
  C  C11  1  0.50101000  0.65702000  0.25000000  1
  C  C12  1  0.49899000  0.84297000  0.25000000  1
  C  C13  1  0.50000000  0.75000000  0.35344000  1
  C  C14  1  0.50000000  0.75000000  0.14656000  1
  C  C15  1  0.49938000  0.30715000  0.58946000  1
  C  C16  1  0.50062000  0.19285000  0.91054000  1
  C  C17  1  0.49899000  0.34297000  0.75000000  1
  C  C18  1  0.50101000  0.15702000  0.75000000  1
  C  C19  1  0.50000000  0.25000000  0.85344000  1
  C  C20  1  0.50000000  0.25000000  0.64656000  1
  C  C21  1  0.11368000  0.69285000  0.91054000  1
  C  C22  1  0.88632000  0.80715000  0.58946000  1
  C  C23  1  0.18494000  0.65702000  0.75000000  1
  C  C24  1  0.81506000  0.84297000  0.75000000  1
  C  C25  1  0.00000000  0.75000000  0.64656000  1
  C  C26  1  0.00000000  0.75000000  0.85344000  1
  C  C27  1  0.88632000  0.30715000  0.08946000  1
  C  C28  1  0.11368000  0.19285000  0.41054000  1
  C  C29  1  0.81506000  0.34297000  0.25000000  1
  C  C30  1  0.18494000  0.15702000  0.25000000  1
  C  C31  1  0.00000000  0.25000000  0.35344000  1
  C  C32  1  0.00000000  0.25000000  0.14656000  1
  S  S1  1  0.50065000  0.69029000  0.48169000  1
  S  S2  1  0.49935000  0.80971000  0.01832000  1
  S  S3  1  0.49935000  0.30971000  0.98169000  1
  S  S4  1  0.50065000  0.19029000  0.51832000  1
  S  S5  1  0.11877000  0.69029000  0.51832000  1
  S  S6  1  0.88123000  0.80971000  0.98169000  1
  S  S7  1  0.88123000  0.30971000  0.48169000  1
  S  S8  1  0.11877000  0.19029000  0.01832000  1
  O  O1  1  0.64230000  0.42983000  0.07629000  1
  O  O2  1  0.50196000  0.57017000  0.42371000  1
  O  O3  1  0.35770000  0.57017000  0.57629000  1
  O  O4  1  0.49804000  0.42983000  0.92371000  1
  O  O5  1  0.35770000  0.57017000  0.92371000  1
  O  O6  1  0.49804000  0.42983000  0.57629000  1
  O  O7  1  0.64230000  0.42983000  0.42371000  1
  O  O8  1  0.50196000  0.57017000  0.07629000  1
  O  O9  1  0.53418000  0.50000000  0.75000000  1
  O  O10  1  0.46582000  0.50000000  0.25000000  1
  O  O11  1  0.35770000  0.07017000  0.07629000  1
  O  O12  1  0.49804000  0.92983000  0.42371000  1
  O  O13  1  0.64230000  0.92983000  0.57629000  1
  O  O14  1  0.50196000  0.07017000  0.92371000  1
  O  O15  1  0.64230000  0.92983000  0.92371000  1
  O  O16  1  0.50196000  0.07017000  0.57629000  1
  O  O17  1  0.35770000  0.07017000  0.42371000  1
  O  O18  1  0.49804000  0.92983000  0.07629000  1
  O  O19  1  0.46582000  0.00000000  0.75000000  1
  O  O20  1  0.53418000  0.00000000  0.25000000  1
  O  O21  1  0.50083000  0.67406000  0.87153000  1
  O  O22  1  0.49917000  0.32593000  0.37153000  1
  O  O23  1  0.15104000  0.67406000  0.12847000  1
  O  O24  1  0.84896000  0.32593000  0.87153000  1
