# generated using pymatgen
data_CuH2C10S2(N2O)4
_symmetry_space_group_name_H-M   'P 1'
_cell_length_a   17.13950000
_cell_length_b   15.18800000
_cell_length_c   7.05280000
_cell_angle_alpha   76.57430000
_cell_angle_beta   114.29900000
_cell_angle_gamma   124.35000000
_symmetry_Int_Tables_number   1
_chemical_formula_structural   CuH2C10S2(N2O)4
_chemical_formula_sum   'Cu2 H4 C20 S4 N16 O8'
_cell_volume   1381.48847010
_cell_formula_units_Z   2
loop_
 _symmetry_equiv_pos_site_id
 _symmetry_equiv_pos_as_xyz
  1  'x, y, z'
loop_
 _atom_site_type_symbol
 _atom_site_label
 _atom_site_symmetry_multiplicity
 _atom_site_fract_x
 _atom_site_fract_y
 _atom_site_fract_z
 _atom_site_occupancy
  Cu  Cu1  1  0.50000000  0.50000000  0.00000000  1
  Cu  Cu2  1  0.50000000  0.50000000  0.50000000  1
  H  H1  1  0.44000000  0.95372000  0.89155000  1
  H  H2  1  0.43998000  0.97907000  0.02204000  1
  H  H3  1  0.96090000  0.02092000  0.87884000  1
  H  H4  1  0.98628000  0.04628000  0.03474000  1
  C  C1  1  0.74654000  0.74681000  0.37314000  1
  C  C2  1  0.49973000  0.25319000  0.37314000  1
  C  C3  1  0.25346000  0.25319000  0.62686000  1
  C  C4  1  0.50027000  0.74681000  0.62686000  1
  C  C5  1  0.50010000  0.90641000  0.69729000  1
  C  C6  1  0.49990000  0.09358000  0.30271000  1
  C  C7  1  0.50016000  0.84776000  0.57628000  1
  C  C8  1  0.49984000  0.15224000  0.42372000  1
  C  C9  1  0.50000000  0.00000000  0.40309000  1
  C  C10  1  0.50000000  0.00000000  0.59691000  1
  C  C11  1  0.90632000  0.90641000  0.60350000  1
  C  C12  1  0.09368000  0.09358000  0.39650000  1
  C  C13  1  0.84760000  0.84776000  0.42372000  1
  C  C14  1  0.15240000  0.15224000  0.57628000  1
  C  C15  1  0.00000000  0.00000000  0.40309000  1
  C  C16  1  0.00000000  0.00000000  0.59691000  1
  C  C17  1  0.50013000  0.87549000  0.91805000  1
  C  C18  1  0.49987000  0.12451000  0.08195000  1
  C  C19  1  0.87536000  0.87549000  0.79328000  1
  C  C20  1  0.12464000  0.12451000  0.20672000  1
  S  S1  1  0.50010000  0.90223000  0.33194000  1
  S  S2  1  0.49990000  0.09777000  0.66806000  1
  S  S3  1  0.90213000  0.90223000  0.23396000  1
  S  S4  1  0.09787000  0.09777000  0.76604000  1
  N  N1  1  0.61330000  0.61244000  0.21328000  1
  N  N2  1  0.69654000  0.69686000  0.19101000  1
  N  N3  1  0.50086000  0.38756000  0.40088000  1
  N  N4  1  0.49968000  0.30313000  0.50521000  1
  N  N5  1  0.38670000  0.38756000  0.59912000  1
  N  N6  1  0.30346000  0.30313000  0.49479000  1
  N  N7  1  0.49914000  0.61244000  0.78672000  1
  N  N8  1  0.50032000  0.69686000  0.80899000  1
  N  N9  1  0.38670000  0.38756000  0.78672000  1
  N  N10  1  0.30346000  0.30313000  0.80899000  1
  N  N11  1  0.49914000  0.61244000  0.59912000  1
  N  N12  1  0.50032000  0.69686000  0.49479000  1
  N  N13  1  0.61330000  0.61244000  0.40088000  1
  N  N14  1  0.69654000  0.69686000  0.50521000  1
  N  N15  1  0.50086000  0.38756000  0.21328000  1
  N  N16  1  0.49968000  0.30314000  0.19101000  1
  O  O1  1  0.45602000  0.90162000  0.99212000  1
  O  O2  1  0.53868000  0.82403000  0.02541000  1
  O  O3  1  0.45586000  0.04904000  0.94444000  1
  O  O4  1  0.53826000  0.21904000  0.02999000  1
  O  O5  1  0.90683000  0.95096000  0.91825000  1
  O  O6  1  0.81922000  0.78096000  0.82749000  1
  O  O7  1  0.05440000  0.09838000  0.01830000  1
  O  O8  1  0.21464000  0.17596000  0.22791000  1
