# generated using pymatgen
data_Li2Zn4H24(C8O3)5
_symmetry_space_group_name_H-M   'P 1'
_cell_length_a   19.75710000
_cell_length_b   21.41150000
_cell_length_c   33.21030000
_cell_angle_alpha   90.00000000
_cell_angle_beta   81.85090000
_cell_angle_gamma   57.18910000
_symmetry_Int_Tables_number   1
_chemical_formula_structural   Li2Zn4H24(C8O3)5
_chemical_formula_sum   'Li8 Zn16 H96 C160 O60'
_cell_volume   11638.46383394
_cell_formula_units_Z   4
loop_
 _symmetry_equiv_pos_site_id
 _symmetry_equiv_pos_as_xyz
  1  'x, y, z'
loop_
 _atom_site_type_symbol
 _atom_site_label
 _atom_site_symmetry_multiplicity
 _atom_site_fract_x
 _atom_site_fract_y
 _atom_site_fract_z
 _atom_site_occupancy
  Li  Li1  1  0.70124000  0.56828000  0.76952000  1
  Li  Li2  1  0.46096000  0.68842000  0.64938000  1
  Li  Li3  1  0.96096000  0.93842000  0.39938000  1
  Li  Li4  1  0.20124000  0.81828000  0.51952000  1
  Li  Li5  1  0.20124000  0.98048000  0.01952000  1
  Li  Li6  1  0.96096000  0.10062000  0.89938000  1
  Li  Li7  1  0.79876000  0.01952000  0.98048000  1
  Li  Li8  1  0.03904000  0.89938000  0.10062000  1
  Zn  Zn1  1  0.54416000  0.40388000  0.52208000  1
  Zn  Zn2  1  0.52988000  0.48506000  0.44090000  1
  Zn  Zn3  1  0.38180000  0.55910000  0.51494000  1
  Zn  Zn4  1  0.54416000  0.55196000  0.52208000  1
  Zn  Zn5  1  0.95584000  0.34612000  0.72792000  1
  Zn  Zn6  1  0.11820000  0.19090000  0.73506000  1
  Zn  Zn7  1  0.97012000  0.26494000  0.80910000  1
  Zn  Zn8  1  0.95584000  0.19804000  0.72792000  1
  Zn  Zn9  1  0.97012000  0.76494000  0.30910000  1
  Zn  Zn10  1  0.95584000  0.69804000  0.22792000  1
  Zn  Zn11  1  0.95585000  0.84612000  0.22792000  1
  Zn  Zn12  1  0.11820000  0.69090000  0.23506000  1
  Zn  Zn13  1  0.38180000  0.05910000  0.01494000  1
  Zn  Zn14  1  0.54416000  0.05196000  0.02208000  1
  Zn  Zn15  1  0.54416000  0.90388000  0.02208000  1
  Zn  Zn16  1  0.52988000  0.98506000  0.94090000  1
  H  H1  1  0.76063000  0.44854000  0.70917000  1
  H  H2  1  0.58167000  0.53803000  0.61969000  1
  H  H3  1  0.77364000  0.29638000  0.57002000  1
  H  H4  1  0.85996000  0.25322000  0.61318000  1
  H  H5  1  0.08166000  0.78803000  0.36969000  1
  H  H6  1  0.26062000  0.69854000  0.45917000  1
  H  H7  1  0.35996000  0.50322000  0.36318000  1
  H  H8  1  0.27364000  0.54638000  0.32002000  1
  H  H9  1  0.08299000  0.44249000  0.65208000  1
  H  H10  1  0.26476000  0.22333000  0.67703000  1
  H  H11  1  0.41701000  0.30751000  0.59792000  1
  H  H12  1  0.23525000  0.52667000  0.57296000  1
  H  H13  1  0.80417000  0.61393000  0.29150000  1
  H  H14  1  0.85407000  0.71726000  0.38238000  1
  H  H15  1  0.69583000  0.63607000  0.45850000  1
  H  H16  1  0.64593000  0.53275000  0.36762000  1
  H  H17  1  0.80419000  0.08191000  0.29150000  1
  H  H18  1  0.85408000  0.92867000  0.38238000  1
  H  H19  1  0.69581000  0.16810000  0.45850000  1
  H  H20  1  0.64592000  0.32133000  0.36762000  1
  H  H21  1  0.29041000  0.96540000  0.66120000  1
  H  H22  1  0.04629000  0.02151000  0.66743000  1
  H  H23  1  0.20960000  0.78461000  0.58880000  1
  H  H24  1  0.45371000  0.72848000  0.58257000  1
  H  H25  1  0.26062000  0.04083000  0.95917000  1
  H  H26  1  0.08166000  0.13031000  0.86969000  1
  H  H27  1  0.27364000  0.17998000  0.82002000  1
  H  H28  1  0.35996000  0.13682000  0.86318000  1
  H  H29  1  0.69583000  0.66809000  0.95850000  1
  H  H30  1  0.64593000  0.82133000  0.86762000  1
  H  H31  1  0.80417000  0.58191000  0.79150000  1
  H  H32  1  0.85408000  0.42867000  0.88238000  1
  H  H33  1  0.67760000  0.05060000  0.85479000  1
  H  H34  1  0.66514000  0.12277000  0.97685000  1
  H  H35  1  0.82240000  0.19940000  0.89520000  1
  H  H36  1  0.83487000  0.12723000  0.77315000  1
  H  H37  1  0.73938000  0.95917000  0.04083000  1
  H  H38  1  0.91834000  0.86969000  0.13031000  1
  H  H39  1  0.72636000  0.82002000  0.17998000  1
  H  H40  1  0.64004000  0.86318000  0.13682000  1
  H  H41  1  0.20959000  0.28462000  0.08879000  1
  H  H42  1  0.45371000  0.22849000  0.08256000  1
  H  H43  1  0.29041000  0.46538000  0.16122000  1
  H  H44  1  0.04630000  0.52152000  0.16744000  1
  H  H45  1  0.41700000  0.80750000  0.09790000  1
  H  H46  1  0.23523000  0.02667000  0.07296000  1
  H  H47  1  0.08300000  0.94250000  0.15210000  1
  H  H48  1  0.26475000  0.72334000  0.17704000  1
  H  H49  1  0.08753000  0.58037000  0.62655000  1
  H  H50  1  0.06162000  0.52284000  0.62870000  1
  H  H51  1  0.08053000  0.54740000  0.58635000  1
  H  H52  1  0.41954000  0.20274000  0.66363000  1
  H  H53  1  0.43836000  0.22707000  0.62119000  1
  H  H54  1  0.41241000  0.16956000  0.62356000  1
  H  H55  1  0.75310000  0.49932000  0.29376000  1
  H  H56  1  0.75740000  0.56766000  0.28081000  1
  H  H57  1  0.67271000  0.57598000  0.29026000  1
  H  H58  1  0.82727000  0.67385000  0.45977000  1
  H  H59  1  0.74239000  0.68256000  0.46918000  1
  H  H60  1  0.74712000  0.75068000  0.45621000  1
  H  H61  1  0.67273000  0.25112000  0.29023000  1
  H  H62  1  0.75761000  0.17494000  0.28082000  1
  H  H63  1  0.75288000  0.24778000  0.29379000  1
  H  H64  1  0.74691000  0.00241000  0.45624000  1
  H  H65  1  0.74262000  0.07504000  0.46919000  1
  H  H66  1  0.82730000  0.99869000  0.45973000  1
  H  H67  1  0.46089000  0.81569000  0.64296000  1
  H  H68  1  0.39412000  0.90093000  0.64331000  1
  H  H69  1  0.45399000  0.85566000  0.60277000  1
  H  H70  1  0.04617000  0.89413000  0.64722000  1
  H  H71  1  0.10586000  0.84919000  0.60658000  1
  H  H72  1  0.03895000  0.93444000  0.60714000  1
  H  H73  1  0.74690000  0.50242000  0.95624000  1
  H  H74  1  0.74260000  0.57505000  0.96919000  1
  H  H75  1  0.82729000  0.49869000  0.95973000  1
  H  H76  1  0.67273000  0.75112000  0.79023000  1
  H  H77  1  0.75762000  0.67495000  0.78082000  1
  H  H78  1  0.75289000  0.74779000  0.79379000  1
  H  H79  1  0.71408000  0.09683000  0.76956000  1
  H  H80  1  0.71337000  0.04533000  0.80294000  1
  H  H81  1  0.79446000  0.02012000  0.77300000  1
  H  H82  1  0.70556000  0.23001000  0.97691000  1
  H  H83  1  0.78685000  0.20446000  0.94707000  1
  H  H84  1  0.78572000  0.15322000  0.98052000  1
  H  H85  1  0.04618000  0.39413000  0.14722000  1
  H  H86  1  0.10586000  0.34918000  0.10658000  1
  H  H87  1  0.03896000  0.43443000  0.10714000  1
  H  H88  1  0.46089000  0.31569000  0.14296000  1
  H  H89  1  0.39413000  0.40093000  0.14331000  1
  H  H90  1  0.45400000  0.35565000  0.10277000  1
  H  H91  1  0.41954000  0.70275000  0.16364000  1
  H  H92  1  0.43836000  0.72708000  0.12120000  1
  H  H93  1  0.41242000  0.66957000  0.12356000  1
  H  H94  1  0.08753000  0.08037000  0.12654000  1
  H  H95  1  0.06162000  0.02284000  0.12869000  1
  H  H96  1  0.08054000  0.04740000  0.08635000  1
  C  C1  1  0.61833000  0.32251000  0.44084000  1
  C  C2  1  0.35886000  0.57057000  0.42943000  1
  C  C3  1  0.38167000  0.44084000  0.55916000  1
  C  C4  1  0.38167000  0.67749000  0.55916000  1
  C  C5  1  0.64114000  0.42943000  0.57057000  1
  C  C6  1  0.61833000  0.55916000  0.44084000  1
  C  C7  1  0.11833000  0.30916000  0.69084000  1
  C  C8  1  0.14114000  0.17943000  0.82057000  1
  C  C9  1  0.88167000  0.42749000  0.80916000  1
  C  C10  1  0.88167000  0.19084000  0.80916000  1
  C  C11  1  0.85886000  0.32057000  0.67943000  1
  C  C12  1  0.11833000  0.07251000  0.69084000  1
  C  C13  1  0.88168000  0.69084000  0.30916000  1
  C  C14  1  0.85886000  0.82057000  0.17943000  1
  C  C15  1  0.88167000  0.92749000  0.30916000  1
  C  C16  1  0.11833000  0.80916000  0.19084000  1
  C  C17  1  0.14114000  0.67943000  0.32057000  1
  C  C18  1  0.11833000  0.57251000  0.19084000  1
  C  C19  1  0.38167000  0.17749000  0.05916000  1
  C  C20  1  0.64114000  0.92943000  0.07057000  1
  C  C21  1  0.38167000  0.94084000  0.05916000  1
  C  C22  1  0.61833000  0.82251000  0.94084000  1
  C  C23  1  0.35886000  0.07057000  0.92943000  1
  C  C24  1  0.61833000  0.05916000  0.94084000  1
  C  C25  1  0.80138000  0.34931000  0.65069000  1
  C  C26  1  0.73399000  0.42344000  0.65742000  1
  C  C27  1  0.81485000  0.30215000  0.61699000  1
  C  C28  1  0.72298000  0.46843000  0.69141000  1
  C  C29  1  0.65675000  0.54245000  0.69920000  1
  C  C30  1  0.69862000  0.40069000  0.59931000  1
  C  C31  1  0.76601000  0.32656000  0.59258000  1
  C  C32  1  0.68515000  0.44785000  0.63301000  1
  C  C33  1  0.61717000  0.52134000  0.63851000  1
  C  C34  1  0.60161000  0.57002000  0.67163000  1
  C  C35  1  0.19862000  0.65069000  0.34931000  1
  C  C36  1  0.18515000  0.69785000  0.38301000  1
  C  C37  1  0.26601000  0.57656000  0.34258000  1
  C  C38  1  0.11717000  0.77134000  0.38851000  1
  C  C39  1  0.10161000  0.82002000  0.42162000  1
  C  C40  1  0.30138000  0.59931000  0.40069000  1
  C  C41  1  0.31485000  0.55215000  0.36699000  1
  C  C42  1  0.23399000  0.67344000  0.40742000  1
  C  C43  1  0.22298000  0.71843000  0.44141000  1
  C  C44  1  0.15675000  0.79245000  0.44920000  1
  C  C45  1  0.14691000  0.39643000  0.64928000  1
  C  C46  1  0.25027000  0.27360000  0.66280000  1
  C  C47  1  0.31361000  0.27830000  0.64120000  1
  C  C48  1  0.29160000  0.34535000  0.62305000  1
  C  C49  1  0.35309000  0.35357000  0.60072000  1
  C  C50  1  0.24973000  0.47640000  0.58720000  1
  C  C51  1  0.18639000  0.47170000  0.60880000  1
  C  C52  1  0.20840000  0.40465000  0.62695000  1
  C  C53  1  0.16722000  0.33361000  0.66639000  1
  C  C54  1  0.33278000  0.41639000  0.58361000  1
  C  C55  1  0.79856000  0.63083000  0.32346000  1
  C  C56  1  0.82560000  0.68847000  0.37513000  1
  C  C57  1  0.78241000  0.67369000  0.40680000  1
  C  C58  1  0.74609000  0.63580000  0.39580000  1
  C  C59  1  0.70144000  0.61917000  0.42654000  1
  C  C60  1  0.67441000  0.56153000  0.37487000  1
  C  C61  1  0.71760000  0.57631000  0.34320000  1
  C  C62  1  0.75391000  0.61420000  0.35420000  1
  C  C63  1  0.83278000  0.66639000  0.33361000  1
  C  C64  1  0.66722000  0.58361000  0.41639000  1
  C  C65  1  0.79856000  0.07061000  0.32346000  1
  C  C66  1  0.82560000  0.98594000  0.37513000  1
  C  C67  1  0.78241000  0.04391000  0.40680000  1
  C  C68  1  0.74609000  0.11811000  0.39580000  1
  C  C69  1  0.70144000  0.17939000  0.42654000  1
  C  C70  1  0.67441000  0.26406000  0.37487000  1
  C  C71  1  0.71760000  0.20609000  0.34320000  1
  C  C72  1  0.75391000  0.13189000  0.35420000  1
  C  C73  1  0.83278000  0.00083000  0.33361000  1
  C  C74  1  0.66722000  0.24917000  0.41639000  1
  C  C75  1  0.24715000  0.95225000  0.65369000  1
  C  C76  1  0.11081000  0.98226000  0.65667000  1
  C  C77  1  0.13710000  0.91585000  0.63344000  1
  C  C78  1  0.22231000  0.86609000  0.62000000  1
  C  C79  1  0.25285000  0.79775000  0.59631000  1
  C  C80  1  0.38920000  0.76774000  0.59333000  1
  C  C81  1  0.36290000  0.83415000  0.61656000  1
  C  C82  1  0.27769000  0.88391000  0.63000000  1
  C  C83  1  0.16722000  0.99917000  0.66639000  1
  C  C84  1  0.33278000  0.75083000  0.58361000  1
  C  C85  1  0.30138000  0.09931000  0.90069000  1
  C  C86  1  0.23399000  0.09258000  0.90742000  1
  C  C87  1  0.31485000  0.13301000  0.86699000  1
  C  C88  1  0.22298000  0.05859000  0.94141000  1
  C  C89  1  0.15675000  0.05080000  0.94920000  1
  C  C90  1  0.19862000  0.15069000  0.84931000  1
  C  C91  1  0.26601000  0.15742000  0.84258000  1
  C  C92  1  0.18515000  0.11699000  0.88301000  1
  C  C93  1  0.11717000  0.11149000  0.88851000  1
  C  C94  1  0.10161000  0.07837000  0.92163000  1
  C  C95  1  0.70144000  0.67939000  0.92654000  1
  C  C96  1  0.67441000  0.76406000  0.87487000  1
  C  C97  1  0.71760000  0.70610000  0.84320000  1
  C  C98  1  0.75391000  0.63189000  0.85420000  1
  C  C99  1  0.79856000  0.57061000  0.82346000  1
  C  C100  1  0.82560000  0.48594000  0.87513000  1
  C  C101  1  0.78241000  0.54391000  0.90680000  1
  C  C102  1  0.74609000  0.61811000  0.89580000  1
  C  C103  1  0.66722000  0.74917000  0.91639000  1
  C  C104  1  0.83278000  0.50083000  0.83361000  1
  C  C105  1  0.69263000  0.07786000  0.87642000  1
  C  C106  1  0.68667000  0.11900000  0.94460000  1
  C  C107  1  0.73311000  0.14905000  0.93145000  1
  C  C108  1  0.76000000  0.14276000  0.88885000  1
  C  C109  1  0.80737000  0.17214000  0.87358000  1
  C  C110  1  0.81333000  0.13100000  0.80540000  1
  C  C111  1  0.76689000  0.10095000  0.81855000  1
  C  C112  1  0.74000000  0.10724000  0.86115000  1
  C  C113  1  0.66722000  0.08361000  0.91639000  1
  C  C114  1  0.83278000  0.16639000  0.83361000  1
  C  C115  1  0.69862000  0.90069000  0.09931000  1
  C  C116  1  0.76602000  0.90742000  0.09258000  1
  C  C117  1  0.68515000  0.86699000  0.13301000  1
  C  C118  1  0.77702000  0.94142000  0.05859000  1
  C  C119  1  0.84325000  0.94920000  0.05080000  1
  C  C120  1  0.80138000  0.84931000  0.15069000  1
  C  C121  1  0.73399000  0.84258000  0.15742000  1
  C  C122  1  0.81485000  0.88301000  0.11699000  1
  C  C123  1  0.88283000  0.88851000  0.11149000  1
  C  C124  1  0.89840000  0.92163000  0.07838000  1
  C  C125  1  0.25285000  0.29775000  0.09631000  1
  C  C126  1  0.38920000  0.26774000  0.09333000  1
  C  C127  1  0.36290000  0.33415000  0.11656000  1
  C  C128  1  0.27769000  0.38391000  0.13000000  1
  C  C129  1  0.24715000  0.45225000  0.15369000  1
  C  C130  1  0.11081000  0.48226000  0.15667000  1
  C  C131  1  0.13710000  0.41585000  0.13344000  1
  C  C132  1  0.22231000  0.36609000  0.12000000  1
  C  C133  1  0.33278000  0.25083000  0.08361000  1
  C  C134  1  0.16722000  0.49917000  0.16639000  1
  C  C135  1  0.35309000  0.85357000  0.10072000  1
  C  C136  1  0.24973000  0.97640000  0.08720000  1
  C  C137  1  0.18639000  0.97170000  0.10880000  1
  C  C138  1  0.20840000  0.90465000  0.12696000  1
  C  C139  1  0.14691000  0.89643000  0.14928000  1
  C  C140  1  0.25027000  0.77360000  0.16280000  1
  C  C141  1  0.31361000  0.77831000  0.14120000  1
  C  C142  1  0.29161000  0.84535000  0.12305000  1
  C  C143  1  0.33278000  0.91639000  0.08361000  1
  C  C144  1  0.16722000  0.83361000  0.16639000  1
  C  C145  1  0.09533000  0.53679000  0.61300000  1
  C  C146  1  0.40467000  0.21321000  0.63700000  1
  C  C147  1  0.72600000  0.55255000  0.29767000  1
  C  C148  1  0.77399000  0.69746000  0.45233000  1
  C  C149  1  0.72601000  0.22145000  0.29767000  1
  C  C150  1  0.77401000  0.02855000  0.45233000  1
  C  C151  1  0.42378000  0.85345000  0.62744000  1
  C  C152  1  0.07621000  0.89657000  0.62256000  1
  C  C153  1  0.77400000  0.52855000  0.95234000  1
  C  C154  1  0.72601000  0.72145000  0.79767000  1
  C  C155  1  0.74512000  0.06210000  0.78811000  1
  C  C156  1  0.75489000  0.18789000  0.96189000  1
  C  C157  1  0.07622000  0.39656000  0.12256000  1
  C  C158  1  0.42379000  0.35344000  0.12743000  1
  C  C159  1  0.40467000  0.71322000  0.13700000  1
  C  C160  1  0.09533000  0.03679000  0.11300000  1
  O  O1  1  0.50000000  0.50000000  0.50000000  1
  O  O2  1  0.60422000  0.32170000  0.48035000  1
  O  O3  1  0.43637000  0.53182000  0.41376000  1
  O  O4  1  0.34136000  0.50756000  0.54686000  1
  O  O5  1  0.59373000  0.38137000  0.42068000  1
  O  O6  1  0.46070000  0.39347000  0.55211000  1
  O  O7  1  0.32752000  0.58624000  0.46818000  1
  O  O8  1  0.34136000  0.65109000  0.54686000  1
  O  O9  1  0.61806000  0.49540000  0.55903000  1
  O  O10  1  0.46070000  0.64584000  0.55211000  1
  O  O11  1  0.61806000  0.38655000  0.55903000  1
  O  O12  1  0.59373000  0.52490000  0.42068000  1
  O  O13  1  0.60422000  0.57408000  0.48035000  1
  O  O14  1  0.00000000  0.25000000  0.75000000  1
  O  O15  1  0.03930000  0.35654000  0.69789000  1
  O  O16  1  0.17248000  0.16376000  0.78181000  1
  O  O17  1  0.90627000  0.36863000  0.82932000  1
  O  O18  1  0.15865000  0.24244000  0.70314000  1
  O  O19  1  0.89578000  0.42830000  0.76965000  1
  O  O20  1  0.06363000  0.21818000  0.83624000  1
  O  O21  1  0.90627000  0.22510000  0.82932000  1
  O  O22  1  0.88195000  0.25460000  0.69097000  1
  O  O23  1  0.89578000  0.17592000  0.76965000  1
  O  O24  1  0.88194000  0.36345000  0.69097000  1
  O  O25  1  0.15865000  0.09892000  0.70314000  1
  O  O26  1  0.03930000  0.10416000  0.69789000  1
  O  O27  1  0.00000000  0.75000000  0.25000000  1
  O  O28  1  0.90627000  0.72510000  0.32932000  1
  O  O29  1  0.88195000  0.75460000  0.19097000  1
  O  O30  1  0.89578000  0.92830000  0.26965000  1
  O  O31  1  0.89578000  0.67593000  0.26965000  1
  O  O32  1  0.90627000  0.86863000  0.32932000  1
  O  O33  1  0.88195000  0.86345000  0.19097000  1
  O  O34  1  0.03931000  0.85654000  0.19789000  1
  O  O35  1  0.17248000  0.66376000  0.28182000  1
  O  O36  1  0.15865000  0.74244000  0.20314000  1
  O  O37  1  0.06363000  0.71819000  0.33624000  1
  O  O38  1  0.03930000  0.60416000  0.19789000  1
  O  O39  1  0.15865000  0.59892000  0.20314000  1
  O  O40  1  0.50000000  0.00000000  0.00000000  1
  O  O41  1  0.34135000  0.15109000  0.04686000  1
  O  O42  1  0.61806000  0.99540000  0.05903000  1
  O  O43  1  0.46070000  0.89347000  0.05211000  1
  O  O44  1  0.46070000  0.14584000  0.05211000  1
  O  O45  1  0.34135000  0.00756000  0.04686000  1
  O  O46  1  0.61806000  0.88655000  0.05903000  1
  O  O47  1  0.60422000  0.82170000  0.98035000  1
  O  O48  1  0.43637000  0.03182000  0.91376000  1
  O  O49  1  0.59373000  0.88138000  0.92068000  1
  O  O50  1  0.32752000  0.08624000  0.96818000  1
  O  O51  1  0.60422000  0.07408000  0.98035000  1
  O  O52  1  0.59373000  0.02490000  0.92068000  1
  O  O53  1  0.64669000  0.58410000  0.73079000  1
  O  O54  1  0.53842000  0.63824000  0.67665000  1
  O  O55  1  0.03842000  0.88824000  0.42665000  1
  O  O56  1  0.14669000  0.83410000  0.48079000  1
  O  O57  1  0.14669000  0.01921000  0.98079000  1
  O  O58  1  0.03841000  0.07335000  0.92665000  1
  O  O59  1  0.85331000  0.98079000  0.01921000  1
  O  O60  1  0.96159000  0.92666000  0.07335000  1
