# generated using pymatgen
data_CuH11C19ClO4
_symmetry_space_group_name_H-M   'P 1'
_cell_length_a   30.03820000
_cell_length_b   59.25230000
_cell_length_c   21.11320000
_cell_angle_alpha   122.42100000
_cell_angle_beta   45.16740000
_cell_angle_gamma   139.50700000
_symmetry_Int_Tables_number   1
_chemical_formula_structural   CuH11C19ClO4
_chemical_formula_sum   'Cu8 H88 C152 Cl8 O32'
_cell_volume   17304.76214887
_cell_formula_units_Z   8
loop_
 _symmetry_equiv_pos_site_id
 _symmetry_equiv_pos_as_xyz
  1  'x, y, z'
loop_
 _atom_site_type_symbol
 _atom_site_label
 _atom_site_symmetry_multiplicity
 _atom_site_fract_x
 _atom_site_fract_y
 _atom_site_fract_z
 _atom_site_occupancy
  Cu  Cu1  1  0.45782000  0.49996000  0.58499000  1
  Cu  Cu2  1  0.54218000  0.50004000  0.41501000  1
  Cu  Cu3  1  0.04205000  0.49994000  0.41498000  1
  Cu  Cu4  1  0.95794000  0.50003000  0.58497000  1
  Cu  Cu5  1  0.70737000  0.00006000  0.49820000  1
  Cu  Cu6  1  0.79160000  0.99993000  0.49883000  1
  Cu  Cu7  1  0.29323000  0.99991000  0.50151000  1
  Cu  Cu8  1  0.20870000  0.00009000  0.50168000  1
  H  H1  1  0.57946000  0.49995000  0.63145000  1
  H  H2  1  0.70974000  0.49995000  0.36854000  1
  H  H3  1  0.92041000  0.49995000  0.36852000  1
  H  H4  1  0.79013000  0.49995000  0.63144000  1
  H  H5  1  0.60521000  0.45868000  0.64721000  1
  H  H6  1  0.58213000  0.48924000  0.71751000  1
  H  H7  1  0.87493000  0.54121000  0.35277000  1
  H  H8  1  0.82984000  0.51066000  0.28248000  1
  H  H9  1  0.77083000  0.45868000  0.35279000  1
  H  H10  1  0.88558000  0.48923000  0.28248000  1
  H  H11  1  0.74876000  0.54122000  0.64719000  1
  H  H12  1  0.70217000  0.51066000  0.71749000  1
  H  H13  1  0.29029000  0.50006000  0.63145000  1
  H  H14  1  0.42051000  0.50002000  0.36854000  1
  H  H15  1  0.20984000  0.50001000  0.36852000  1
  H  H16  1  0.07961000  0.50005000  0.63144000  1
  H  H17  1  0.24894000  0.54133000  0.64714000  1
  H  H18  1  0.20235000  0.51079000  0.71749000  1
  H  H19  1  0.27091000  0.45874000  0.35283000  1
  H  H20  1  0.38567000  0.48929000  0.28249000  1
  H  H21  1  0.37504000  0.54128000  0.35272000  1
  H  H22  1  0.32993000  0.51071000  0.28246000  1
  H  H23  1  0.10535000  0.45879000  0.64725000  1
  H  H24  1  0.08230000  0.48936000  0.71751000  1
  H  H25  1  0.83797000  0.10532000  0.49847000  1
  H  H26  1  0.93292000  0.16860000  0.49868000  1
  H  H27  1  0.07202000  0.16839000  0.49920000  1
  H  H28  1  0.07756000  0.21845000  0.59873000  1
  H  H29  1  0.07773000  0.21871000  0.39947000  1
  H  H30  1  0.31680000  0.33157000  0.35935000  1
  H  H31  1  0.27249000  0.39471000  0.63970000  1
  H  H32  1  0.17746000  0.33142000  0.63958000  1
  H  H33  1  0.17204000  0.28154000  0.39967000  1
  H  H34  1  0.17186000  0.28128000  0.59894000  1
  H  H35  1  0.16246000  0.89463000  0.50129000  1
  H  H36  1  0.06743000  0.83134000  0.50110000  1
  H  H37  1  0.92834000  0.83166000  0.50086000  1
  H  H38  1  0.82389000  0.78148000  0.60019000  1
  H  H39  1  0.02140000  0.78135000  0.40147000  1
  H  H40  1  0.82260000  0.66857000  0.36039000  1
  H  H41  1  0.58838000  0.60515000  0.64034000  1
  H  H42  1  0.68341000  0.66843000  0.64061000  1
  H  H43  1  0.92701000  0.71852000  0.40129000  1
  H  H44  1  0.72950000  0.71865000  0.60001000  1
  H  H45  1  0.47777000  0.10530000  0.50174000  1
  H  H46  1  0.57271000  0.16859000  0.50150000  1
  H  H47  1  0.43297000  0.16838000  0.50098000  1
  H  H48  1  0.57765000  0.21844000  0.40142000  1
  H  H49  1  0.57824000  0.21870000  0.60068000  1
  H  H50  1  0.67781000  0.33156000  0.64073000  1
  H  H51  1  0.91157000  0.39469000  0.36034000  1
  H  H52  1  0.81671000  0.33141000  0.36050000  1
  H  H53  1  0.67246000  0.28153000  0.60044000  1
  H  H54  1  0.67186000  0.28127000  0.40118000  1
  H  H55  1  0.52164000  0.89462000  0.49845000  1
  H  H56  1  0.42679000  0.83133000  0.49867000  1
  H  H57  1  0.56681000  0.83164000  0.49891000  1
  H  H58  1  0.52070000  0.78146000  0.39961000  1
  H  H59  1  0.32282000  0.78135000  0.59833000  1
  H  H60  1  0.18320000  0.66856000  0.63949000  1
  H  H61  1  0.22712000  0.60513000  0.35957000  1
  H  H62  1  0.32198000  0.66842000  0.35926000  1
  H  H63  1  0.22869000  0.71852000  0.59856000  1
  H  H64  1  0.42657000  0.71864000  0.39983000  1
  H  H65  1  0.82858000  0.00000000  0.20780000  1
  H  H66  1  0.95905000  0.99994000  0.20879000  1
  H  H67  1  0.16913000  0.99984000  0.78615000  1
  H  H68  1  0.03866000  0.99990000  0.78516000  1
  H  H69  1  0.97794000  0.04123000  0.01614000  1
  H  H70  1  0.86318000  0.01070000  0.08430000  1
  H  H71  1  0.00010000  0.95862000  0.01739000  1
  H  H72  1  0.04689000  0.98918000  0.08597000  1
  H  H73  1  0.14372000  0.04115000  0.97767000  1
  H  H74  1  0.16671000  0.01056000  0.90961000  1
  H  H75  1  0.87366000  0.95868000  0.97671000  1
  H  H76  1  0.91864000  0.98923000  0.90802000  1
  H  H77  1  0.53991000  0.00003000  0.78825000  1
  H  H78  1  0.67045000  0.00001000  0.78922000  1
  H  H79  1  0.46040000  0.00012000  0.21186000  1
  H  H80  1  0.32985000  0.00014000  0.21089000  1
  H  H81  1  0.37494000  0.95881000  0.97981000  1
  H  H82  1  0.41988000  0.98936000  0.91112000  1
  H  H83  1  0.64503000  0.04133000  0.98073000  1
  H  H84  1  0.66805000  0.01075000  0.91268000  1
  H  H85  1  0.50145000  0.95880000  0.02047000  1
  H  H86  1  0.54825000  0.98937000  0.08904000  1
  H  H87  1  0.47918000  0.04136000  0.01922000  1
  H  H88  1  0.36442000  0.01083000  0.08739000  1
  C  C1  1  0.40221000  0.43481000  0.49980000  1
  C  C2  1  0.59779000  0.56518000  0.50020000  1
  C  C3  1  0.41657000  0.50004000  0.50000000  1
  C  C4  1  0.58342000  0.49995000  0.50000000  1
  C  C5  1  0.90220000  0.43481000  0.50022000  1
  C  C6  1  0.09780000  0.56517000  0.49974000  1
  C  C7  1  0.08355000  0.50003000  0.49998000  1
  C  C8  1  0.91644000  0.49995000  0.49998000  1
  C  C9  1  0.84738000  0.06518000  0.49861000  1
  C  C10  1  0.65160000  0.93481000  0.49843000  1
  C  C11  1  0.66617000  0.99999000  0.66602000  1
  C  C12  1  0.83281000  0.00000000  0.33101000  1
  C  C13  1  0.15310000  0.93482000  0.50129000  1
  C  C14  1  0.34883000  0.06519000  0.50191000  1
  C  C15  1  0.16779000  0.99984000  0.66910000  1
  C  C16  1  0.33413000  0.00016000  0.33409000  1
  C  C17  1  0.63116000  0.48672000  0.65703000  1
  C  C18  1  0.82648000  0.51318000  0.34295000  1
  C  C19  1  0.82901000  0.48672000  0.34295000  1
  C  C20  1  0.71308000  0.51318000  0.65702000  1
  C  C21  1  0.62205000  0.49995000  0.57544000  1
  C  C22  1  0.66758000  0.49995000  0.57705000  1
  C  C23  1  0.69681000  0.49995000  0.42455000  1
  C  C24  1  0.74395000  0.49995000  0.42293000  1
  C  C25  1  0.87782000  0.49995000  0.42454000  1
  C  C26  1  0.83228000  0.49995000  0.42292000  1
  C  C27  1  0.80305000  0.49995000  0.57543000  1
  C  C28  1  0.75591000  0.49995000  0.57705000  1
  C  C29  1  0.63307000  0.49995000  0.50000000  1
  C  C30  1  0.72676000  0.49995000  0.49999000  1
  C  C31  1  0.86680000  0.49995000  0.49998000  1
  C  C32  1  0.77310000  0.49995000  0.49999000  1
  C  C33  1  0.21325000  0.51329000  0.65701000  1
  C  C34  1  0.32911000  0.48678000  0.34297000  1
  C  C35  1  0.32659000  0.51324000  0.34293000  1
  C  C36  1  0.13131000  0.48683000  0.65704000  1
  C  C37  1  0.30320000  0.50005000  0.57544000  1
  C  C38  1  0.25606000  0.50005000  0.57705000  1
  C  C39  1  0.37793000  0.50003000  0.42455000  1
  C  C40  1  0.33240000  0.50002000  0.42293000  1
  C  C41  1  0.19693000  0.50002000  0.42454000  1
  C  C42  1  0.24407000  0.50002000  0.42292000  1
  C  C43  1  0.12219000  0.50004000  0.57543000  1
  C  C44  1  0.16772000  0.50005000  0.57705000  1
  C  C45  1  0.36693000  0.50004000  0.50000000  1
  C  C46  1  0.27323000  0.50004000  0.49999000  1
  C  C47  1  0.13320000  0.50003000  0.49998000  1
  C  C48  1  0.22689000  0.50003000  0.49999000  1
  C  C49  1  0.90121000  0.10103000  0.49872000  1
  C  C50  1  0.88766000  0.11886000  0.49863000  1
  C  C51  1  0.94226000  0.15516000  0.49875000  1
  C  C52  1  0.96807000  0.11873000  0.49893000  1
  C  C53  1  0.02246000  0.15504000  0.49905000  1
  C  C54  1  0.01003000  0.17353000  0.49896000  1
  C  C55  1  0.06955000  0.21319000  0.49908000  1
  C  C56  1  0.09733000  0.23166000  0.55649000  1
  C  C57  1  0.09743000  0.23180000  0.44180000  1
  C  C58  1  0.34839000  0.39896000  0.49968000  1
  C  C59  1  0.36200000  0.38124000  0.41864000  1
  C  C60  1  0.30741000  0.34493000  0.41872000  1
  C  C61  1  0.28146000  0.38115000  0.58062000  1
  C  C62  1  0.22706000  0.34485000  0.58030000  1
  C  C63  1  0.23957000  0.32646000  0.49945000  1
  C  C64  1  0.18005000  0.28680000  0.49932000  1
  C  C65  1  0.15226000  0.26833000  0.44192000  1
  C  C66  1  0.15216000  0.26819000  0.55661000  1
  C  C67  1  0.09923000  0.89896000  0.50118000  1
  C  C68  1  0.11275000  0.88111000  0.50120000  1
  C  C69  1  0.05811000  0.84480000  0.50109000  1
  C  C70  1  0.03235000  0.88129000  0.50106000  1
  C  C71  1  0.97791000  0.84498000  0.50095000  1
  C  C72  1  0.99032000  0.82646000  0.50097000  1
  C  C73  1  0.93074000  0.78681000  0.50085000  1
  C  C74  1  0.84604000  0.76830000  0.55798000  1
  C  C75  1  0.95973000  0.76823000  0.44360000  1
  C  C76  1  0.65166000  0.60104000  0.50030000  1
  C  C77  1  0.71857000  0.61884000  0.41936000  1
  C  C78  1  0.77301000  0.65514000  0.41967000  1
  C  C79  1  0.63811000  0.61876000  0.58134000  1
  C  C80  1  0.69276000  0.65507000  0.58125000  1
  C  C81  1  0.76057000  0.67354000  0.50052000  1
  C  C82  1  0.82015000  0.71319000  0.50063000  1
  C  C83  1  0.90485000  0.73170000  0.44350000  1
  C  C84  1  0.79116000  0.73177000  0.55788000  1
  C  C85  1  0.40168000  0.10102000  0.50150000  1
  C  C86  1  0.46870000  0.11885000  0.50158000  1
  C  C87  1  0.52304000  0.15515000  0.50144000  1
  C  C88  1  0.38792000  0.11873000  0.50128000  1
  C  C89  1  0.44247000  0.15503000  0.50114000  1
  C  C90  1  0.51039000  0.17352000  0.50122000  1
  C  C91  1  0.56986000  0.21318000  0.50107000  1
  C  C92  1  0.59749000  0.23165000  0.44365000  1
  C  C93  1  0.59784000  0.23180000  0.55834000  1
  C  C94  1  0.84843000  0.39895000  0.50035000  1
  C  C95  1  0.78165000  0.38123000  0.58141000  1
  C  C96  1  0.72731000  0.34493000  0.58135000  1
  C  C97  1  0.86193000  0.38114000  0.41943000  1
  C  C98  1  0.80739000  0.34484000  0.41978000  1
  C  C99  1  0.73971000  0.32645000  0.50063000  1
  C  C100  1  0.68025000  0.28679000  0.50079000  1
  C  C101  1  0.65261000  0.26832000  0.55820000  1
  C  C102  1  0.65227000  0.26818000  0.44351000  1
  C  C103  1  0.59787000  0.89895000  0.49855000  1
  C  C104  1  0.53079000  0.88110000  0.49855000  1
  C  C105  1  0.47650000  0.84480000  0.49868000  1
  C  C106  1  0.61173000  0.88128000  0.49869000  1
  C  C107  1  0.55724000  0.84497000  0.49882000  1
  C  C108  1  0.48925000  0.82645000  0.49881000  1
  C  C109  1  0.42984000  0.78680000  0.49895000  1
  C  C110  1  0.45901000  0.76829000  0.44183000  1
  C  C111  1  0.34511000  0.76822000  0.55621000  1
  C  C112  1  0.15152000  0.60103000  0.49961000  1
  C  C113  1  0.13802000  0.61883000  0.58054000  1
  C  C114  1  0.19251000  0.65514000  0.58021000  1
  C  C115  1  0.21824000  0.61875000  0.41856000  1
  C  C116  1  0.27253000  0.65505000  0.41864000  1
  C  C117  1  0.26014000  0.67353000  0.49936000  1
  C  C118  1  0.31955000  0.71318000  0.49921000  1
  C  C119  1  0.29038000  0.73169000  0.55634000  1
  C  C120  1  0.40428000  0.73176000  0.44196000  1
  C  C121  1  0.91974000  0.01319000  0.03872000  1
  C  C122  1  0.03586000  0.98666000  0.03994000  1
  C  C123  1  0.11771000  0.01310000  0.95518000  1
  C  C124  1  0.92211000  0.98671000  0.95405000  1
  C  C125  1  0.87117000  0.99998000  0.17825000  1
  C  C126  1  0.91657000  0.99996000  0.08529000  1
  C  C127  1  0.94605000  0.99994000  0.17881000  1
  C  C128  1  0.99305000  0.99992000  0.08587000  1
  C  C129  1  0.12654000  0.99986000  0.81570000  1
  C  C130  1  0.08114000  0.99988000  0.90866000  1
  C  C131  1  0.05166000  0.99989000  0.81514000  1
  C  C132  1  0.00465000  0.99992000  0.90808000  1
  C  C133  1  0.88232000  0.99997000  0.23142000  1
  C  C134  1  0.97575000  0.99993000  0.04345000  1
  C  C135  1  0.11539000  0.99986000  0.76253000  1
  C  C136  1  0.02195000  0.99991000  0.95050000  1
  C  C137  1  0.42337000  0.98685000  0.95715000  1
  C  C138  1  0.61904000  0.01328000  0.95825000  1
  C  C139  1  0.53721000  0.98685000  0.04302000  1
  C  C140  1  0.42099000  0.01333000  0.04181000  1
  C  C141  1  0.55293000  0.00004000  0.81822000  1
  C  C142  1  0.50592000  0.00006000  0.91117000  1
  C  C143  1  0.62784000  0.00002000  0.81878000  1
  C  C144  1  0.58245000  0.00005000  0.91174000  1
  C  C145  1  0.44738000  0.00012000  0.18189000  1
  C  C146  1  0.49438000  0.00009000  0.08894000  1
  C  C147  1  0.37246000  0.00013000  0.18134000  1
  C  C148  1  0.41785000  0.00011000  0.08838000  1
  C  C149  1  0.61667000  0.00002000  0.76561000  1
  C  C150  1  0.52325000  0.00006000  0.95358000  1
  C  C151  1  0.38363000  0.00014000  0.23450000  1
  C  C152  1  0.47705000  0.00009000  0.04653000  1
  Cl  Cl1  1  0.98335000  0.09537000  0.49904000  1
  Cl  Cl2  1  0.44726000  0.40457000  0.31753000  1
  Cl  Cl3  1  0.01711000  0.90469000  0.50104000  1
  Cl  Cl4  1  0.73385000  0.59560000  0.31812000  1
  Cl  Cl5  1  0.30256000  0.09537000  0.50118000  1
  Cl  Cl6  1  0.76641000  0.40457000  0.68250000  1
  Cl  Cl7  1  0.69717000  0.90467000  0.49869000  1
  Cl  Cl8  1  0.05303000  0.59560000  0.68180000  1
  O  O1  1  0.39281000  0.45477000  0.57913000  1
  O  O2  1  0.52852000  0.54524000  0.57940000  1
  O  O3  1  0.40280000  0.50006000  0.57926000  1
  O  O4  1  0.51853000  0.49995000  0.57926000  1
  O  O5  1  0.59722000  0.49995000  0.42074000  1
  O  O6  1  0.48145000  0.50003000  0.42074000  1
  O  O7  1  0.60718000  0.54526000  0.42088000  1
  O  O8  1  0.47149000  0.45475000  0.42060000  1
  O  O9  1  0.97147000  0.45476000  0.42088000  1
  O  O10  1  0.10723000  0.54523000  0.42055000  1
  O  O11  1  0.09737000  0.50004000  0.42071000  1
  O  O12  1  0.98133000  0.49994000  0.42071000  1
  O  O13  1  0.90265000  0.49995000  0.57924000  1
  O  O14  1  0.01864000  0.50002000  0.57924000  1
  O  O15  1  0.02865000  0.54526000  0.57907000  1
  O  O16  1  0.89275000  0.45475000  0.57940000  1
  O  O17  1  0.77802000  0.04524000  0.49839000  1
  O  O18  1  0.64213000  0.95477000  0.49831000  1
  O  O19  1  0.65222000  0.99998000  0.61460000  1
  O  O20  1  0.76793000  0.00003000  0.38211000  1
  O  O21  1  0.84674000  0.99999000  0.38243000  1
  O  O22  1  0.73106000  0.99997000  0.61492000  1
  O  O23  1  0.72083000  0.95471000  0.49876000  1
  O  O24  1  0.85686000  0.04522000  0.49869000  1
  O  O25  1  0.22249000  0.95472000  0.50141000  1
  O  O26  1  0.35829000  0.04520000  0.50189000  1
  O  O27  1  0.23270000  0.99987000  0.61790000  1
  O  O28  1  0.34808000  0.00005000  0.38541000  1
  O  O29  1  0.26925000  0.00015000  0.38530000  1
  O  O30  1  0.15384000  0.99994000  0.61779000  1
  O  O31  1  0.27944000  0.04532000  0.50191000  1
  O  O32  1  0.14366000  0.95481000  0.50127000  1
