# generated using pymatgen
data_ZnH15C21N2O5
_symmetry_space_group_name_H-M   'P 1'
_cell_length_a   8.19230000
_cell_length_b   14.01590000
_cell_length_c   23.30250000
_cell_angle_alpha   98.56200000
_cell_angle_beta   90.00000000
_cell_angle_gamma   106.99300000
_symmetry_Int_Tables_number   1
_chemical_formula_structural   ZnH15C21N2O5
_chemical_formula_sum   'Zn4 H60 C84 N8 O20'
_cell_volume   2527.63570925
_cell_formula_units_Z   4
loop_
 _symmetry_equiv_pos_site_id
 _symmetry_equiv_pos_as_xyz
  1  'x, y, z'
loop_
 _atom_site_type_symbol
 _atom_site_label
 _atom_site_symmetry_multiplicity
 _atom_site_fract_x
 _atom_site_fract_y
 _atom_site_fract_z
 _atom_site_occupancy
  Zn  Zn1  1  0.66207000  0.08088000  0.50160000  1
  Zn  Zn2  1  0.58119000  0.91912000  0.99840000  1
  Zn  Zn3  1  0.41881000  0.08088000  0.00160000  1
  Zn  Zn4  1  0.33793000  0.91912000  0.49840000  1
  H  H1  1  0.44680000  0.28420000  0.96920000  1
  H  H2  1  0.06760000  0.12620000  0.74450000  1
  H  H3  1  0.69900000  0.59860000  0.02350000  1
  H  H4  1  0.23150000  0.68120000  0.94820000  1
  H  H5  1  0.25990000  0.23000000  0.57760000  1
  H  H6  1  0.78880000  0.27960000  0.89640000  1
  H  H7  1  0.55030000  0.31880000  0.55180000  1
  H  H8  1  0.05860000  0.12620000  0.24450000  1
  H  H9  1  0.09810000  0.85240000  0.64050000  1
  H  H10  1  0.30100000  0.40140000  0.97650000  1
  H  H11  1  0.86410000  0.95460000  0.34120000  1
  H  H12  1  0.49790000  0.38460000  0.60690000  1
  H  H13  1  0.11330000  0.61540000  0.89310000  1
  H  H14  1  0.24570000  0.14760000  0.85950000  1
  H  H15  1  0.50210000  0.61540000  0.39310000  1
  H  H16  1  0.97090000  0.93060000  0.08560000  1
  H  H17  1  0.95970000  0.93060000  0.58560000  1
  H  H18  1  0.16260000  0.71580000  0.53080000  1
  H  H19  1  0.74010000  0.77000000  0.42240000  1
  H  H20  1  0.90190000  0.14760000  0.35950000  1
  H  H21  1  0.65310000  0.64720000  0.66250000  1
  H  H22  1  0.40010000  0.74940000  0.33240000  1
  H  H23  1  0.04030000  0.06940000  0.41440000  1
  H  H24  1  0.00590000  0.35280000  0.83750000  1
  H  H25  1  0.93240000  0.87380000  0.25550000  1
  H  H26  1  0.53560000  0.33500000  0.75290000  1
  H  H27  1  0.89960000  0.59860000  0.52350000  1
  H  H28  1  0.90950000  0.04540000  0.15880000  1
  H  H29  1  0.12890000  0.12140000  0.06870000  1
  H  H30  1  0.19680000  0.56140000  0.93590000  1
  H  H31  1  0.99250000  0.12140000  0.56870000  1
  H  H32  1  0.50920000  0.72040000  0.60360000  1
  H  H33  1  0.20060000  0.66500000  0.74710000  1
  H  H34  1  0.34930000  0.74940000  0.83240000  1
  H  H35  1  0.34690000  0.35280000  0.33750000  1
  H  H36  1  0.88670000  0.38460000  0.10690000  1
  H  H37  1  0.87110000  0.87860000  0.93130000  1
  H  H38  1  0.21120000  0.72040000  0.10360000  1
  H  H39  1  0.55320000  0.71580000  0.03080000  1
  H  H40  1  0.44970000  0.68120000  0.44820000  1
  H  H41  1  0.10040000  0.40140000  0.47650000  1
  H  H42  1  0.76850000  0.31880000  0.05180000  1
  H  H43  1  0.63540000  0.43860000  0.56410000  1
  H  H44  1  0.46440000  0.66500000  0.24710000  1
  H  H45  1  0.00750000  0.87860000  0.43130000  1
  H  H46  1  0.80320000  0.43860000  0.06410000  1
  H  H47  1  0.75430000  0.85240000  0.14050000  1
  H  H48  1  0.02990000  0.77000000  0.92240000  1
  H  H49  1  0.36460000  0.56140000  0.43590000  1
  H  H50  1  0.49080000  0.27960000  0.39640000  1
  H  H51  1  0.02910000  0.06940000  0.91440000  1
  H  H52  1  0.97010000  0.23000000  0.07760000  1
  H  H53  1  0.13590000  0.04540000  0.65880000  1
  H  H54  1  0.65070000  0.25060000  0.16760000  1
  H  H55  1  0.59990000  0.25060000  0.66760000  1
  H  H56  1  0.79940000  0.33500000  0.25290000  1
  H  H57  1  0.83740000  0.28420000  0.46920000  1
  H  H58  1  0.99410000  0.64720000  0.16250000  1
  H  H59  1  0.09050000  0.95460000  0.84120000  1
  H  H60  1  0.94140000  0.87380000  0.75550000  1
  C  C1  1  0.14690000  0.61640000  0.93360000  1
  C  C2  1  0.02340000  0.84780000  0.77140000  1
  C  C3  1  0.37140000  0.25060000  0.38830000  1
  C  C4  1  0.45400000  0.27600000  0.73350000  1
  C  C5  1  0.73820000  0.65620000  0.00460000  1
  C  C6  1  0.91800000  0.65620000  0.50460000  1
  C  C7  1  0.88030000  0.74800000  0.65970000  1
  C  C8  1  0.14870000  0.17120000  0.86560000  1
  C  C9  1  0.37370000  0.13560000  0.65390000  1
  C  C10  1  0.60810000  0.60340000  0.46930000  1
  C  C11  1  0.33700000  0.92100000  0.90170000  1
  C  C12  1  0.10430000  0.12760000  0.39910000  1
  C  C13  1  0.88090000  0.16600000  0.91230000  1
  C  C14  1  0.46950000  0.61640000  0.43360000  1
  C  C15  1  0.28510000  0.16600000  0.41230000  1
  C  C16  1  0.53050000  0.38360000  0.56640000  1
  C  C17  1  0.07350000  0.72600000  0.50860000  1
  C  C18  1  0.97670000  0.87240000  0.10090000  1
  C  C19  1  0.28640000  0.29380000  0.35280000  1
  C  C20  1  0.41600000  0.07900000  0.59830000  1
  C  C21  1  0.70620000  0.76000000  0.24380000  1
  C  C22  1  0.54600000  0.72400000  0.26650000  1
  C  C23  1  0.98410000  0.82160000  0.45100000  1
  C  C24  1  0.26640000  0.77480000  0.81660000  1
  C  C25  1  0.12080000  0.74940000  0.11170000  1
  C  C26  1  0.21850000  0.10420000  0.67820000  1
  C  C27  1  0.02330000  0.12760000  0.89910000  1
  C  C28  1  0.99260000  0.70620000  0.14720000  1
  C  C29  1  0.58400000  0.92100000  0.40170000  1
  C  C30  1  0.23810000  0.86440000  0.84610000  1
  C  C31  1  0.62630000  0.86440000  0.34610000  1
  C  C32  1  0.21720000  0.32980000  0.52810000  1
  C  C33  1  0.66300000  0.07900000  0.09830000  1
  C  C34  1  0.82200000  0.27600000  0.23350000  1
  C  C35  1  0.29380000  0.24000000  0.75620000  1
  C  C36  1  0.50840000  0.77480000  0.31660000  1
  C  C37  1  0.97750000  0.82880000  0.63440000  1
  C  C38  1  0.16250000  0.17840000  0.04900000  1
  C  C39  1  0.02250000  0.17120000  0.36560000  1
  C  C40  1  0.85310000  0.38360000  0.06640000  1
  C  C41  1  0.39190000  0.39660000  0.53070000  1
  C  C42  1  0.00470000  0.39660000  0.03070000  1
  C  C43  1  0.13230000  0.25200000  0.84030000  1
  C  C44  1  0.86770000  0.74800000  0.15970000  1
  C  C45  1  0.26180000  0.34380000  0.99540000  1
  C  C46  1  0.62860000  0.74940000  0.61170000  1
  C  C47  1  0.87920000  0.25060000  0.88830000  1
  C  C48  1  0.08200000  0.34380000  0.49540000  1
  C  C49  1  0.11910000  0.83400000  0.08770000  1
  C  C50  1  0.63290000  0.88920000  0.55270000  1
  C  C51  1  0.65250000  0.72600000  0.00860000  1
  C  C52  1  0.94620000  0.24000000  0.25620000  1
  C  C53  1  0.36710000  0.11080000  0.44730000  1
  C  C54  1  0.25630000  0.88920000  0.05270000  1
  C  C55  1  0.97660000  0.15220000  0.22860000  1
  C  C56  1  0.11430000  0.89580000  0.82180000  1
  C  C57  1  0.85130000  0.82880000  0.13440000  1
  C  C58  1  0.17500000  0.24320000  0.55490000  1
  C  C59  1  0.11260000  0.32980000  0.02810000  1
  C  C60  1  0.93180000  0.75680000  0.94510000  1
  C  C61  1  0.06820000  0.24320000  0.05490000  1
  C  C62  1  0.78280000  0.67020000  0.47190000  1
  C  C63  1  0.82440000  0.84780000  0.27140000  1
  C  C64  1  0.05380000  0.76000000  0.74380000  1
  C  C65  1  0.88570000  0.10420000  0.17820000  1
  C  C66  1  0.71360000  0.70620000  0.64720000  1
  C  C67  1  0.17560000  0.15220000  0.72860000  1
  C  C68  1  0.89570000  0.87240000  0.60090000  1
  C  C69  1  0.82500000  0.75680000  0.44510000  1
  C  C70  1  0.49160000  0.22520000  0.68340000  1
  C  C71  1  0.34750000  0.27400000  0.99140000  1
  C  C72  1  0.83750000  0.82160000  0.95100000  1
  C  C73  1  0.78150000  0.89580000  0.32180000  1
  C  C74  1  0.99530000  0.60340000  0.96930000  1
  C  C75  1  0.01590000  0.17840000  0.54900000  1
  C  C76  1  0.88740000  0.67020000  0.97190000  1
  C  C77  1  0.76190000  0.13560000  0.15390000  1
  C  C78  1  0.73360000  0.22520000  0.18340000  1
  C  C79  1  0.11970000  0.25200000  0.34030000  1
  C  C80  1  0.74370000  0.11080000  0.94730000  1
  C  C81  1  0.71490000  0.83400000  0.58770000  1
  C  C82  1  0.00740000  0.29380000  0.85280000  1
  C  C83  1  0.92650000  0.27400000  0.49140000  1
  C  C84  1  0.17800000  0.72400000  0.76650000  1
  N  N1  1  0.05230000  0.46920000  0.99990000  1
  N  N2  1  0.70150000  0.81060000  0.98230000  1
  N  N3  1  0.89090000  0.18940000  0.51770000  1
  N  N4  1  0.29850000  0.18940000  0.01770000  1
  N  N5  1  0.10910000  0.81060000  0.48230000  1
  N  N6  1  0.58310000  0.53080000  0.50010000  1
  N  N7  1  0.41690000  0.46920000  0.49990000  1
  N  N8  1  0.94770000  0.53080000  0.00010000  1
  O  O1  1  0.74670000  0.02880000  0.95950000  1
  O  O2  1  0.03750000  0.29900000  0.30630000  1
  O  O3  1  0.69140000  0.00240000  0.42400000  1
  O  O4  1  0.96250000  0.70100000  0.69370000  1
  O  O5  1  0.28210000  0.02880000  0.45950000  1
  O  O6  1  0.73850000  0.70100000  0.19370000  1
  O  O7  1  0.30860000  0.99760000  0.57600000  1
  O  O8  1  0.25330000  0.97120000  0.04050000  1
  O  O9  1  0.31100000  0.00240000  0.92400000  1
  O  O10  1  0.62590000  0.15260000  0.95880000  1
  O  O11  1  0.52670000  0.15260000  0.45880000  1
  O  O12  1  0.44410000  0.87680000  0.42330000  1
  O  O13  1  0.37410000  0.84740000  0.04120000  1
  O  O14  1  0.71790000  0.97120000  0.54050000  1
  O  O15  1  0.43270000  0.87680000  0.92330000  1
  O  O16  1  0.47330000  0.84740000  0.54120000  1
  O  O17  1  0.56730000  0.12320000  0.07670000  1
  O  O18  1  0.68900000  0.99760000  0.07600000  1
  O  O19  1  0.26150000  0.29900000  0.80630000  1
  O  O20  1  0.55590000  0.12320000  0.57670000  1
