# generated using pymatgen
data_AlPO4
_symmetry_space_group_name_H-M   'P 1'
_cell_length_a   10.22330000
_cell_length_b   14.60520000
_cell_length_c   14.30410000
_cell_angle_alpha   90.00000000
_cell_angle_beta   90.16200000
_cell_angle_gamma   90.00000000
_symmetry_Int_Tables_number   1
_chemical_formula_structural   AlPO4
_chemical_formula_sum   'Al16 P16 O64'
_cell_volume   2135.78442612
_cell_formula_units_Z   16
loop_
 _symmetry_equiv_pos_site_id
 _symmetry_equiv_pos_as_xyz
  1  'x, y, z'
loop_
 _atom_site_type_symbol
 _atom_site_label
 _atom_site_symmetry_multiplicity
 _atom_site_fract_x
 _atom_site_fract_y
 _atom_site_fract_z
 _atom_site_occupancy
  Al  Al1  1  0.35820000  0.38610000  0.01630000  1
  Al  Al2  1  0.63380000  0.23070000  0.87110000  1
  Al  Al3  1  0.85820000  0.88610000  0.01630000  1
  Al  Al4  1  0.13380000  0.73070000  0.87110000  1
  Al  Al5  1  0.64180000  0.38610000  0.48370000  1
  Al  Al6  1  0.36620000  0.23070000  0.62890000  1
  Al  Al7  1  0.14180000  0.88610000  0.48370000  1
  Al  Al8  1  0.86620000  0.73070000  0.62890000  1
  Al  Al9  1  0.64180000  0.61390000  0.98370000  1
  Al  Al10  1  0.36620000  0.76930000  0.12890000  1
  Al  Al11  1  0.14180000  0.11390000  0.98370000  1
  Al  Al12  1  0.86620000  0.26930000  0.12890000  1
  Al  Al13  1  0.35820000  0.61390000  0.51630000  1
  Al  Al14  1  0.63380000  0.76930000  0.37110000  1
  Al  Al15  1  0.85820000  0.11390000  0.51630000  1
  Al  Al16  1  0.13380000  0.26930000  0.37110000  1
  P  P1  1  0.33260000  0.23520000  0.85740000  1
  P  P2  1  0.66950000  0.39770000  0.01300000  1
  P  P3  1  0.83260000  0.73520000  0.85740000  1
  P  P4  1  0.16950000  0.89770000  0.01300000  1
  P  P5  1  0.66740000  0.23520000  0.64260000  1
  P  P6  1  0.33050000  0.39770000  0.48700000  1
  P  P7  1  0.16740000  0.73520000  0.64260000  1
  P  P8  1  0.83050000  0.89770000  0.48700000  1
  P  P9  1  0.66740000  0.76480000  0.14260000  1
  P  P10  1  0.33050000  0.60230000  0.98700000  1
  P  P11  1  0.16740000  0.26480000  0.14260000  1
  P  P12  1  0.83050000  0.10230000  0.98700000  1
  P  P13  1  0.33260000  0.76480000  0.35740000  1
  P  P14  1  0.66950000  0.60230000  0.51300000  1
  P  P15  1  0.83260000  0.26480000  0.35740000  1
  P  P16  1  0.16950000  0.10230000  0.51300000  1
  O  O1  1  0.53340000  0.39120000  0.05210000  1
  O  O2  1  0.67800000  0.34520000  0.92190000  1
  O  O3  1  0.46210000  0.19140000  0.88640000  1
  O  O4  1  0.32590000  0.25180000  0.75380000  1
  O  O5  1  0.31690000  0.32860000  0.90390000  1
  O  O6  1  0.70860000  0.49630000  0.99210000  1
  O  O7  1  0.22150000  0.17270000  0.88300000  1
  O  O8  1  0.76530000  0.36170000  0.08380000  1
  O  O9  1  0.03340000  0.89120000  0.05210000  1
  O  O10  1  0.17800000  0.84520000  0.92190000  1
  O  O11  1  0.96210000  0.69140000  0.88640000  1
  O  O12  1  0.82590000  0.75180000  0.75380000  1
  O  O13  1  0.81690000  0.82860000  0.90390000  1
  O  O14  1  0.20860000  0.99630000  0.99210000  1
  O  O15  1  0.72150000  0.67270000  0.88300000  1
  O  O16  1  0.26530000  0.86170000  0.08380000  1
  O  O17  1  0.46660000  0.39120000  0.44790000  1
  O  O18  1  0.32200000  0.34520000  0.57810000  1
  O  O19  1  0.53790000  0.19140000  0.61360000  1
  O  O20  1  0.67410000  0.25180000  0.74620000  1
  O  O21  1  0.68310000  0.32860000  0.59610000  1
  O  O22  1  0.29140000  0.49630000  0.50790000  1
  O  O23  1  0.77850000  0.17270000  0.61700000  1
  O  O24  1  0.23470000  0.36170000  0.41620000  1
  O  O25  1  0.96660000  0.89120000  0.44790000  1
  O  O26  1  0.82200000  0.84520000  0.57810000  1
  O  O27  1  0.03790000  0.69140000  0.61360000  1
  O  O28  1  0.17410000  0.75180000  0.74620000  1
  O  O29  1  0.18310000  0.82860000  0.59610000  1
  O  O30  1  0.79140000  0.99630000  0.50790000  1
  O  O31  1  0.27850000  0.67270000  0.61700000  1
  O  O32  1  0.73470000  0.86170000  0.41620000  1
  O  O33  1  0.46660000  0.60880000  0.94790000  1
  O  O34  1  0.32200000  0.65480000  0.07810000  1
  O  O35  1  0.53790000  0.80860000  0.11360000  1
  O  O36  1  0.67410000  0.74820000  0.24620000  1
  O  O37  1  0.68310000  0.67140000  0.09610000  1
  O  O38  1  0.29140000  0.50370000  0.00790000  1
  O  O39  1  0.77850000  0.82730000  0.11700000  1
  O  O40  1  0.23470000  0.63830000  0.91620000  1
  O  O41  1  0.96660000  0.10880000  0.94790000  1
  O  O42  1  0.82200000  0.15480000  0.07810000  1
  O  O43  1  0.03790000  0.30860000  0.11360000  1
  O  O44  1  0.17410000  0.24820000  0.24620000  1
  O  O45  1  0.18310000  0.17140000  0.09610000  1
  O  O46  1  0.79140000  0.00370000  0.00790000  1
  O  O47  1  0.27850000  0.32730000  0.11700000  1
  O  O48  1  0.73470000  0.13830000  0.91620000  1
  O  O49  1  0.53340000  0.60880000  0.55210000  1
  O  O50  1  0.67800000  0.65480000  0.42190000  1
  O  O51  1  0.46210000  0.80860000  0.38640000  1
  O  O52  1  0.32590000  0.74820000  0.25380000  1
  O  O53  1  0.31690000  0.67140000  0.40390000  1
  O  O54  1  0.70860000  0.50370000  0.49210000  1
  O  O55  1  0.22150000  0.82730000  0.38300000  1
  O  O56  1  0.76530000  0.63830000  0.58380000  1
  O  O57  1  0.03340000  0.10880000  0.55210000  1
  O  O58  1  0.17800000  0.15480000  0.42190000  1
  O  O59  1  0.96210000  0.30860000  0.38640000  1
  O  O60  1  0.82590000  0.24820000  0.25380000  1
  O  O61  1  0.81690000  0.17140000  0.40390000  1
  O  O62  1  0.20860000  0.00370000  0.49210000  1
  O  O63  1  0.72150000  0.32730000  0.38300000  1
  O  O64  1  0.26530000  0.13830000  0.58380000  1
