# generated using pymatgen
data_CuH13C13NO4
_symmetry_space_group_name_H-M   'P 1'
_cell_length_a   21.87640000
_cell_length_b   21.87640000
_cell_length_c   21.87640000
_cell_angle_alpha   90.00000000
_cell_angle_beta   90.00000000
_cell_angle_gamma   90.00000000
_symmetry_Int_Tables_number   1
_chemical_formula_structural   CuH13C13NO4
_chemical_formula_sum   'Cu12 H156 C156 N12 O48'
_cell_volume   10469.53919113
_cell_formula_units_Z   12
loop_
 _symmetry_equiv_pos_site_id
 _symmetry_equiv_pos_as_xyz
  1  'x, y, z'
loop_
 _atom_site_type_symbol
 _atom_site_label
 _atom_site_symmetry_multiplicity
 _atom_site_fract_x
 _atom_site_fract_y
 _atom_site_fract_z
 _atom_site_occupancy
  Cu  Cu1  1  0.93931200  0.50000000  0.50000000  1
  Cu  Cu2  1  0.06068800  0.50000000  0.50000000  1
  Cu  Cu3  1  0.50000000  0.93931200  0.50000000  1
  Cu  Cu4  1  0.50000000  0.06068800  0.50000000  1
  Cu  Cu5  1  0.50000000  0.50000000  0.93931200  1
  Cu  Cu6  1  0.50000000  0.50000000  0.06068800  1
  Cu  Cu7  1  0.43931200  0.00000000  0.00000000  1
  Cu  Cu8  1  0.56068800  0.00000000  0.00000000  1
  Cu  Cu9  1  0.00000000  0.43931200  0.00000000  1
  Cu  Cu10  1  0.00000000  0.56068800  0.00000000  1
  Cu  Cu11  1  0.00000000  0.00000000  0.43931200  1
  Cu  Cu12  1  0.00000000  0.00000000  0.56068800  1
  H  H1  1  0.06252800  0.57244000  0.30261500  1
  H  H2  1  0.06958200  0.56067000  0.19179900  1
  H  H3  1  0.92850200  0.43203500  0.18549100  1
  H  H4  1  0.97910600  0.34539100  0.31038300  1
  H  H5  1  0.93116800  0.35669100  0.37466700  1
  H  H6  1  0.90815200  0.26240300  0.30911400  1
  H  H7  1  0.89100400  0.30897500  0.24628900  1
  H  H8  1  0.79112300  0.29112300  0.28711300  1
  H  H9  1  0.81740700  0.29491300  0.36339000  1
  H  H10  1  0.75877400  0.38597400  0.31347800  1
  H  H11  1  0.80685800  0.40107800  0.37631600  1
  H  H12  1  0.83667100  0.42852100  0.24208900  1
  H  H13  1  0.84118100  0.47952500  0.30223700  1
  H  H14  1  0.93747200  0.57244000  0.69738500  1
  H  H15  1  0.93041800  0.56067000  0.80820100  1
  H  H16  1  0.07149800  0.43203500  0.81450900  1
  H  H17  1  0.02089400  0.34539100  0.68961700  1
  H  H18  1  0.06883200  0.35669100  0.62533300  1
  H  H19  1  0.09184800  0.26240300  0.69088600  1
  H  H20  1  0.10899600  0.30897500  0.75371100  1
  H  H21  1  0.20887700  0.29112300  0.71288700  1
  H  H22  1  0.18259300  0.29491300  0.63661000  1
  H  H23  1  0.24122600  0.38597400  0.68652200  1
  H  H24  1  0.19314200  0.40107800  0.62368400  1
  H  H25  1  0.16332900  0.42852100  0.75791100  1
  H  H26  1  0.15881900  0.47952500  0.69776300  1
  H  H27  1  0.30261500  0.06252800  0.57244000  1
  H  H28  1  0.19179900  0.06958200  0.56067000  1
  H  H29  1  0.18549100  0.92850200  0.43203500  1
  H  H30  1  0.31038300  0.97910600  0.34539100  1
  H  H31  1  0.37466700  0.93116800  0.35669100  1
  H  H32  1  0.30911400  0.90815200  0.26240300  1
  H  H33  1  0.24628900  0.89100400  0.30897500  1
  H  H34  1  0.28711300  0.79112300  0.29112300  1
  H  H35  1  0.36339000  0.81740700  0.29491300  1
  H  H36  1  0.31347800  0.75877400  0.38597400  1
  H  H37  1  0.37631600  0.80685800  0.40107800  1
  H  H38  1  0.24208900  0.83667100  0.42852100  1
  H  H39  1  0.30223700  0.84118100  0.47952500  1
  H  H40  1  0.69738500  0.93747200  0.57244000  1
  H  H41  1  0.80820100  0.93041800  0.56067000  1
  H  H42  1  0.81450900  0.07149800  0.43203500  1
  H  H43  1  0.68961700  0.02089400  0.34539100  1
  H  H44  1  0.62533300  0.06883200  0.35669100  1
  H  H45  1  0.69088600  0.09184800  0.26240300  1
  H  H46  1  0.75371100  0.10899600  0.30897500  1
  H  H47  1  0.71288700  0.20887700  0.29112300  1
  H  H48  1  0.63661000  0.18259300  0.29491300  1
  H  H49  1  0.68652200  0.24122600  0.38597400  1
  H  H50  1  0.62368400  0.19314200  0.40107800  1
  H  H51  1  0.75791100  0.16332900  0.42852100  1
  H  H52  1  0.69776300  0.15881900  0.47952500  1
  H  H53  1  0.57244000  0.30261500  0.06252800  1
  H  H54  1  0.56067000  0.19179900  0.06958200  1
  H  H55  1  0.43203500  0.18549100  0.92850200  1
  H  H56  1  0.34539100  0.31038300  0.97910600  1
  H  H57  1  0.35669100  0.37466700  0.93116800  1
  H  H58  1  0.26240300  0.30911400  0.90815200  1
  H  H59  1  0.30897500  0.24628900  0.89100400  1
  H  H60  1  0.29112300  0.28711300  0.79112300  1
  H  H61  1  0.29491300  0.36339000  0.81740700  1
  H  H62  1  0.38597400  0.31347800  0.75877400  1
  H  H63  1  0.40107800  0.37631600  0.80685800  1
  H  H64  1  0.42852100  0.24208900  0.83667100  1
  H  H65  1  0.47952500  0.30223700  0.84118100  1
  H  H66  1  0.57244000  0.69738500  0.93747200  1
  H  H67  1  0.56067000  0.80820100  0.93041800  1
  H  H68  1  0.43203500  0.81450900  0.07149800  1
  H  H69  1  0.34539100  0.68961700  0.02089400  1
  H  H70  1  0.35669100  0.62533300  0.06883200  1
  H  H71  1  0.26240300  0.69088600  0.09184800  1
  H  H72  1  0.30897500  0.75371100  0.10899600  1
  H  H73  1  0.29112300  0.71288700  0.20887700  1
  H  H74  1  0.29491300  0.63661000  0.18259300  1
  H  H75  1  0.38597400  0.68652200  0.24122600  1
  H  H76  1  0.40107800  0.62368400  0.19314200  1
  H  H77  1  0.42852100  0.75791100  0.16332900  1
  H  H78  1  0.47952500  0.69776300  0.15881900  1
  H  H79  1  0.57244000  0.06252800  0.69738500  1
  H  H80  1  0.56067000  0.06958200  0.80820100  1
  H  H81  1  0.43203500  0.92850200  0.81450900  1
  H  H82  1  0.34539100  0.97910600  0.68961700  1
  H  H83  1  0.35669100  0.93116800  0.62533300  1
  H  H84  1  0.26240300  0.90815200  0.69088600  1
  H  H85  1  0.30897500  0.89100400  0.75371100  1
  H  H86  1  0.29112300  0.79112300  0.71288700  1
  H  H87  1  0.29491300  0.81740700  0.63661000  1
  H  H88  1  0.38597400  0.75877400  0.68652200  1
  H  H89  1  0.40107800  0.80685800  0.62368400  1
  H  H90  1  0.42852100  0.83667100  0.75791100  1
  H  H91  1  0.47952500  0.84118100  0.69776300  1
  H  H92  1  0.57244000  0.93747200  0.30261500  1
  H  H93  1  0.56067000  0.93041800  0.19179900  1
  H  H94  1  0.43203500  0.07149800  0.18549100  1
  H  H95  1  0.34539100  0.02089400  0.31038300  1
  H  H96  1  0.35669100  0.06883200  0.37466700  1
  H  H97  1  0.26240300  0.09184800  0.30911400  1
  H  H98  1  0.30897500  0.10899600  0.24628900  1
  H  H99  1  0.29112300  0.20887700  0.28711300  1
  H  H100  1  0.29491300  0.18259300  0.36339000  1
  H  H101  1  0.38597400  0.24122600  0.31347800  1
  H  H102  1  0.40107800  0.19314200  0.37631600  1
  H  H103  1  0.42852100  0.16332900  0.24208900  1
  H  H104  1  0.47952500  0.15881900  0.30223700  1
  H  H105  1  0.06252800  0.30261500  0.42756000  1
  H  H106  1  0.06958200  0.19179900  0.43933000  1
  H  H107  1  0.92850200  0.18549100  0.56796500  1
  H  H108  1  0.97910600  0.31038300  0.65460900  1
  H  H109  1  0.93116800  0.37466700  0.64330900  1
  H  H110  1  0.90815200  0.30911400  0.73759700  1
  H  H111  1  0.89100400  0.24628900  0.69102500  1
  H  H112  1  0.79112300  0.28711300  0.70887700  1
  H  H113  1  0.81740700  0.36339000  0.70508700  1
  H  H114  1  0.75877400  0.31347800  0.61402600  1
  H  H115  1  0.80685800  0.37631600  0.59892200  1
  H  H116  1  0.83667100  0.24208900  0.57147900  1
  H  H117  1  0.84118100  0.30223700  0.52047500  1
  H  H118  1  0.93747200  0.69738500  0.42756000  1
  H  H119  1  0.93041800  0.80820100  0.43933000  1
  H  H120  1  0.07149800  0.81450900  0.56796500  1
  H  H121  1  0.02089400  0.68961700  0.65460900  1
  H  H122  1  0.06883200  0.62533300  0.64330900  1
  H  H123  1  0.09184800  0.69088600  0.73759700  1
  H  H124  1  0.10899600  0.75371100  0.69102500  1
  H  H125  1  0.20887700  0.71288700  0.70887700  1
  H  H126  1  0.18259300  0.63661000  0.70508700  1
  H  H127  1  0.24122600  0.68652200  0.61402600  1
  H  H128  1  0.19314200  0.62368400  0.59892200  1
  H  H129  1  0.16332900  0.75791100  0.57147900  1
  H  H130  1  0.15881900  0.69776300  0.52047500  1
  H  H131  1  0.30261500  0.57244000  0.93747200  1
  H  H132  1  0.19179900  0.56067000  0.93041800  1
  H  H133  1  0.18549100  0.43203500  0.07149800  1
  H  H134  1  0.31038300  0.34539100  0.02089400  1
  H  H135  1  0.37466700  0.35669100  0.06883200  1
  H  H136  1  0.30911400  0.26240300  0.09184800  1
  H  H137  1  0.24628900  0.30897500  0.10899600  1
  H  H138  1  0.28711300  0.29112300  0.20887700  1
  H  H139  1  0.36339000  0.29491300  0.18259300  1
  H  H140  1  0.31347800  0.38597400  0.24122600  1
  H  H141  1  0.37631600  0.40107800  0.19314200  1
  H  H142  1  0.24208900  0.42852100  0.16332900  1
  H  H143  1  0.30223700  0.47952500  0.15881900  1
  H  H144  1  0.69738500  0.57244000  0.06252800  1
  H  H145  1  0.80820100  0.56067000  0.06958200  1
  H  H146  1  0.81450900  0.43203500  0.92850200  1
  H  H147  1  0.68961700  0.34539100  0.97910600  1
  H  H148  1  0.62533300  0.35669100  0.93116800  1
  H  H149  1  0.69088600  0.26240300  0.90815200  1
  H  H150  1  0.75371100  0.30897500  0.89100400  1
  H  H151  1  0.71288700  0.29112300  0.79112300  1
  H  H152  1  0.63661000  0.29491300  0.81740700  1
  H  H153  1  0.68652200  0.38597400  0.75877400  1
  H  H154  1  0.62368400  0.40107800  0.80685800  1
  H  H155  1  0.75791100  0.42852100  0.83667100  1
  H  H156  1  0.69776300  0.47952500  0.84118100  1
  C  C1  1  0.00000000  0.50000000  0.38471800  1
  C  C2  1  0.00000000  0.38471800  0.50000000  1
  C  C3  1  0.00000000  0.50000000  0.61528200  1
  C  C4  1  0.00000000  0.61528200  0.50000000  1
  C  C5  1  0.38471800  0.00000000  0.50000000  1
  C  C6  1  0.50000000  0.00000000  0.38471800  1
  C  C7  1  0.61528200  0.00000000  0.50000000  1
  C  C8  1  0.50000000  0.00000000  0.61528200  1
  C  C9  1  0.50000000  0.38471800  0.00000000  1
  C  C10  1  0.38471800  0.50000000  0.00000000  1
  C  C11  1  0.50000000  0.61528200  0.00000000  1
  C  C12  1  0.61528200  0.50000000  0.00000000  1
  C  C13  1  0.50000000  0.00000000  0.88471800  1
  C  C14  1  0.50000000  0.88471800  0.00000000  1
  C  C15  1  0.50000000  0.00000000  0.11528200  1
  C  C16  1  0.50000000  0.11528200  0.00000000  1
  C  C17  1  0.88471800  0.50000000  0.00000000  1
  C  C18  1  0.00000000  0.50000000  0.88471800  1
  C  C19  1  0.11528200  0.50000000  0.00000000  1
  C  C20  1  0.00000000  0.50000000  0.11528200  1
  C  C21  1  0.00000000  0.88471800  0.50000000  1
  C  C22  1  0.88471800  0.00000000  0.50000000  1
  C  C23  1  0.00000000  0.11528200  0.50000000  1
  C  C24  1  0.11528200  0.00000000  0.50000000  1
  C  C25  1  0.99448700  0.49824000  0.31031700  1
  C  C26  1  0.02953900  0.54132200  0.27944800  1
  C  C27  1  0.03881600  0.53433500  0.21615000  1
  C  C28  1  0.99759500  0.49915000  0.18342900  1
  C  C29  1  0.95691700  0.46100400  0.21382500  1
  C  C30  1  0.95535300  0.45851000  0.27817100  1
  C  C31  1  0.93153100  0.35705400  0.32430600  1
  C  C32  1  0.89192200  0.30709000  0.29642900  1
  C  C33  1  0.82441500  0.31548600  0.31822400  1
  C  C34  1  0.80547400  0.38507700  0.32780600  1
  C  C35  1  0.84798900  0.42932800  0.29203300  1
  C  C36  1  0.00551300  0.49824000  0.68968300  1
  C  C37  1  0.97046100  0.54132200  0.72055200  1
  C  C38  1  0.96118400  0.53433500  0.78385000  1
  C  C39  1  0.00240500  0.49915000  0.81657100  1
  C  C40  1  0.04308300  0.46100400  0.78617500  1
  C  C41  1  0.04464700  0.45851000  0.72182900  1
  C  C42  1  0.06846900  0.35705400  0.67569400  1
  C  C43  1  0.10807800  0.30709000  0.70357100  1
  C  C44  1  0.17558500  0.31548600  0.68177600  1
  C  C45  1  0.19452600  0.38507700  0.67219400  1
  C  C46  1  0.15201100  0.42932800  0.70796700  1
  C  C47  1  0.31031700  0.99448700  0.49824000  1
  C  C48  1  0.27944800  0.02953900  0.54132200  1
  C  C49  1  0.21615000  0.03881600  0.53433500  1
  C  C50  1  0.18342900  0.99759500  0.49915000  1
  C  C51  1  0.21382500  0.95691700  0.46100400  1
  C  C52  1  0.27817100  0.95535300  0.45851000  1
  C  C53  1  0.32430600  0.93153100  0.35705400  1
  C  C54  1  0.29642900  0.89192200  0.30709000  1
  C  C55  1  0.31822400  0.82441500  0.31548600  1
  C  C56  1  0.32780600  0.80547400  0.38507700  1
  C  C57  1  0.29203300  0.84798900  0.42932800  1
  C  C58  1  0.68968300  0.00551300  0.49824000  1
  C  C59  1  0.72055200  0.97046100  0.54132200  1
  C  C60  1  0.78385000  0.96118400  0.53433500  1
  C  C61  1  0.81657100  0.00240500  0.49915000  1
  C  C62  1  0.78617500  0.04308300  0.46100400  1
  C  C63  1  0.72182900  0.04464700  0.45851000  1
  C  C64  1  0.67569400  0.06846900  0.35705400  1
  C  C65  1  0.70357100  0.10807800  0.30709000  1
  C  C66  1  0.68177600  0.17558500  0.31548600  1
  C  C67  1  0.67219400  0.19452600  0.38507700  1
  C  C68  1  0.70796700  0.15201100  0.42932800  1
  C  C69  1  0.49824000  0.31031700  0.99448700  1
  C  C70  1  0.54132200  0.27944800  0.02953900  1
  C  C71  1  0.53433500  0.21615000  0.03881600  1
  C  C72  1  0.49915000  0.18342900  0.99759500  1
  C  C73  1  0.46100400  0.21382500  0.95691700  1
  C  C74  1  0.45851000  0.27817100  0.95535300  1
  C  C75  1  0.35705400  0.32430600  0.93153100  1
  C  C76  1  0.30709000  0.29642900  0.89192200  1
  C  C77  1  0.31548600  0.31822400  0.82441500  1
  C  C78  1  0.38507700  0.32780600  0.80547400  1
  C  C79  1  0.42932800  0.29203300  0.84798900  1
  C  C80  1  0.49824000  0.68968300  0.00551300  1
  C  C81  1  0.54132200  0.72055200  0.97046100  1
  C  C82  1  0.53433500  0.78385000  0.96118400  1
  C  C83  1  0.49915000  0.81657100  0.00240500  1
  C  C84  1  0.46100400  0.78617500  0.04308300  1
  C  C85  1  0.45851000  0.72182900  0.04464700  1
  C  C86  1  0.35705400  0.67569400  0.06846900  1
  C  C87  1  0.30709000  0.70357100  0.10807800  1
  C  C88  1  0.31548600  0.68177600  0.17558500  1
  C  C89  1  0.38507700  0.67219400  0.19452600  1
  C  C90  1  0.42932800  0.70796700  0.15201100  1
  C  C91  1  0.49824000  0.99448700  0.68968300  1
  C  C92  1  0.54132200  0.02953900  0.72055200  1
  C  C93  1  0.53433500  0.03881600  0.78385000  1
  C  C94  1  0.49915000  0.99759500  0.81657100  1
  C  C95  1  0.46100400  0.95691700  0.78617500  1
  C  C96  1  0.45851000  0.95535300  0.72182900  1
  C  C97  1  0.35705400  0.93153100  0.67569400  1
  C  C98  1  0.30709000  0.89192200  0.70357100  1
  C  C99  1  0.31548600  0.82441500  0.68177600  1
  C  C100  1  0.38507700  0.80547400  0.67219400  1
  C  C101  1  0.42932800  0.84798900  0.70796700  1
  C  C102  1  0.49824000  0.00551300  0.31031700  1
  C  C103  1  0.54132200  0.97046100  0.27944800  1
  C  C104  1  0.53433500  0.96118400  0.21615000  1
  C  C105  1  0.49915000  0.00240500  0.18342900  1
  C  C106  1  0.46100400  0.04308300  0.21382500  1
  C  C107  1  0.45851000  0.04464700  0.27817100  1
  C  C108  1  0.35705400  0.06846900  0.32430600  1
  C  C109  1  0.30709000  0.10807800  0.29642900  1
  C  C110  1  0.31548600  0.17558500  0.31822400  1
  C  C111  1  0.38507700  0.19452600  0.32780600  1
  C  C112  1  0.42932800  0.15201100  0.29203300  1
  C  C113  1  0.99448700  0.31031700  0.50176000  1
  C  C114  1  0.02953900  0.27944800  0.45867800  1
  C  C115  1  0.03881600  0.21615000  0.46566500  1
  C  C116  1  0.99759500  0.18342900  0.50085000  1
  C  C117  1  0.95691700  0.21382500  0.53899600  1
  C  C118  1  0.95535300  0.27817100  0.54149000  1
  C  C119  1  0.93153100  0.32430600  0.64294600  1
  C  C120  1  0.89192200  0.29642900  0.69291000  1
  C  C121  1  0.82441500  0.31822400  0.68451400  1
  C  C122  1  0.80547400  0.32780600  0.61492300  1
  C  C123  1  0.84798900  0.29203300  0.57067200  1
  C  C124  1  0.00551300  0.68968300  0.50176000  1
  C  C125  1  0.97046100  0.72055200  0.45867800  1
  C  C126  1  0.96118400  0.78385000  0.46566500  1
  C  C127  1  0.00240500  0.81657100  0.50085000  1
  C  C128  1  0.04308300  0.78617500  0.53899600  1
  C  C129  1  0.04464700  0.72182900  0.54149000  1
  C  C130  1  0.06846900  0.67569400  0.64294600  1
  C  C131  1  0.10807800  0.70357100  0.69291000  1
  C  C132  1  0.17558500  0.68177600  0.68451400  1
  C  C133  1  0.19452600  0.67219400  0.61492300  1
  C  C134  1  0.15201100  0.70796700  0.57067200  1
  C  C135  1  0.31031700  0.49824000  0.00551300  1
  C  C136  1  0.27944800  0.54132200  0.97046100  1
  C  C137  1  0.21615000  0.53433500  0.96118400  1
  C  C138  1  0.18342900  0.49915000  0.00240500  1
  C  C139  1  0.21382500  0.46100400  0.04308300  1
  C  C140  1  0.27817100  0.45851000  0.04464700  1
  C  C141  1  0.32430600  0.35705400  0.06846900  1
  C  C142  1  0.29642900  0.30709000  0.10807800  1
  C  C143  1  0.31822400  0.31548600  0.17558500  1
  C  C144  1  0.32780600  0.38507700  0.19452600  1
  C  C145  1  0.29203300  0.42932800  0.15201100  1
  C  C146  1  0.68968300  0.49824000  0.99448700  1
  C  C147  1  0.72055200  0.54132200  0.02953900  1
  C  C148  1  0.78385000  0.53433500  0.03881600  1
  C  C149  1  0.81657100  0.49915000  0.99759500  1
  C  C150  1  0.78617500  0.46100400  0.95691700  1
  C  C151  1  0.72182900  0.45851000  0.95535300  1
  C  C152  1  0.67569400  0.35705400  0.93153100  1
  C  C153  1  0.70357100  0.30709000  0.89192200  1
  C  C154  1  0.68177600  0.31548600  0.82441500  1
  C  C155  1  0.67219400  0.38507700  0.80547400  1
  C  C156  1  0.70796700  0.42932800  0.84798900  1
  N  N1  1  0.90937700  0.41919600  0.30669200  1
  N  N2  1  0.09062300  0.41919600  0.69330800  1
  N  N3  1  0.30669200  0.90937700  0.41919600  1
  N  N4  1  0.69330800  0.09062300  0.41919600  1
  N  N5  1  0.41919600  0.30669200  0.90937700  1
  N  N6  1  0.41919600  0.69330800  0.09062300  1
  N  N7  1  0.41919600  0.90937700  0.69330800  1
  N  N8  1  0.41919600  0.09062300  0.30669200  1
  N  N9  1  0.90937700  0.30669200  0.58080400  1
  N  N10  1  0.09062300  0.69330800  0.58080400  1
  N  N11  1  0.30669200  0.41919600  0.09062300  1
  N  N12  1  0.69330800  0.41919600  0.90937700  1
  O  O1  1  0.04829600  0.50000000  0.41260200  1
  O  O2  1  0.95170400  0.50000000  0.41260200  1
  O  O3  1  0.04829600  0.41260200  0.50000000  1
  O  O4  1  0.95170400  0.41260200  0.50000000  1
  O  O5  1  0.04829600  0.50000000  0.58739800  1
  O  O6  1  0.95170400  0.50000000  0.58739800  1
  O  O7  1  0.04829600  0.58739800  0.50000000  1
  O  O8  1  0.95170400  0.58739800  0.50000000  1
  O  O9  1  0.41260200  0.04829600  0.50000000  1
  O  O10  1  0.41260200  0.95170400  0.50000000  1
  O  O11  1  0.50000000  0.04829600  0.41260200  1
  O  O12  1  0.50000000  0.95170400  0.41260200  1
  O  O13  1  0.58739800  0.04829600  0.50000000  1
  O  O14  1  0.58739800  0.95170400  0.50000000  1
  O  O15  1  0.50000000  0.04829600  0.58739800  1
  O  O16  1  0.50000000  0.95170400  0.58739800  1
  O  O17  1  0.50000000  0.41260200  0.04829600  1
  O  O18  1  0.50000000  0.41260200  0.95170400  1
  O  O19  1  0.41260200  0.50000000  0.04829600  1
  O  O20  1  0.41260200  0.50000000  0.95170400  1
  O  O21  1  0.50000000  0.58739800  0.04829600  1
  O  O22  1  0.50000000  0.58739800  0.95170400  1
  O  O23  1  0.58739800  0.50000000  0.04829600  1
  O  O24  1  0.58739800  0.50000000  0.95170400  1
  O  O25  1  0.54829600  0.00000000  0.91260200  1
  O  O26  1  0.45170400  0.00000000  0.91260200  1
  O  O27  1  0.54829600  0.91260200  0.00000000  1
  O  O28  1  0.45170400  0.91260200  0.00000000  1
  O  O29  1  0.54829600  0.00000000  0.08739800  1
  O  O30  1  0.45170400  0.00000000  0.08739800  1
  O  O31  1  0.54829600  0.08739800  0.00000000  1
  O  O32  1  0.45170400  0.08739800  0.00000000  1
  O  O33  1  0.91260200  0.54829600  0.00000000  1
  O  O34  1  0.91260200  0.45170400  0.00000000  1
  O  O35  1  0.00000000  0.54829600  0.91260200  1
  O  O36  1  0.00000000  0.45170400  0.91260200  1
  O  O37  1  0.08739800  0.54829600  0.00000000  1
  O  O38  1  0.08739800  0.45170400  0.00000000  1
  O  O39  1  0.00000000  0.54829600  0.08739800  1
  O  O40  1  0.00000000  0.45170400  0.08739800  1
  O  O41  1  0.00000000  0.91260200  0.54829600  1
  O  O42  1  0.00000000  0.91260200  0.45170400  1
  O  O43  1  0.91260200  0.00000000  0.54829600  1
  O  O44  1  0.91260200  0.00000000  0.45170400  1
  O  O45  1  0.00000000  0.08739800  0.54829600  1
  O  O46  1  0.00000000  0.08739800  0.45170400  1
  O  O47  1  0.08739800  0.00000000  0.54829600  1
  O  O48  1  0.08739800  0.00000000  0.45170400  1
