# generated using pymatgen
data_Ti2H11C15SNO8
_symmetry_space_group_name_H-M   'P 1'
_cell_length_a   20.70900000
_cell_length_b   20.70900000
_cell_length_c   20.70900000
_cell_angle_alpha   90.00000000
_cell_angle_beta   90.00000000
_cell_angle_gamma   90.00000000
_symmetry_Int_Tables_number   1
_chemical_formula_structural   Ti2H11C15SNO8
_chemical_formula_sum   'Ti24 H132 C180 S12 N12 O96'
_cell_volume   8881.31726083
_cell_formula_units_Z   12
loop_
 _symmetry_equiv_pos_site_id
 _symmetry_equiv_pos_as_xyz
  1  'x, y, z'
loop_
 _atom_site_type_symbol
 _atom_site_label
 _atom_site_symmetry_multiplicity
 _atom_site_fract_x
 _atom_site_fract_y
 _atom_site_fract_z
 _atom_site_occupancy
  Ti  Ti1  1  0.99467300  0.99434000  0.11259100  1
  Ti  Ti2  1  0.00532600  0.00566100  0.88741100  1
  Ti  Ti3  1  0.88782300  0.00662800  0.00896600  1
  Ti  Ti4  1  0.11217900  0.99337100  0.99103300  1
  Ti  Ti5  1  0.50532700  0.50566000  0.11259100  1
  Ti  Ti6  1  0.49467400  0.49433900  0.88741100  1
  Ti  Ti7  1  0.61217700  0.49337200  0.00896600  1
  Ti  Ti8  1  0.38782100  0.50662900  0.99103300  1
  Ti  Ti9  1  0.49253800  0.61247100  0.00872100  1
  Ti  Ti10  1  0.50746100  0.38752900  0.99127700  1
  Ti  Ti11  1  0.00746200  0.88752900  0.00872100  1
  Ti  Ti12  1  0.99253900  0.11247100  0.99127700  1
  Ti  Ti13  1  0.50532700  0.99434000  0.38740900  1
  Ti  Ti14  1  0.49467400  0.00566100  0.61258900  1
  Ti  Ti15  1  0.61217700  0.00662800  0.49103400  1
  Ti  Ti16  1  0.38782100  0.99337100  0.50896700  1
  Ti  Ti17  1  0.49253800  0.88752900  0.49127900  1
  Ti  Ti18  1  0.50746100  0.11247100  0.50872300  1
  Ti  Ti19  1  0.99467300  0.50566000  0.38740900  1
  Ti  Ti20  1  0.00532600  0.49433900  0.61258900  1
  Ti  Ti21  1  0.88782300  0.49337200  0.49103400  1
  Ti  Ti22  1  0.11217900  0.50662900  0.50896700  1
  Ti  Ti23  1  0.00746200  0.61247100  0.49127900  1
  Ti  Ti24  1  0.99253900  0.38752900  0.50872300  1
  H  H1  1  0.73940700  0.90474300  0.41014500  1
  H  H2  1  0.71221800  0.79981600  0.45878100  1
  H  H3  1  0.68657600  0.72173100  0.26288400  1
  H  H4  1  0.72015900  0.82421800  0.21842200  1
  H  H5  1  0.69707100  0.67840000  0.43350400  1
  H  H6  1  0.58651500  0.62070900  0.31990200  1
  H  H7  1  0.52989600  0.59777500  0.37834800  1
  H  H8  1  0.61002500  0.57523300  0.38997500  1
  H  H9  1  0.70908600  0.10180900  0.29580500  1
  H  H10  1  0.79603900  0.10234200  0.21329700  1
  H  H11  1  0.80990400  0.89602700  0.21639600  1
  H  H12  1  0.76059300  0.59525700  0.41014500  1
  H  H13  1  0.78778200  0.70018400  0.45878100  1
  H  H14  1  0.81342400  0.77826900  0.26288400  1
  H  H15  1  0.77984100  0.67578200  0.21842200  1
  H  H16  1  0.80292900  0.82160000  0.43350400  1
  H  H17  1  0.91348500  0.87929100  0.31990200  1
  H  H18  1  0.97010400  0.90222500  0.37834800  1
  H  H19  1  0.88997500  0.92476700  0.38997500  1
  H  H20  1  0.79091400  0.39819100  0.29580500  1
  H  H21  1  0.70396100  0.39765800  0.21329700  1
  H  H22  1  0.69009600  0.60397300  0.21639600  1
  H  H23  1  0.41014500  0.73940700  0.90474300  1
  H  H24  1  0.45878100  0.71221800  0.79981600  1
  H  H25  1  0.26288400  0.68657600  0.72173100  1
  H  H26  1  0.21842200  0.72015900  0.82421800  1
  H  H27  1  0.43350400  0.69707100  0.67840000  1
  H  H28  1  0.31990200  0.58651500  0.62070900  1
  H  H29  1  0.37834800  0.52989600  0.59777500  1
  H  H30  1  0.38997500  0.61002500  0.57523300  1
  H  H31  1  0.29580500  0.70908600  0.10180900  1
  H  H32  1  0.21329700  0.79603900  0.10234200  1
  H  H33  1  0.21639600  0.80990400  0.89602700  1
  H  H34  1  0.41014500  0.76059300  0.59525700  1
  H  H35  1  0.45878100  0.78778200  0.70018400  1
  H  H36  1  0.26288400  0.81342400  0.77826900  1
  H  H37  1  0.21842200  0.77984100  0.67578200  1
  H  H38  1  0.43350400  0.80292900  0.82160000  1
  H  H39  1  0.31990200  0.91348500  0.87929100  1
  H  H40  1  0.37834800  0.97010400  0.90222500  1
  H  H41  1  0.38997500  0.88997500  0.92476700  1
  H  H42  1  0.29580500  0.79091400  0.39819100  1
  H  H43  1  0.21329700  0.70396100  0.39765800  1
  H  H44  1  0.21639600  0.69009600  0.60397300  1
  H  H45  1  0.90474300  0.41014500  0.73940700  1
  H  H46  1  0.79981600  0.45878100  0.71221800  1
  H  H47  1  0.72173100  0.26288400  0.68657600  1
  H  H48  1  0.82421800  0.21842200  0.72015900  1
  H  H49  1  0.67840000  0.43350400  0.69707100  1
  H  H50  1  0.62070900  0.31990200  0.58651500  1
  H  H51  1  0.59777500  0.37834800  0.52989600  1
  H  H52  1  0.57523300  0.38997500  0.61002500  1
  H  H53  1  0.10180900  0.29580500  0.70908600  1
  H  H54  1  0.10234200  0.21329700  0.79603900  1
  H  H55  1  0.89602700  0.21639600  0.80990400  1
  H  H56  1  0.59525700  0.41014500  0.76059300  1
  H  H57  1  0.70018400  0.45878100  0.78778200  1
  H  H58  1  0.77826900  0.26288400  0.81342400  1
  H  H59  1  0.67578200  0.21842200  0.77984100  1
  H  H60  1  0.82160000  0.43350400  0.80292900  1
  H  H61  1  0.87929100  0.31990200  0.91348500  1
  H  H62  1  0.90222500  0.37834800  0.97010400  1
  H  H63  1  0.92476700  0.38997500  0.88997500  1
  H  H64  1  0.39819100  0.29580500  0.79091400  1
  H  H65  1  0.39765800  0.21329700  0.70396100  1
  H  H66  1  0.60397300  0.21639600  0.69009600  1
  H  H67  1  0.26059300  0.09525700  0.58985500  1
  H  H68  1  0.28778200  0.20018400  0.54121900  1
  H  H69  1  0.31342400  0.27826900  0.73711600  1
  H  H70  1  0.27984100  0.17578200  0.78157800  1
  H  H71  1  0.30292900  0.32160000  0.56649600  1
  H  H72  1  0.41348500  0.37929100  0.68009800  1
  H  H73  1  0.47010400  0.40222500  0.62165200  1
  H  H74  1  0.38997500  0.42476700  0.61002500  1
  H  H75  1  0.29091400  0.89819100  0.70419500  1
  H  H76  1  0.20396100  0.89765800  0.78670300  1
  H  H77  1  0.19009600  0.10397300  0.78360400  1
  H  H78  1  0.23940700  0.40474300  0.58985500  1
  H  H79  1  0.21221800  0.29981600  0.54121900  1
  H  H80  1  0.18657600  0.22173100  0.73711600  1
  H  H81  1  0.22015900  0.32421800  0.78157800  1
  H  H82  1  0.19707100  0.17840000  0.56649600  1
  H  H83  1  0.08651500  0.12070900  0.68009800  1
  H  H84  1  0.02989600  0.09777500  0.62165200  1
  H  H85  1  0.11002500  0.07523300  0.61002500  1
  H  H86  1  0.20908600  0.60180900  0.70419500  1
  H  H87  1  0.29603900  0.60234200  0.78670300  1
  H  H88  1  0.30990400  0.39602700  0.78360400  1
  H  H89  1  0.58985500  0.26059300  0.09525700  1
  H  H90  1  0.54121900  0.28778200  0.20018400  1
  H  H91  1  0.73711600  0.31342400  0.27826900  1
  H  H92  1  0.78157800  0.27984100  0.17578200  1
  H  H93  1  0.56649600  0.30292900  0.32160000  1
  H  H94  1  0.68009800  0.41348500  0.37929100  1
  H  H95  1  0.62165200  0.47010400  0.40222500  1
  H  H96  1  0.61002500  0.38997500  0.42476700  1
  H  H97  1  0.70419500  0.29091400  0.89819100  1
  H  H98  1  0.78670300  0.20396100  0.89765800  1
  H  H99  1  0.78360400  0.19009600  0.10397300  1
  H  H100  1  0.58985500  0.23940700  0.40474300  1
  H  H101  1  0.54121900  0.21221800  0.29981600  1
  H  H102  1  0.73711600  0.18657600  0.22173100  1
  H  H103  1  0.78157800  0.22015900  0.32421800  1
  H  H104  1  0.56649600  0.19707100  0.17840000  1
  H  H105  1  0.68009800  0.08651500  0.12070900  1
  H  H106  1  0.62165200  0.02989600  0.09777500  1
  H  H107  1  0.61002500  0.11002500  0.07523300  1
  H  H108  1  0.70419500  0.20908600  0.60180900  1
  H  H109  1  0.78670300  0.29603900  0.60234200  1
  H  H110  1  0.78360400  0.30990400  0.39602700  1
  H  H111  1  0.09525700  0.58985500  0.26059300  1
  H  H112  1  0.20018400  0.54121900  0.28778200  1
  H  H113  1  0.27826900  0.73711600  0.31342400  1
  H  H114  1  0.17578200  0.78157800  0.27984100  1
  H  H115  1  0.32160000  0.56649600  0.30292900  1
  H  H116  1  0.37929100  0.68009800  0.41348500  1
  H  H117  1  0.40222500  0.62165200  0.47010400  1
  H  H118  1  0.42476700  0.61002500  0.38997500  1
  H  H119  1  0.89819100  0.70419500  0.29091400  1
  H  H120  1  0.89765800  0.78670300  0.20396100  1
  H  H121  1  0.10397300  0.78360400  0.19009600  1
  H  H122  1  0.40474300  0.58985500  0.23940700  1
  H  H123  1  0.29981600  0.54121900  0.21221800  1
  H  H124  1  0.22173100  0.73711600  0.18657600  1
  H  H125  1  0.32421800  0.78157800  0.22015900  1
  H  H126  1  0.17840000  0.56649600  0.19707100  1
  H  H127  1  0.12070900  0.68009800  0.08651500  1
  H  H128  1  0.09777500  0.62165200  0.02989600  1
  H  H129  1  0.07523300  0.61002500  0.11002500  1
  H  H130  1  0.60180900  0.70419500  0.20908600  1
  H  H131  1  0.60234200  0.78670300  0.29603900  1
  H  H132  1  0.39602700  0.78360400  0.30990400  1
  C  C1  1  0.85047000  0.50217200  0.35325500  1
  C  C2  1  0.14953000  0.49782800  0.64674500  1
  C  C3  1  0.00093300  0.64633400  0.34964200  1
  C  C4  1  0.99906900  0.35366700  0.65036000  1
  C  C5  1  0.85345600  0.35035200  0.49814600  1
  C  C6  1  0.14654200  0.64964700  0.50185300  1
  C  C7  1  0.72664200  0.87414800  0.31425300  1
  C  C8  1  0.72506400  0.86465500  0.38195900  1
  C  C9  1  0.71114300  0.80446000  0.40705200  1
  C  C10  1  0.69316600  0.75072400  0.36584000  1
  C  C11  1  0.69875800  0.75921900  0.29755100  1
  C  C12  1  0.71757300  0.82087400  0.27422000  1
  C  C13  1  0.57809400  0.61298400  0.36907000  1
  C  C14  1  0.73805000  0.93490600  0.28202100  1
  C  C15  1  0.85047000  0.99782800  0.14674500  1
  C  C16  1  0.71182900  0.99643800  0.30577100  1
  C  C17  1  0.73374700  0.05876100  0.27970900  1
  C  C18  1  0.77965400  0.05880300  0.23379800  1
  C  C19  1  0.80185300  0.00059600  0.20859900  1
  C  C20  1  0.78433600  0.93972000  0.23611200  1
  C  C21  1  0.77335800  0.62585200  0.31425300  1
  C  C22  1  0.77493600  0.63534500  0.38195900  1
  C  C23  1  0.78885700  0.69554000  0.40705200  1
  C  C24  1  0.80683400  0.74927600  0.36584000  1
  C  C25  1  0.80124200  0.74078100  0.29755100  1
  C  C26  1  0.78242700  0.67912600  0.27422000  1
  C  C27  1  0.92190600  0.88701600  0.36907000  1
  C  C28  1  0.76195000  0.56509400  0.28202100  1
  C  C29  1  0.78817100  0.50356200  0.30577100  1
  C  C30  1  0.76625300  0.44123900  0.27970900  1
  C  C31  1  0.14953000  0.00217200  0.85325500  1
  C  C32  1  0.72034600  0.44119700  0.23379800  1
  C  C33  1  0.69814700  0.49940400  0.20859900  1
  C  C34  1  0.71566400  0.56028000  0.23611200  1
  C  C35  1  0.31425300  0.72664200  0.87414800  1
  C  C36  1  0.38195900  0.72506400  0.86465500  1
  C  C37  1  0.40705200  0.71114300  0.80446000  1
  C  C38  1  0.36584000  0.69316600  0.75072400  1
  C  C39  1  0.29755100  0.69875800  0.75921900  1
  C  C40  1  0.27422000  0.71757300  0.82087400  1
  C  C41  1  0.36907000  0.57809400  0.61298400  1
  C  C42  1  0.28202100  0.73805000  0.93490600  1
  C  C43  1  0.30577100  0.71182900  0.99643800  1
  C  C44  1  0.27970900  0.73374700  0.05876100  1
  C  C45  1  0.23379800  0.77965400  0.05880300  1
  C  C46  1  0.00093300  0.85366600  0.15035800  1
  C  C47  1  0.20859900  0.80185300  0.00059600  1
  C  C48  1  0.23611200  0.78433600  0.93972000  1
  C  C49  1  0.31425300  0.77335800  0.62585200  1
  C  C50  1  0.38195900  0.77493600  0.63534500  1
  C  C51  1  0.40705200  0.78885700  0.69554000  1
  C  C52  1  0.36584000  0.80683400  0.74927600  1
  C  C53  1  0.29755100  0.80124200  0.74078100  1
  C  C54  1  0.27422000  0.78242700  0.67912600  1
  C  C55  1  0.36907000  0.92190600  0.88701600  1
  C  C56  1  0.28202100  0.76195000  0.56509400  1
  C  C57  1  0.30577100  0.78817100  0.50356200  1
  C  C58  1  0.27970900  0.76625300  0.44123900  1
  C  C59  1  0.23379800  0.72034600  0.44119700  1
  C  C60  1  0.20859900  0.69814700  0.49940400  1
  C  C61  1  0.99906900  0.14633300  0.84964000  1
  C  C62  1  0.23611200  0.71566400  0.56028000  1
  C  C63  1  0.87414800  0.31425300  0.72664200  1
  C  C64  1  0.86465500  0.38195900  0.72506400  1
  C  C65  1  0.80446000  0.40705200  0.71114300  1
  C  C66  1  0.75072400  0.36584000  0.69316600  1
  C  C67  1  0.75921900  0.29755100  0.69875800  1
  C  C68  1  0.82087400  0.27422000  0.71757300  1
  C  C69  1  0.61298400  0.36907000  0.57809400  1
  C  C70  1  0.93490600  0.28202100  0.73805000  1
  C  C71  1  0.99643800  0.30577100  0.71182900  1
  C  C72  1  0.05876100  0.27970900  0.73374700  1
  C  C73  1  0.05880300  0.23379800  0.77965400  1
  C  C74  1  0.00059600  0.20859900  0.80185300  1
  C  C75  1  0.93972000  0.23611200  0.78433600  1
  C  C76  1  0.85345600  0.14964800  0.00185400  1
  C  C77  1  0.62585200  0.31425300  0.77335800  1
  C  C78  1  0.63534500  0.38195900  0.77493600  1
  C  C79  1  0.69554000  0.40705200  0.78885700  1
  C  C80  1  0.74927600  0.36584000  0.80683400  1
  C  C81  1  0.74078100  0.29755100  0.80124200  1
  C  C82  1  0.67912600  0.27422000  0.78242700  1
  C  C83  1  0.88701600  0.36907000  0.92190600  1
  C  C84  1  0.56509400  0.28202100  0.76195000  1
  C  C85  1  0.50356200  0.30577100  0.78817100  1
  C  C86  1  0.44123900  0.27970900  0.76625300  1
  C  C87  1  0.44119700  0.23379800  0.72034600  1
  C  C88  1  0.49940400  0.20859900  0.69814700  1
  C  C89  1  0.56028000  0.23611200  0.71566400  1
  C  C90  1  0.27335800  0.12585200  0.68574700  1
  C  C91  1  0.27493600  0.13534500  0.61804100  1
  C  C92  1  0.14654200  0.85035300  0.99814700  1
  C  C93  1  0.28885700  0.19554000  0.59294800  1
  C  C94  1  0.30683400  0.24927600  0.63416000  1
  C  C95  1  0.30124200  0.24078100  0.70244900  1
  C  C96  1  0.28242700  0.17912600  0.72578000  1
  C  C97  1  0.42190600  0.38701600  0.63093000  1
  C  C98  1  0.26195000  0.06509400  0.71797900  1
  C  C99  1  0.28817100  0.00356200  0.69422900  1
  C  C100  1  0.26625300  0.94123900  0.72029100  1
  C  C101  1  0.22034600  0.94119700  0.76620200  1
  C  C102  1  0.19814700  0.99940400  0.79140100  1
  C  C103  1  0.21566400  0.06028000  0.76388800  1
  C  C104  1  0.22664200  0.37414800  0.68574700  1
  C  C105  1  0.22506400  0.36465500  0.61804100  1
  C  C106  1  0.21114300  0.30446000  0.59294800  1
  C  C107  1  0.19316600  0.25072400  0.63416000  1
  C  C108  1  0.19875800  0.25921900  0.70244900  1
  C  C109  1  0.21757300  0.32087400  0.72578000  1
  C  C110  1  0.07809400  0.11298400  0.63093000  1
  C  C111  1  0.23805000  0.43490600  0.71797900  1
  C  C112  1  0.21182900  0.49643800  0.69422900  1
  C  C113  1  0.23374700  0.55876100  0.72029100  1
  C  C114  1  0.27965400  0.55880300  0.76620200  1
  C  C115  1  0.30185300  0.50059600  0.79140100  1
  C  C116  1  0.28433600  0.43972000  0.76388800  1
  C  C117  1  0.68574700  0.27335800  0.12585200  1
  C  C118  1  0.61804100  0.27493600  0.13534500  1
  C  C119  1  0.59294800  0.28885700  0.19554000  1
  C  C120  1  0.63416000  0.30683400  0.24927600  1
  C  C121  1  0.70244900  0.30124200  0.24078100  1
  C  C122  1  0.72578000  0.28242700  0.17912600  1
  C  C123  1  0.63093000  0.42190600  0.38701600  1
  C  C124  1  0.71797900  0.26195000  0.06509400  1
  C  C125  1  0.69422900  0.28817100  0.00356200  1
  C  C126  1  0.72029100  0.26625300  0.94123900  1
  C  C127  1  0.76620200  0.22034600  0.94119700  1
  C  C128  1  0.79140100  0.19814700  0.99940400  1
  C  C129  1  0.76388800  0.21566400  0.06028000  1
  C  C130  1  0.68574700  0.22664200  0.37414800  1
  C  C131  1  0.61804100  0.22506400  0.36465500  1
  C  C132  1  0.59294800  0.21114300  0.30446000  1
  C  C133  1  0.63416000  0.19316600  0.25072400  1
  C  C134  1  0.70244900  0.19875800  0.25921900  1
  C  C135  1  0.72578000  0.21757300  0.32087400  1
  C  C136  1  0.63093000  0.07809400  0.11298400  1
  C  C137  1  0.71797900  0.23805000  0.43490600  1
  C  C138  1  0.69422900  0.21182900  0.49643800  1
  C  C139  1  0.72029100  0.23374700  0.55876100  1
  C  C140  1  0.76620200  0.27965400  0.55880300  1
  C  C141  1  0.79140100  0.30185300  0.50059600  1
  C  C142  1  0.76388800  0.28433600  0.43972000  1
  C  C143  1  0.12585200  0.68574700  0.27335800  1
  C  C144  1  0.13534500  0.61804100  0.27493600  1
  C  C145  1  0.19554000  0.59294800  0.28885700  1
  C  C146  1  0.24927600  0.63416000  0.30683400  1
  C  C147  1  0.24078100  0.70244900  0.30124200  1
  C  C148  1  0.17912600  0.72578000  0.28242700  1
  C  C149  1  0.38701600  0.63093000  0.42190600  1
  C  C150  1  0.06509400  0.71797900  0.26195000  1
  C  C151  1  0.00356200  0.69422900  0.28817100  1
  C  C152  1  0.94123900  0.72029100  0.26625300  1
  C  C153  1  0.94119700  0.76620200  0.22034600  1
  C  C154  1  0.99940400  0.79140100  0.19814700  1
  C  C155  1  0.06028000  0.76388800  0.21566400  1
  C  C156  1  0.37414800  0.68574700  0.22664200  1
  C  C157  1  0.36465500  0.61804100  0.22506400  1
  C  C158  1  0.30446000  0.59294800  0.21114300  1
  C  C159  1  0.25072400  0.63416000  0.19316600  1
  C  C160  1  0.25921900  0.70244900  0.19875800  1
  C  C161  1  0.32087400  0.72578000  0.21757300  1
  C  C162  1  0.11298400  0.63093000  0.07809400  1
  C  C163  1  0.64953000  0.50217200  0.14674500  1
  C  C164  1  0.43490600  0.71797900  0.23805000  1
  C  C165  1  0.49643800  0.69422900  0.21182900  1
  C  C166  1  0.55876100  0.72029100  0.23374700  1
  C  C167  1  0.55880300  0.76620200  0.27965400  1
  C  C168  1  0.50059600  0.79140100  0.30185300  1
  C  C169  1  0.43972000  0.76388800  0.28433600  1
  C  C170  1  0.35047000  0.49782800  0.85325500  1
  C  C171  1  0.49906700  0.64633400  0.15035800  1
  C  C172  1  0.50093100  0.35366700  0.84964000  1
  C  C173  1  0.64654400  0.35035200  0.00185400  1
  C  C174  1  0.35345800  0.64964700  0.99814700  1
  C  C175  1  0.64953000  0.99782800  0.35325500  1
  C  C176  1  0.35047000  0.00217200  0.64674500  1
  C  C177  1  0.49906700  0.85366600  0.34964200  1
  C  C178  1  0.50093100  0.14633300  0.65036000  1
  C  C179  1  0.64654400  0.14964800  0.49814600  1
  C  C180  1  0.35345800  0.85035300  0.50185300  1
  S  S1  1  0.59795500  0.68136900  0.41723500  1
  S  S2  1  0.90204500  0.81863100  0.41723500  1
  S  S3  1  0.41723500  0.59795500  0.68136900  1
  S  S4  1  0.41723500  0.90204500  0.81863100  1
  S  S5  1  0.68136900  0.41723500  0.59795500  1
  S  S6  1  0.81863100  0.41723500  0.90204500  1
  S  S7  1  0.40204500  0.31863100  0.58276500  1
  S  S8  1  0.09795500  0.18136900  0.58276500  1
  S  S9  1  0.58276500  0.40204500  0.31863100  1
  S  S10  1  0.58276500  0.09795500  0.18136900  1
  S  S11  1  0.31863100  0.58276500  0.40204500  1
  S  S12  1  0.18136900  0.58276500  0.09795500  1
  N  N1  1  0.67407900  0.69119100  0.39238900  1
  N  N2  1  0.82592100  0.80880900  0.39238900  1
  N  N3  1  0.39238900  0.67407900  0.69119100  1
  N  N4  1  0.39238900  0.82592100  0.80880900  1
  N  N5  1  0.69119100  0.39238900  0.67407900  1
  N  N6  1  0.80880900  0.39238900  0.82592100  1
  N  N7  1  0.32592100  0.30880900  0.60761100  1
  N  N8  1  0.17407900  0.19119100  0.60761100  1
  N  N9  1  0.60761100  0.32592100  0.30880900  1
  N  N10  1  0.60761100  0.17407900  0.19119100  1
  N  N11  1  0.30880900  0.60761100  0.32592100  1
  N  N12  1  0.19119100  0.60761100  0.17407900  1
  O  O1  1  0.06095500  0.95982300  0.06067700  1
  O  O2  1  0.06095500  0.54017700  0.43932300  1
  O  O3  1  0.93904300  0.45982300  0.56067500  1
  O  O4  1  0.90892100  0.49810600  0.33374700  1
  O  O5  1  0.83163400  0.50107000  0.40997700  1
  O  O6  1  0.09108000  0.50189400  0.66625400  1
  O  O7  1  0.16836700  0.49893000  0.59002400  1
  O  O8  1  0.99715400  0.58735300  0.33192200  1
  O  O9  1  0.00433000  0.66424200  0.40627500  1
  O  O10  1  0.93904300  0.04017700  0.93932500  1
  O  O11  1  0.00284400  0.41264600  0.66807600  1
  O  O12  1  0.99567200  0.33575900  0.59372700  1
  O  O13  1  0.83474900  0.40922100  0.49423000  1
  O  O14  1  0.91139400  0.33398400  0.50239000  1
  O  O15  1  0.16524900  0.59077800  0.50576800  1
  O  O16  1  0.08860800  0.66601700  0.49761200  1
  O  O17  1  0.90892100  0.00189400  0.16625300  1
  O  O18  1  0.60059500  0.66081400  0.48381500  1
  O  O19  1  0.55805100  0.73412600  0.40051900  1
  O  O20  1  0.83163400  0.99893000  0.09002300  1
  O  O21  1  0.09108000  0.99810600  0.83374600  1
  O  O22  1  0.89940500  0.83918600  0.48381500  1
  O  O23  1  0.94194900  0.76587400  0.40051900  1
  O  O24  1  0.16836700  0.00107000  0.90997600  1
  O  O25  1  0.99715400  0.91264700  0.16807800  1
  O  O26  1  0.48381500  0.60059500  0.66081400  1
  O  O27  1  0.40051900  0.55805100  0.73412600  1
  O  O28  1  0.00433000  0.83575800  0.09372500  1
  O  O29  1  0.00284400  0.08735400  0.83192400  1
  O  O30  1  0.48381500  0.89940500  0.83918600  1
  O  O31  1  0.40051900  0.94194900  0.76587400  1
  O  O32  1  0.99567200  0.16424100  0.90627300  1
  O  O33  1  0.83474900  0.09077900  0.00577000  1
  O  O34  1  0.66081400  0.48381500  0.60059500  1
  O  O35  1  0.73412600  0.40051900  0.55805100  1
  O  O36  1  0.91139400  0.16601600  0.99761000  1
  O  O37  1  0.83918600  0.48381500  0.89940500  1
  O  O38  1  0.76587400  0.40051900  0.94194900  1
  O  O39  1  0.16524900  0.90922200  0.99423200  1
  O  O40  1  0.08860800  0.83398300  0.00238800  1
  O  O41  1  0.39940500  0.33918600  0.51618500  1
  O  O42  1  0.44194900  0.26587400  0.59948100  1
  O  O43  1  0.10059500  0.16081400  0.51618500  1
  O  O44  1  0.05805100  0.23412600  0.59948100  1
  O  O45  1  0.51618500  0.39940500  0.33918600  1
  O  O46  1  0.59948100  0.44194900  0.26587400  1
  O  O47  1  0.55979900  0.55966400  0.04363400  1
  O  O48  1  0.44019900  0.44033700  0.95636400  1
  O  O49  1  0.53977000  0.43851200  0.05909200  1
  O  O50  1  0.51618500  0.10059500  0.16081400  1
  O  O51  1  0.59948100  0.05805100  0.23412600  1
  O  O52  1  0.46022800  0.56148900  0.94090600  1
  O  O53  1  0.43904500  0.54017700  0.06067700  1
  O  O54  1  0.33918600  0.51618500  0.39940500  1
  O  O55  1  0.26587400  0.59948100  0.44194900  1
  O  O56  1  0.56095700  0.45982300  0.93932500  1
  O  O57  1  0.59107900  0.49810600  0.16625300  1
  O  O58  1  0.66836600  0.50107000  0.09002300  1
  O  O59  1  0.16081400  0.51618500  0.10059500  1
  O  O60  1  0.23412600  0.59948100  0.05805100  1
  O  O61  1  0.40892000  0.50189400  0.83374600  1
  O  O62  1  0.33163300  0.49893000  0.90997600  1
  O  O63  1  0.50284600  0.58735300  0.16807800  1
  O  O64  1  0.49567000  0.66424200  0.09372500  1
  O  O65  1  0.49715600  0.41264600  0.83192400  1
  O  O66  1  0.50432800  0.33575900  0.90627300  1
  O  O67  1  0.66525100  0.40922100  0.00577000  1
  O  O68  1  0.58860600  0.33398400  0.99761000  1
  O  O69  1  0.33475100  0.59077800  0.99423200  1
  O  O70  1  0.41139200  0.66601700  0.00238800  1
  O  O71  1  0.94020100  0.94033600  0.04363400  1
  O  O72  1  0.55979900  0.94033600  0.45636600  1
  O  O73  1  0.44019900  0.05966300  0.54363600  1
  O  O74  1  0.53977000  0.06148800  0.44090800  1
  O  O75  1  0.46022800  0.93851100  0.55909400  1
  O  O76  1  0.05980100  0.05966300  0.95636400  1
  O  O77  1  0.43904500  0.95982300  0.43932300  1
  O  O78  1  0.56095700  0.04017700  0.56067500  1
  O  O79  1  0.59107900  0.00189400  0.33374700  1
  O  O80  1  0.66836600  0.99893000  0.40997700  1
  O  O81  1  0.40892000  0.99810600  0.66625400  1
  O  O82  1  0.33163300  0.00107000  0.59002400  1
  O  O83  1  0.50284600  0.91264700  0.33192200  1
  O  O84  1  0.49567000  0.83575800  0.40627500  1
  O  O85  1  0.96023000  0.06148800  0.05909200  1
  O  O86  1  0.49715600  0.08735400  0.66807600  1
  O  O87  1  0.50432800  0.16424100  0.59372700  1
  O  O88  1  0.66525100  0.09077900  0.49423000  1
  O  O89  1  0.58860600  0.16601600  0.50239000  1
  O  O90  1  0.33475100  0.90922200  0.50576800  1
  O  O91  1  0.41139200  0.83398300  0.49761200  1
  O  O92  1  0.03977200  0.93851100  0.94090600  1
  O  O93  1  0.94020100  0.55966400  0.45636600  1
  O  O94  1  0.05980100  0.44033700  0.54363600  1
  O  O95  1  0.96023000  0.43851200  0.44090800  1
  O  O96  1  0.03977200  0.56148900  0.55909400  1
