# generated using pymatgen
data_CuH5C12N(ClO2)2
_symmetry_space_group_name_H-M   'P 1'
_cell_length_a   13.08400000
_cell_length_b   13.08400000
_cell_length_c   26.16790000
_cell_angle_alpha   90.00000000
_cell_angle_beta   90.00000000
_cell_angle_gamma   90.00000000
_symmetry_Int_Tables_number   1
_chemical_formula_structural   CuH5C12N(ClO2)2
_chemical_formula_sum   'Cu4 H20 C48 N4 Cl8 O16'
_cell_volume   4479.71043430
_cell_formula_units_Z   4
loop_
 _symmetry_equiv_pos_site_id
 _symmetry_equiv_pos_as_xyz
  1  'x, y, z'
loop_
 _atom_site_type_symbol
 _atom_site_label
 _atom_site_symmetry_multiplicity
 _atom_site_fract_x
 _atom_site_fract_y
 _atom_site_fract_z
 _atom_site_occupancy
  Cu  Cu1  1  0.89852900  0.00000000  0.00000000  1
  Cu  Cu2  1  0.10147100  0.00000000  0.00000000  1
  Cu  Cu3  1  0.00000000  0.89852900  0.50000000  1
  Cu  Cu4  1  0.00000000  0.10147100  0.50000000  1
  H  H1  1  0.10072800  0.83297400  0.85622500  1
  H  H2  1  0.07909900  0.69194600  0.79183800  1
  H  H3  1  0.06205900  0.73043300  0.72844600  1
  H  H4  1  0.05860700  0.86201300  0.66986500  1
  H  H5  1  0.93805900  0.11278500  0.82980000  1
  H  H6  1  0.16702600  0.10072800  0.35622500  1
  H  H7  1  0.30805400  0.07909900  0.29183800  1
  H  H8  1  0.26956700  0.06205900  0.22844600  1
  H  H9  1  0.13798700  0.05860700  0.16986500  1
  H  H10  1  0.88721500  0.93805900  0.32980000  1
  H  H11  1  0.81066900  0.71245100  0.97656000  1
  H  H12  1  0.72624200  0.58367500  0.91905200  1
  H  H13  1  0.76550500  0.45689100  0.92663500  1
  H  H14  1  0.86098800  0.33972900  0.97193500  1
  H  H15  1  0.12355000  0.65960000  0.01797600  1
  H  H16  1  0.28754900  0.81066900  0.47656000  1
  H  H17  1  0.41632500  0.72624200  0.41905200  1
  H  H18  1  0.54310900  0.76550500  0.42663500  1
  H  H19  1  0.66027100  0.86098800  0.47193500  1
  H  H20  1  0.34040000  0.12355000  0.51797600  1
  C  C1  1  0.00000000  0.00000000  0.90362400  1
  C  C2  1  0.00000000  0.80724800  0.00000000  1
  C  C3  1  0.00000000  0.00000000  0.09637600  1
  C  C4  1  0.00000000  0.19275200  0.00000000  1
  C  C5  1  0.00000000  0.00000000  0.40362400  1
  C  C6  1  0.19275200  0.00000000  0.50000000  1
  C  C7  1  0.00000000  0.00000000  0.59637600  1
  C  C8  1  0.80724800  0.00000000  0.50000000  1
  C  C9  1  0.01399900  0.97639100  0.84733900  1
  C  C10  1  0.05897700  0.88944200  0.83065500  1
  C  C11  1  0.05578500  0.86307900  0.77962100  1
  C  C12  1  0.09687800  0.75599500  0.76561000  1
  C  C13  1  0.01775600  0.93645700  0.74463100  1
  C  C14  1  0.02371800  0.92980400  0.68761800  1
  C  C15  1  0.98841800  0.00784000  0.65668000  1
  C  C16  1  0.95263300  0.09636900  0.67854300  1
  C  C17  1  0.97272100  0.02573400  0.76137000  1
  C  C18  1  0.97064800  0.04558300  0.81328300  1
  C  C19  1  0.02360900  0.01399900  0.34733900  1
  C  C20  1  0.11055800  0.05897700  0.33065500  1
  C  C21  1  0.13692100  0.05578500  0.27962100  1
  C  C22  1  0.24400500  0.09687800  0.26561000  1
  C  C23  1  0.06354300  0.01775600  0.24463100  1
  C  C24  1  0.07019600  0.02371800  0.18761800  1
  C  C25  1  0.99216000  0.98841800  0.15668000  1
  C  C26  1  0.90363100  0.95263300  0.17854300  1
  C  C27  1  0.97426600  0.97272100  0.26137000  1
  C  C28  1  0.95441700  0.97064800  0.31328300  1
  C  C29  1  0.97340700  0.69467900  0.99660300  1
  C  C30  1  0.88012100  0.66131000  0.98176400  1
  C  C31  1  0.86373700  0.55924300  0.97131400  1
  C  C32  1  0.75896000  0.53122100  0.94798300  1
  C  C33  1  0.94251300  0.48926200  0.98381200  1
  C  C34  1  0.93359300  0.37523700  0.98356800  1
  C  C35  1  0.01373400  0.31336000  0.99867700  1
  C  C36  1  0.10163700  0.35708600  0.01732500  1
  C  C37  1  0.03748700  0.52273900  0.99945400  1
  C  C38  1  0.05298700  0.62656600  0.00573800  1
  C  C39  1  0.30532100  0.97340700  0.49660300  1
  C  C40  1  0.33869000  0.88012100  0.48176400  1
  C  C41  1  0.44075700  0.86373700  0.47131400  1
  C  C42  1  0.46877900  0.75896000  0.44798300  1
  C  C43  1  0.51073800  0.94251300  0.48381200  1
  C  C44  1  0.62476300  0.93359300  0.48356800  1
  C  C45  1  0.68664000  0.01373400  0.49867700  1
  C  C46  1  0.64291400  0.10163700  0.51732500  1
  C  C47  1  0.47726100  0.03748700  0.49945400  1
  C  C48  1  0.37343400  0.05298700  0.50573800  1
  N  N1  1  0.94083200  0.10305300  0.73120500  1
  N  N2  1  0.89694700  0.94083200  0.23120500  1
  N  N3  1  0.11470700  0.46241000  0.01551600  1
  N  N4  1  0.53759000  0.11470700  0.51551600  1
  Cl  Cl1  1  0.88984700  0.19920900  0.65181100  1
  Cl  Cl2  1  0.22991400  0.77008600  0.75392700  1
  Cl  Cl3  1  0.80079100  0.88984700  0.15181100  1
  Cl  Cl4  1  0.22991400  0.22991400  0.25392700  1
  Cl  Cl5  1  0.21875200  0.30362100  0.03148600  1
  Cl  Cl6  1  0.67485300  0.50785500  0.00000000  1
  Cl  Cl7  1  0.69637900  0.21875200  0.53148600  1
  Cl  Cl8  1  0.49214500  0.67485300  0.50000000  1
  O  O1  1  0.08075200  0.00000000  0.92693500  1
  O  O2  1  0.91924800  0.00000000  0.92693500  1
  O  O3  1  0.08075200  0.85387000  0.00000000  1
  O  O4  1  0.91924800  0.85387000  0.00000000  1
  O  O5  1  0.08075200  0.00000000  0.07306500  1
  O  O6  1  0.91924800  0.00000000  0.07306500  1
  O  O7  1  0.08075200  0.14613000  0.00000000  1
  O  O8  1  0.91924800  0.14613000  0.00000000  1
  O  O9  1  0.00000000  0.08075200  0.42693500  1
  O  O10  1  0.00000000  0.91924800  0.42693500  1
  O  O11  1  0.14613000  0.08075200  0.50000000  1
  O  O12  1  0.14613000  0.91924800  0.50000000  1
  O  O13  1  0.00000000  0.08075200  0.57306500  1
  O  O14  1  0.00000000  0.91924800  0.57306500  1
  O  O15  1  0.85387000  0.08075200  0.50000000  1
  O  O16  1  0.85387000  0.91924800  0.50000000  1
