# generated using pymatgen
data_H11PdC16(NO2)3
_symmetry_space_group_name_H-M   'P 1'
_cell_length_a   20.63560000
_cell_length_b   20.63560000
_cell_length_c   16.84910000
_cell_angle_alpha   90.00000000
_cell_angle_beta   90.00000000
_cell_angle_gamma   120.00000000
_symmetry_Int_Tables_number   1
_chemical_formula_structural   H11PdC16(NO2)3
_chemical_formula_sum   'H66 Pd6 C96 N18 O36'
_cell_volume   6213.57495156
_cell_formula_units_Z   6
loop_
 _symmetry_equiv_pos_site_id
 _symmetry_equiv_pos_as_xyz
  1  'x, y, z'
loop_
 _atom_site_type_symbol
 _atom_site_label
 _atom_site_symmetry_multiplicity
 _atom_site_fract_x
 _atom_site_fract_y
 _atom_site_fract_z
 _atom_site_occupancy
  H  H1  1  0.30788400  0.13502000  0.17156600  1
  H  H2  1  0.40983400  0.23441200  0.12994700  1
  H  H3  1  0.75224500  0.09116600  0.99781300  1
  H  H4  1  0.83263600  0.30000900  0.06054900  1
  H  H5  1  0.90342500  0.29187800  0.11549100  1
  H  H6  1  0.84119000  0.20133900  0.88600300  1
  H  H7  1  0.88354900  0.16027600  0.95108800  1
  H  H8  1  0.37031800  0.98775500  0.98836400  1
  H  H9  1  0.32457200  0.86698100  0.06110800  1
  H  H10  1  0.55400400  0.92544500  0.10255200  1
  H  H11  1  0.80949600  0.09253900  0.12873700  1
  H  H12  1  0.86498000  0.17286400  0.17156600  1
  H  H13  1  0.76558800  0.17542200  0.12994700  1
  H  H14  1  0.09116600  0.33892000  0.49781300  1
  H  H15  1  0.30000900  0.46737300  0.56054900  1
  H  H16  1  0.29187800  0.38845300  0.61549100  1
  H  H17  1  0.20133900  0.36014900  0.38600300  1
  H  H18  1  0.16027600  0.27672700  0.45108800  1
  H  H19  1  0.98775500  0.61743600  0.48836400  1
  H  H20  1  0.86698100  0.54240800  0.56110800  1
  H  H21  1  0.92544500  0.37144100  0.60255200  1
  H  H22  1  0.09253900  0.28304300  0.62873700  1
  H  H23  1  0.17286400  0.30788400  0.67156600  1
  H  H24  1  0.17542200  0.40983400  0.62994700  1
  H  H25  1  0.66108000  0.75224500  0.49781300  1
  H  H26  1  0.53262700  0.83263600  0.56054900  1
  H  H27  1  0.61154700  0.90342500  0.61549100  1
  H  H28  1  0.63985100  0.84119000  0.38600300  1
  H  H29  1  0.72327300  0.88354900  0.45108800  1
  H  H30  1  0.38256400  0.37031800  0.48836400  1
  H  H31  1  0.45759200  0.32457200  0.56110800  1
  H  H32  1  0.62855900  0.55400400  0.60255200  1
  H  H33  1  0.71695700  0.80949600  0.62873700  1
  H  H34  1  0.69211600  0.86498000  0.67156600  1
  H  H35  1  0.59016600  0.76558800  0.62994700  1
  H  H36  1  0.24775500  0.90883400  0.49781300  1
  H  H37  1  0.16736400  0.69999100  0.56054900  1
  H  H38  1  0.09657500  0.70812200  0.61549100  1
  H  H39  1  0.15881000  0.79866100  0.38600300  1
  H  H40  1  0.11645100  0.83972400  0.45108800  1
  H  H41  1  0.62968200  0.01224500  0.48836400  1
  H  H42  1  0.67542800  0.13301900  0.56110800  1
  H  H43  1  0.44599600  0.07455500  0.60255200  1
  H  H44  1  0.19050400  0.90746100  0.62873700  1
  H  H45  1  0.13502000  0.82713600  0.67156600  1
  H  H46  1  0.23441200  0.82457800  0.62994700  1
  H  H47  1  0.90883400  0.66108000  0.99781300  1
  H  H48  1  0.69999100  0.53262700  0.06054900  1
  H  H49  1  0.70812200  0.61154700  0.11549100  1
  H  H50  1  0.79866100  0.63985100  0.88600300  1
  H  H51  1  0.83972400  0.72327300  0.95108800  1
  H  H52  1  0.01224500  0.38256400  0.98836400  1
  H  H53  1  0.13301900  0.45759200  0.06110800  1
  H  H54  1  0.07455500  0.62855900  0.10255200  1
  H  H55  1  0.90746100  0.71695700  0.12873700  1
  H  H56  1  0.82713600  0.69211600  0.17156600  1
  H  H57  1  0.82457800  0.59016600  0.12994700  1
  H  H58  1  0.33892000  0.24775500  0.99781300  1
  H  H59  1  0.46737300  0.16736400  0.06054900  1
  H  H60  1  0.38845300  0.09657500  0.11549100  1
  H  H61  1  0.36014900  0.15881000  0.88600300  1
  H  H62  1  0.27672700  0.11645100  0.95108800  1
  H  H63  1  0.61743600  0.62968200  0.98836400  1
  H  H64  1  0.54240800  0.67542800  0.06110800  1
  H  H65  1  0.37144100  0.44599600  0.10255200  1
  H  H66  1  0.28304300  0.19050400  0.12873700  1
  Pd  Pd1  1  0.43585800  0.71667500  0.24931600  1
  Pd  Pd2  1  0.28080700  0.71667500  0.24931600  1
  Pd  Pd3  1  0.28236200  0.56473400  0.24601700  1
  Pd  Pd4  1  0.56414200  0.28332500  0.74931600  1
  Pd  Pd5  1  0.71919300  0.28332500  0.74931600  1
  Pd  Pd6  1  0.71763800  0.43526600  0.74601700  1
  C  C1  1  0.80610000  0.18352200  0.08247500  1
  C  C2  1  0.77950900  0.15207900  0.00018900  1
  C  C3  1  0.86140100  0.26787200  0.06559400  1
  C  C4  1  0.89845900  0.26589100  0.98862000  1
  C  C5  1  0.85083300  0.19126200  0.94816500  1
  C  C6  1  0.40413900  0.59315600  0.35945400  1
  C  C7  1  0.54136900  0.00428900  0.02869300  1
  C  C8  1  0.48942900  0.02043400  0.99646800  1
  C  C9  1  0.41331800  0.97407900  0.00913000  1
  C  C10  1  0.38606400  0.90820300  0.05399400  1
  C  C11  1  0.43668900  0.88759200  0.08841900  1
  C  C12  1  0.51336700  0.93569900  0.07100100  1
  C  C13  1  0.57887700  0.12330600  0.92785800  1
  C  C14  1  0.63310400  0.11079500  0.96162100  1
  C  C15  1  0.72205000  0.17371000  0.96896300  1
  C  C16  1  0.18352200  0.37742300  0.58247500  1
  C  C17  1  0.15207900  0.37257000  0.50018900  1
  C  C18  1  0.26787200  0.40647100  0.56559400  1
  C  C19  1  0.26589100  0.36743100  0.48862000  1
  C  C20  1  0.19126200  0.34042900  0.44816500  1
  C  C21  1  0.18900600  0.59315600  0.35945400  1
  C  C22  1  0.00428900  0.46292100  0.52869300  1
  C  C23  1  0.02043400  0.53100500  0.49646800  1
  C  C24  1  0.97407900  0.56076000  0.50913000  1
  C  C25  1  0.90820300  0.52213900  0.55399400  1
  C  C26  1  0.88759200  0.45090300  0.58841900  1
  C  C27  1  0.93569900  0.42233200  0.57100100  1
  C  C28  1  0.12330600  0.54443000  0.42785800  1
  C  C29  1  0.11079500  0.47769100  0.46162100  1
  C  C30  1  0.17371000  0.45165900  0.46896300  1
  C  C31  1  0.62257700  0.80610000  0.58247500  1
  C  C32  1  0.62743000  0.77950900  0.50018900  1
  C  C33  1  0.59352900  0.86140100  0.56559400  1
  C  C34  1  0.63256900  0.89845900  0.48862000  1
  C  C35  1  0.65957100  0.85083300  0.44816500  1
  C  C36  1  0.40693900  0.81388900  0.35556200  1
  C  C37  1  0.53707900  0.54136900  0.52869300  1
  C  C38  1  0.46899500  0.48942900  0.49646800  1
  C  C39  1  0.43924000  0.41331800  0.50913000  1
  C  C40  1  0.47786100  0.38606400  0.55399400  1
  C  C41  1  0.54909700  0.43668900  0.58841900  1
  C  C42  1  0.57766800  0.51336700  0.57100100  1
  C  C43  1  0.45557000  0.57887700  0.42785800  1
  C  C44  1  0.52230900  0.63310400  0.46162100  1
  C  C45  1  0.54834100  0.72205000  0.46896300  1
  C  C46  1  0.19390000  0.81647800  0.58247500  1
  C  C47  1  0.22049100  0.84792100  0.50018900  1
  C  C48  1  0.13859900  0.73212800  0.56559400  1
  C  C49  1  0.10154100  0.73410900  0.48862000  1
  C  C50  1  0.14916700  0.80873800  0.44816500  1
  C  C51  1  0.40760100  0.81521200  0.14462800  1
  C  C52  1  0.45863100  0.99571100  0.52869300  1
  C  C53  1  0.51057100  0.97956600  0.49646800  1
  C  C54  1  0.58668200  0.02592100  0.50913000  1
  C  C55  1  0.61393600  0.09179700  0.55399400  1
  C  C56  1  0.56331100  0.11240800  0.58841900  1
  C  C57  1  0.48663300  0.06430100  0.57100100  1
  C  C58  1  0.42112300  0.87669400  0.42785800  1
  C  C59  1  0.36689600  0.88920500  0.46162100  1
  C  C60  1  0.27795000  0.82629000  0.46896300  1
  C  C61  1  0.81538800  0.40769600  0.64045100  1
  C  C62  1  0.59231800  0.40769600  0.64045100  1
  C  C63  1  0.59586100  0.40684400  0.85945400  1
  C  C64  1  0.81099400  0.40684400  0.85945400  1
  C  C65  1  0.59306100  0.18611100  0.85556200  1
  C  C66  1  0.59239900  0.18478800  0.64462800  1
  C  C67  1  0.81647800  0.62257700  0.08247500  1
  C  C68  1  0.84792100  0.62743000  0.00018900  1
  C  C69  1  0.73212800  0.59352900  0.06559400  1
  C  C70  1  0.73410900  0.63256900  0.98862000  1
  C  C71  1  0.80873800  0.65957100  0.94816500  1
  C  C72  1  0.18461200  0.59230400  0.14045100  1
  C  C73  1  0.99571100  0.53707900  0.02869300  1
  C  C74  1  0.97956600  0.46899500  0.99646800  1
  C  C75  1  0.02592100  0.43924000  0.00913000  1
  C  C76  1  0.09179700  0.47786100  0.05399400  1
  C  C77  1  0.11240800  0.54909700  0.08841900  1
  C  C78  1  0.06430100  0.57766800  0.07100100  1
  C  C79  1  0.87669400  0.45557000  0.92785800  1
  C  C80  1  0.88920500  0.52230900  0.96162100  1
  C  C81  1  0.82629000  0.54834100  0.96896300  1
  C  C82  1  0.37742300  0.19390000  0.08247500  1
  C  C83  1  0.37257000  0.22049100  0.00018900  1
  C  C84  1  0.40647100  0.13859900  0.06559400  1
  C  C85  1  0.36743100  0.10154100  0.98862000  1
  C  C86  1  0.34042900  0.14916700  0.94816500  1
  C  C87  1  0.40768200  0.59230400  0.14045100  1
  C  C88  1  0.46292100  0.45863100  0.02869300  1
  C  C89  1  0.53100500  0.51057100  0.99646800  1
  C  C90  1  0.56076000  0.58668200  0.00913000  1
  C  C91  1  0.52213900  0.61393600  0.05399400  1
  C  C92  1  0.45090300  0.56331100  0.08841900  1
  C  C93  1  0.42233200  0.48663300  0.07100100  1
  C  C94  1  0.54443000  0.42112300  0.92785800  1
  C  C95  1  0.47769100  0.36689600  0.96162100  1
  C  C96  1  0.45165900  0.27795000  0.96896300  1
  N  N1  1  0.84476000  0.14794300  0.11654000  1
  N  N2  1  0.50603300  0.07902000  0.94950000  1
  N  N3  1  0.61556500  0.04687900  0.00616500  1
  N  N4  1  0.14794300  0.30318300  0.61654000  1
  N  N5  1  0.07902000  0.57298700  0.44950000  1
  N  N6  1  0.04687900  0.43131400  0.50616500  1
  N  N7  1  0.69681700  0.84476000  0.61654000  1
  N  N8  1  0.42701300  0.50603300  0.44950000  1
  N  N9  1  0.56868600  0.61556500  0.50616500  1
  N  N10  1  0.15524000  0.85205700  0.61654000  1
  N  N11  1  0.49396700  0.92098000  0.44950000  1
  N  N12  1  0.38443500  0.95312100  0.50616500  1
  N  N13  1  0.85205700  0.69681700  0.11654000  1
  N  N14  1  0.92098000  0.42701300  0.94950000  1
  N  N15  1  0.95312100  0.56868600  0.00616500  1
  N  N16  1  0.30318300  0.15524000  0.11654000  1
  N  N17  1  0.57298700  0.49396700  0.94950000  1
  N  N18  1  0.43131400  0.38443500  0.00616500  1
  O  O1  1  0.34044700  0.55174600  0.33245500  1
  O  O2  1  0.95316500  0.31895200  0.96029600  1
  O  O3  1  0.20817000  0.65738100  0.33492500  1
  O  O4  1  0.73699700  0.23728500  0.94734700  1
  O  O5  1  0.21128900  0.55174600  0.33245500  1
  O  O6  1  0.31895200  0.36578700  0.46029600  1
  O  O7  1  0.44889400  0.79016300  0.33324200  1
  O  O8  1  0.23728500  0.50028800  0.44734700  1
  O  O9  1  0.34125900  0.79016300  0.33324200  1
  O  O10  1  0.63421300  0.95316500  0.46029600  1
  O  O11  1  0.44926000  0.79099700  0.16597800  1
  O  O12  1  0.49971200  0.73699700  0.44734700  1
  O  O13  1  0.34172700  0.79099700  0.16597800  1
  O  O14  1  0.04683500  0.68104800  0.46029600  1
  O  O15  1  0.26300300  0.76271500  0.44734700  1
  O  O16  1  0.79110500  0.44939600  0.66084600  1
  O  O17  1  0.79358300  0.34274900  0.66503600  1
  O  O18  1  0.65830100  0.44939600  0.66084600  1
  O  O19  1  0.54917600  0.34274900  0.66503600  1
  O  O20  1  0.20889500  0.55060400  0.16084600  1
  O  O21  1  0.55079900  0.34261900  0.83492500  1
  O  O22  1  0.65955300  0.44825400  0.83245500  1
  O  O23  1  0.79183000  0.34261900  0.83492500  1
  O  O24  1  0.78871100  0.44825400  0.83245500  1
  O  O25  1  0.55110600  0.20983700  0.83324200  1
  O  O26  1  0.65874100  0.20983700  0.83324200  1
  O  O27  1  0.55074000  0.20900300  0.66597800  1
  O  O28  1  0.20641700  0.65725100  0.16503600  1
  O  O29  1  0.65827300  0.20900300  0.66597800  1
  O  O30  1  0.68104800  0.63421300  0.96029600  1
  O  O31  1  0.34169900  0.55060400  0.16084600  1
  O  O32  1  0.76271500  0.49971200  0.94734700  1
  O  O33  1  0.45082400  0.65725100  0.16503600  1
  O  O34  1  0.36578700  0.04683500  0.96029600  1
  O  O35  1  0.44920100  0.65738100  0.33492500  1
  O  O36  1  0.50028800  0.26300300  0.94734700  1
