# generated using pymatgen
data_CuH6C12BrNO4
_symmetry_space_group_name_H-M   'P 1'
_cell_length_a   13.16550000
_cell_length_b   13.16550000
_cell_length_c   26.33110000
_cell_angle_alpha   90.00000000
_cell_angle_beta   90.00000000
_cell_angle_gamma   90.00000000
_symmetry_Int_Tables_number   1
_chemical_formula_structural   CuH6C12BrNO4
_chemical_formula_sum   'Cu4 H24 C48 Br4 N4 O16'
_cell_volume   4563.97983871
_cell_formula_units_Z   4
loop_
 _symmetry_equiv_pos_site_id
 _symmetry_equiv_pos_as_xyz
  1  'x, y, z'
loop_
 _atom_site_type_symbol
 _atom_site_label
 _atom_site_symmetry_multiplicity
 _atom_site_fract_x
 _atom_site_fract_y
 _atom_site_fract_z
 _atom_site_occupancy
  Cu  Cu1  1  0.89915800  0.00000000  0.00000000  1
  Cu  Cu2  1  0.10084200  0.00000000  0.00000000  1
  Cu  Cu3  1  0.00000000  0.89915800  0.50000000  1
  Cu  Cu4  1  0.00000000  0.10084200  0.50000000  1
  H  H1  1  0.14176200  0.97714100  0.67287400  1
  H  H2  1  0.85898800  0.02194400  0.82664700  1
  H  H3  1  0.80019700  0.04660600  0.74409200  1
  H  H4  1  0.82672100  0.03949800  0.64977600  1
  H  H5  1  0.27555800  0.96152400  0.83429400  1
  H  H6  1  0.21433800  0.97185500  0.89348600  1
  H  H7  1  0.02285900  0.14176200  0.17287400  1
  H  H8  1  0.97805600  0.85898800  0.32664700  1
  H  H9  1  0.95339400  0.80019700  0.24409200  1
  H  H10  1  0.96050200  0.82672100  0.14977600  1
  H  H11  1  0.03847600  0.27555800  0.33429400  1
  H  H12  1  0.02814500  0.21433800  0.39348600  1
  H  H13  1  0.88359500  0.34574700  0.04203900  1
  H  H14  1  0.11522700  0.65329400  0.95790300  1
  H  H15  1  0.17423800  0.48818500  0.94583700  1
  H  H16  1  0.15045600  0.29955200  0.95270100  1
  H  H17  1  0.77794400  0.66858800  0.08382100  1
  H  H18  1  0.82853800  0.78697200  0.06582900  1
  H  H19  1  0.65425300  0.88359500  0.54203900  1
  H  H20  1  0.34670600  0.11522700  0.45790300  1
  H  H21  1  0.51181500  0.17423800  0.44583700  1
  H  H22  1  0.70044800  0.15045600  0.45270100  1
  H  H23  1  0.33141200  0.77794400  0.58382100  1
  H  H24  1  0.21302800  0.82853800  0.56582900  1
  C  C1  1  0.00000000  0.00000000  0.90422100  1
  C  C2  1  0.00000000  0.80844200  0.00000000  1
  C  C3  1  0.00000000  0.00000000  0.09577900  1
  C  C4  1  0.00000000  0.19155800  0.00000000  1
  C  C5  1  0.00000000  0.00000000  0.40422100  1
  C  C6  1  0.19155800  0.00000000  0.50000000  1
  C  C7  1  0.00000000  0.00000000  0.59577900  1
  C  C8  1  0.80844200  0.00000000  0.50000000  1
  C  C9  1  0.05350900  0.99592600  0.74100200  1
  C  C10  1  0.95706500  0.01919300  0.75943100  1
  C  C11  1  0.06642400  0.99246600  0.68978600  1
  C  C12  1  0.93492400  0.00993400  0.81158300  1
  C  C13  1  0.87248100  0.03411900  0.72667200  1
  C  C14  1  0.11270600  0.96987800  0.82575700  1
  C  C15  1  0.98489100  0.01093600  0.65715800  1
  C  C16  1  0.01675500  0.99034100  0.84540200  1
  C  C17  1  0.88880300  0.03070000  0.67471000  1
  C  C18  1  0.20681200  0.93813500  0.85585600  1
  C  C19  1  0.00407400  0.05350900  0.24100200  1
  C  C20  1  0.98080700  0.95706500  0.25943100  1
  C  C21  1  0.00753400  0.06642400  0.18978600  1
  C  C22  1  0.99006600  0.93492400  0.31158300  1
  C  C23  1  0.96588100  0.87248100  0.22667200  1
  C  C24  1  0.03012200  0.11270600  0.32575700  1
  C  C25  1  0.98906400  0.98489100  0.15715800  1
  C  C26  1  0.00965900  0.01675500  0.34540200  1
  C  C27  1  0.96930000  0.88880300  0.17471000  1
  C  C28  1  0.06186500  0.20681200  0.35585600  1
  C  C29  1  0.95928300  0.48200400  0.01747800  1
  C  C30  1  0.04393100  0.51886100  0.99160600  1
  C  C31  1  0.94770400  0.37957300  0.02082100  1
  C  C32  1  0.05304000  0.62316700  0.98050400  1
  C  C33  1  0.11429500  0.45334400  0.96697800  1
  C  C34  1  0.89900500  0.65151400  0.02919800  1
  C  C35  1  0.01841700  0.31431600  0.99852500  1
  C  C36  1  0.98132300  0.69080500  0.00250900  1
  C  C37  1  0.10033700  0.34942100  0.97154000  1
  C  C38  1  0.81001700  0.71171200  0.05124600  1
  C  C39  1  0.51799600  0.95928300  0.51747800  1
  C  C40  1  0.48113900  0.04393100  0.49160600  1
  C  C41  1  0.62042700  0.94770400  0.52082100  1
  C  C42  1  0.37683300  0.05304000  0.48050400  1
  C  C43  1  0.54665600  0.11429500  0.46697800  1
  C  C44  1  0.34848600  0.89900500  0.52919800  1
  C  C45  1  0.68568400  0.01841700  0.49852500  1
  C  C46  1  0.30919500  0.98132300  0.50250900  1
  C  C47  1  0.65057900  0.10033700  0.47154000  1
  C  C48  1  0.28828800  0.81001700  0.55124600  1
  Br  Br1  1  0.20970400  0.79029600  0.86983100  1
  Br  Br2  1  0.20970400  0.20970400  0.36983100  1
  Br  Br3  1  0.70343400  0.73966100  0.00000000  1
  Br  Br4  1  0.26033900  0.70343400  0.50000000  1
  N  N1  1  0.13097400  0.97096600  0.77429800  1
  N  N2  1  0.02903400  0.13097400  0.27429800  1
  N  N3  1  0.88685700  0.54859500  0.03604100  1
  N  N4  1  0.45140500  0.88685700  0.53604100  1
  O  O1  1  0.08025100  0.00000000  0.92738800  1
  O  O2  1  0.91974900  0.00000000  0.92738800  1
  O  O3  1  0.08025100  0.85477600  0.00000000  1
  O  O4  1  0.91974900  0.85477600  0.00000000  1
  O  O5  1  0.08025100  0.00000000  0.07261200  1
  O  O6  1  0.91974900  0.00000000  0.07261200  1
  O  O7  1  0.08025100  0.14522400  0.00000000  1
  O  O8  1  0.91974900  0.14522400  0.00000000  1
  O  O9  1  0.00000000  0.08025100  0.42738800  1
  O  O10  1  0.00000000  0.91974900  0.42738800  1
  O  O11  1  0.14522400  0.08025100  0.50000000  1
  O  O12  1  0.14522400  0.91974900  0.50000000  1
  O  O13  1  0.00000000  0.08025100  0.57261200  1
  O  O14  1  0.00000000  0.91974900  0.57261200  1
  O  O15  1  0.85477600  0.08025100  0.50000000  1
  O  O16  1  0.85477600  0.91974900  0.50000000  1
