# generated using pymatgen
data_Ti2H5C11NO7
_symmetry_space_group_name_H-M   'P 1'
_cell_length_a   23.58120000
_cell_length_b   23.58120000
_cell_length_c   23.58120000
_cell_angle_alpha   90.00000000
_cell_angle_beta   90.00000000
_cell_angle_gamma   90.00000000
_symmetry_Int_Tables_number   1
_chemical_formula_structural   Ti2H5C11NO7
_chemical_formula_sum   'Ti24 H60 C132 N12 O84'
_cell_volume   13112.86847291
_cell_formula_units_Z   12
loop_
 _symmetry_equiv_pos_site_id
 _symmetry_equiv_pos_as_xyz
  1  'x, y, z'
loop_
 _atom_site_type_symbol
 _atom_site_label
 _atom_site_symmetry_multiplicity
 _atom_site_fract_x
 _atom_site_fract_y
 _atom_site_fract_z
 _atom_site_occupancy
  Ti  Ti1  1  0.99532200  0.99502900  0.09887700  1
  Ti  Ti2  1  0.00467700  0.00497100  0.90112400  1
  Ti  Ti3  1  0.90148700  0.00582000  0.00787400  1
  Ti  Ti4  1  0.09851500  0.99417900  0.99212500  1
  Ti  Ti5  1  0.00655300  0.90122800  0.00765900  1
  Ti  Ti6  1  0.99344800  0.09877100  0.99234000  1
  Ti  Ti7  1  0.50467800  0.50497100  0.09887700  1
  Ti  Ti8  1  0.49532300  0.49502900  0.90112400  1
  Ti  Ti9  1  0.59851300  0.49418000  0.00787400  1
  Ti  Ti10  1  0.40148500  0.50582100  0.99212500  1
  Ti  Ti11  1  0.49344700  0.59877200  0.00765900  1
  Ti  Ti12  1  0.50655200  0.40122900  0.99234000  1
  Ti  Ti13  1  0.50467800  0.99502900  0.40112300  1
  Ti  Ti14  1  0.49532300  0.00497100  0.59887600  1
  Ti  Ti15  1  0.59851300  0.00582000  0.49212600  1
  Ti  Ti16  1  0.40148500  0.99417900  0.50787500  1
  Ti  Ti17  1  0.49344700  0.90122800  0.49234100  1
  Ti  Ti18  1  0.50655200  0.09877100  0.50766000  1
  Ti  Ti19  1  0.99532200  0.50497100  0.40112300  1
  Ti  Ti20  1  0.00467700  0.49502900  0.59887600  1
  Ti  Ti21  1  0.90148700  0.49418000  0.49212600  1
  Ti  Ti22  1  0.09851500  0.50582100  0.50787500  1
  Ti  Ti23  1  0.00655300  0.59877200  0.49234100  1
  Ti  Ti24  1  0.99344800  0.40122900  0.50766000  1
  H  H1  1  0.67961800  0.90055800  0.34493800  1
  H  H2  1  0.72023200  0.84782700  0.27976800  1
  H  H3  1  0.81703000  0.91723200  0.19350400  1
  H  H4  1  0.81119000  0.09466900  0.15320300  1
  H  H5  1  0.74011100  0.10907100  0.22747400  1
  H  H6  1  0.82038200  0.59944200  0.34493800  1
  H  H7  1  0.77976800  0.65217300  0.27976800  1
  H  H8  1  0.68297000  0.58276800  0.19350400  1
  H  H9  1  0.68881000  0.40533100  0.15320300  1
  H  H10  1  0.75988900  0.39092900  0.22747400  1
  H  H11  1  0.34493800  0.67961800  0.90055800  1
  H  H12  1  0.27976800  0.72023200  0.84782700  1
  H  H13  1  0.19350400  0.81703000  0.91723200  1
  H  H14  1  0.15320300  0.81119000  0.09466900  1
  H  H15  1  0.22747400  0.74011100  0.10907100  1
  H  H16  1  0.34493800  0.82038200  0.59944200  1
  H  H17  1  0.27976800  0.77976800  0.65217300  1
  H  H18  1  0.19350400  0.68297000  0.58276800  1
  H  H19  1  0.15320300  0.68881000  0.40533100  1
  H  H20  1  0.22747400  0.75988900  0.39092900  1
  H  H21  1  0.90055800  0.34493800  0.67961800  1
  H  H22  1  0.84782700  0.27976800  0.72023200  1
  H  H23  1  0.91723200  0.19350400  0.81703000  1
  H  H24  1  0.09466900  0.15320300  0.81119000  1
  H  H25  1  0.10907100  0.22747400  0.74011100  1
  H  H26  1  0.59944200  0.34493800  0.82038200  1
  H  H27  1  0.65217300  0.27976800  0.77976800  1
  H  H28  1  0.58276800  0.19350400  0.68297000  1
  H  H29  1  0.40533100  0.15320300  0.68881000  1
  H  H30  1  0.39092900  0.22747400  0.75988900  1
  H  H31  1  0.32038200  0.09944200  0.65506200  1
  H  H32  1  0.27976800  0.15217300  0.72023200  1
  H  H33  1  0.18297000  0.08276800  0.80649600  1
  H  H34  1  0.18881000  0.90533100  0.84679700  1
  H  H35  1  0.25988900  0.89092900  0.77252600  1
  H  H36  1  0.17961800  0.40055800  0.65506200  1
  H  H37  1  0.22023200  0.34782700  0.72023200  1
  H  H38  1  0.31703000  0.41723200  0.80649600  1
  H  H39  1  0.31119000  0.59466900  0.84679700  1
  H  H40  1  0.24011100  0.60907100  0.77252600  1
  H  H41  1  0.65506200  0.32038200  0.09944200  1
  H  H42  1  0.72023200  0.27976800  0.15217300  1
  H  H43  1  0.80649600  0.18297000  0.08276800  1
  H  H44  1  0.84679700  0.18881000  0.90533100  1
  H  H45  1  0.77252600  0.25988900  0.89092900  1
  H  H46  1  0.65506200  0.17961800  0.40055800  1
  H  H47  1  0.72023200  0.22023200  0.34782700  1
  H  H48  1  0.80649600  0.31703000  0.41723200  1
  H  H49  1  0.84679700  0.31119000  0.59466900  1
  H  H50  1  0.77252600  0.24011100  0.60907100  1
  H  H51  1  0.09944200  0.65506200  0.32038200  1
  H  H52  1  0.15217300  0.72023200  0.27976800  1
  H  H53  1  0.08276800  0.80649600  0.18297000  1
  H  H54  1  0.90533100  0.84679700  0.18881000  1
  H  H55  1  0.89092900  0.77252600  0.25988900  1
  H  H56  1  0.40055800  0.65506200  0.17961800  1
  H  H57  1  0.34782700  0.72023200  0.22023200  1
  H  H58  1  0.41723200  0.80649600  0.31703000  1
  H  H59  1  0.59466900  0.84679700  0.31119000  1
  H  H60  1  0.60907100  0.77252600  0.24011100  1
  C  C1  1  0.86868300  0.99809200  0.12887100  1
  C  C2  1  0.13131700  0.00190800  0.87112900  1
  C  C3  1  0.00081900  0.87149000  0.13204400  1
  C  C4  1  0.99918200  0.12850900  0.86795400  1
  C  C5  1  0.87130600  0.13142000  0.00162800  1
  C  C6  1  0.12869300  0.86858000  0.99837300  1
  C  C7  1  0.63131700  0.50190800  0.12887100  1
  C  C8  1  0.36868300  0.49809200  0.87112900  1
  C  C9  1  0.49918100  0.62851000  0.13204400  1
  C  C10  1  0.50081800  0.37149100  0.86795400  1
  C  C11  1  0.62869400  0.36858000  0.00162800  1
  C  C12  1  0.37130700  0.63142000  0.99837300  1
  C  C13  1  0.63131700  0.99809200  0.37112900  1
  C  C14  1  0.36868300  0.00190800  0.62887100  1
  C  C15  1  0.49918100  0.87149000  0.36795600  1
  C  C16  1  0.50081800  0.12850900  0.63204600  1
  C  C17  1  0.62869400  0.13142000  0.49837200  1
  C  C18  1  0.37130700  0.86858000  0.50162700  1
  C  C19  1  0.86868300  0.50190800  0.37112900  1
  C  C20  1  0.13131700  0.49809200  0.62887100  1
  C  C21  1  0.00081900  0.62851000  0.36795600  1
  C  C22  1  0.99918200  0.37149100  0.63204600  1
  C  C23  1  0.87130600  0.36858000  0.49837200  1
  C  C24  1  0.12869300  0.63142000  0.50162700  1
  C  C25  1  0.67981500  0.99039600  0.32656900  1
  C  C26  1  0.69682000  0.93348100  0.31860500  1
  C  C27  1  0.73718000  0.92356200  0.27759100  1
  C  C28  1  0.75902000  0.96692600  0.24263500  1
  C  C29  1  0.80045000  0.95741300  0.20251800  1
  C  C30  1  0.82087000  0.00469300  0.17142300  1
  C  C31  1  0.79661900  0.05746600  0.17807300  1
  C  C32  1  0.75679500  0.06664000  0.22057200  1
  C  C33  1  0.73885300  0.02261800  0.25365900  1
  C  C34  1  0.82018500  0.50960400  0.32656900  1
  C  C35  1  0.80318000  0.56651900  0.31860500  1
  C  C36  1  0.76282000  0.57643800  0.27759100  1
  C  C37  1  0.74098000  0.53307400  0.24263500  1
  C  C38  1  0.69955000  0.54258700  0.20251800  1
  C  C39  1  0.67913000  0.49530700  0.17142300  1
  C  C40  1  0.70338100  0.44253400  0.17807300  1
  C  C41  1  0.74320500  0.43336000  0.22057200  1
  C  C42  1  0.76114700  0.47738200  0.25365900  1
  C  C43  1  0.32656900  0.67981500  0.99039600  1
  C  C44  1  0.31860500  0.69682000  0.93348100  1
  C  C45  1  0.27759100  0.73718000  0.92356200  1
  C  C46  1  0.24263500  0.75902000  0.96692600  1
  C  C47  1  0.20251800  0.80045000  0.95741300  1
  C  C48  1  0.17142300  0.82087000  0.00469300  1
  C  C49  1  0.17807300  0.79661900  0.05746600  1
  C  C50  1  0.22057200  0.75679500  0.06664000  1
  C  C51  1  0.25365900  0.73885300  0.02261800  1
  C  C52  1  0.32656900  0.82018500  0.50960400  1
  C  C53  1  0.31860500  0.80318000  0.56651900  1
  C  C54  1  0.27759100  0.76282000  0.57643800  1
  C  C55  1  0.24263500  0.74098000  0.53307400  1
  C  C56  1  0.20251800  0.69955000  0.54258700  1
  C  C57  1  0.17142300  0.67913000  0.49530700  1
  C  C58  1  0.17807300  0.70338100  0.44253400  1
  C  C59  1  0.22057200  0.74320500  0.43336000  1
  C  C60  1  0.25365900  0.76114700  0.47738200  1
  C  C61  1  0.99039600  0.32656900  0.67981500  1
  C  C62  1  0.93348100  0.31860500  0.69682000  1
  C  C63  1  0.92356200  0.27759100  0.73718000  1
  C  C64  1  0.96692600  0.24263500  0.75902000  1
  C  C65  1  0.95741300  0.20251800  0.80045000  1
  C  C66  1  0.00469300  0.17142300  0.82087000  1
  C  C67  1  0.05746600  0.17807300  0.79661900  1
  C  C68  1  0.06664000  0.22057200  0.75679500  1
  C  C69  1  0.02261800  0.25365900  0.73885300  1
  C  C70  1  0.50960400  0.32656900  0.82018500  1
  C  C71  1  0.56651900  0.31860500  0.80318000  1
  C  C72  1  0.57643800  0.27759100  0.76282000  1
  C  C73  1  0.53307400  0.24263500  0.74098000  1
  C  C74  1  0.54258700  0.20251800  0.69955000  1
  C  C75  1  0.49530700  0.17142300  0.67913000  1
  C  C76  1  0.44253400  0.17807300  0.70338100  1
  C  C77  1  0.43336000  0.22057200  0.74320500  1
  C  C78  1  0.47738200  0.25365900  0.76114700  1
  C  C79  1  0.32018500  0.00960400  0.67343100  1
  C  C80  1  0.30318000  0.06651900  0.68139500  1
  C  C81  1  0.26282000  0.07643800  0.72240900  1
  C  C82  1  0.24098000  0.03307400  0.75736500  1
  C  C83  1  0.19955000  0.04258700  0.79748200  1
  C  C84  1  0.17913000  0.99530700  0.82857700  1
  C  C85  1  0.20338100  0.94253400  0.82192700  1
  C  C86  1  0.24320500  0.93336000  0.77942800  1
  C  C87  1  0.26114700  0.97738200  0.74634100  1
  C  C88  1  0.17981500  0.49039600  0.67343100  1
  C  C89  1  0.19682000  0.43348100  0.68139500  1
  C  C90  1  0.23718000  0.42356200  0.72240900  1
  C  C91  1  0.25902000  0.46692600  0.75736500  1
  C  C92  1  0.30045000  0.45741300  0.79748200  1
  C  C93  1  0.32087000  0.50469300  0.82857700  1
  C  C94  1  0.29661900  0.55746600  0.82192700  1
  C  C95  1  0.25679500  0.56664000  0.77942800  1
  C  C96  1  0.23885300  0.52261800  0.74634100  1
  C  C97  1  0.67343100  0.32018500  0.00960400  1
  C  C98  1  0.68139500  0.30318000  0.06651900  1
  C  C99  1  0.72240900  0.26282000  0.07643800  1
  C  C100  1  0.75736500  0.24098000  0.03307400  1
  C  C101  1  0.79748200  0.19955000  0.04258700  1
  C  C102  1  0.82857700  0.17913000  0.99530700  1
  C  C103  1  0.82192700  0.20338100  0.94253400  1
  C  C104  1  0.77942800  0.24320500  0.93336000  1
  C  C105  1  0.74634100  0.26114700  0.97738200  1
  C  C106  1  0.67343100  0.17981500  0.49039600  1
  C  C107  1  0.68139500  0.19682000  0.43348100  1
  C  C108  1  0.72240900  0.23718000  0.42356200  1
  C  C109  1  0.75736500  0.25902000  0.46692600  1
  C  C110  1  0.79748200  0.30045000  0.45741300  1
  C  C111  1  0.82857700  0.32087000  0.50469300  1
  C  C112  1  0.82192700  0.29661900  0.55746600  1
  C  C113  1  0.77942800  0.25679500  0.56664000  1
  C  C114  1  0.74634100  0.23885300  0.52261800  1
  C  C115  1  0.00960400  0.67343100  0.32018500  1
  C  C116  1  0.06651900  0.68139500  0.30318000  1
  C  C117  1  0.07643800  0.72240900  0.26282000  1
  C  C118  1  0.03307400  0.75736500  0.24098000  1
  C  C119  1  0.04258700  0.79748200  0.19955000  1
  C  C120  1  0.99530700  0.82857700  0.17913000  1
  C  C121  1  0.94253400  0.82192700  0.20338100  1
  C  C122  1  0.93336000  0.77942800  0.24320500  1
  C  C123  1  0.97738200  0.74634100  0.26114700  1
  C  C124  1  0.49039600  0.67343100  0.17981500  1
  C  C125  1  0.43348100  0.68139500  0.19682000  1
  C  C126  1  0.42356200  0.72240900  0.23718000  1
  C  C127  1  0.46692600  0.75736500  0.25902000  1
  C  C128  1  0.45741300  0.79748200  0.30045000  1
  C  C129  1  0.50469300  0.82857700  0.32087000  1
  C  C130  1  0.55746600  0.82192700  0.29661900  1
  C  C131  1  0.56664000  0.77942800  0.25679500  1
  C  C132  1  0.52261800  0.74634100  0.23885300  1
  N  N1  1  0.70095500  0.03284400  0.29692300  1
  N  N2  1  0.79904500  0.46715600  0.29692300  1
  N  N3  1  0.29692300  0.70095500  0.03284400  1
  N  N4  1  0.29692300  0.79904500  0.46715600  1
  N  N5  1  0.03284400  0.29692300  0.70095500  1
  N  N6  1  0.46715600  0.29692300  0.79904500  1
  N  N7  1  0.29904500  0.96715600  0.70307700  1
  N  N8  1  0.20095500  0.53284400  0.70307700  1
  N  N9  1  0.70307700  0.29904500  0.96715600  1
  N  N10  1  0.70307700  0.20095500  0.53284400  1
  N  N11  1  0.96715600  0.70307700  0.29904500  1
  N  N12  1  0.53284400  0.70307700  0.20095500  1
  O  O1  1  0.94748400  0.94760300  0.03832000  1
  O  O2  1  0.05251700  0.05239600  0.96167900  1
  O  O3  1  0.96507400  0.05399900  0.05189500  1
  O  O4  1  0.03492800  0.94600100  0.94810400  1
  O  O5  1  0.05353100  0.96471700  0.05328600  1
  O  O6  1  0.94646800  0.03528400  0.94671500  1
  O  O7  1  0.92001500  0.00166300  0.14600300  1
  O  O8  1  0.85214100  0.99906000  0.07905800  1
  O  O9  1  0.07998600  0.99833700  0.85399600  1
  O  O10  1  0.14786000  0.00093900  0.92094100  1
  O  O11  1  0.99750100  0.92328600  0.14760600  1
  O  O12  1  0.00380200  0.85576300  0.08230900  1
  O  O13  1  0.00249800  0.07671400  0.85239600  1
  O  O14  1  0.99619900  0.14423600  0.91768900  1
  O  O15  1  0.85487700  0.07972200  0.00506700  1
  O  O16  1  0.92218600  0.14579500  0.99790100  1
  O  O17  1  0.14512200  0.92027900  0.99493400  1
  O  O18  1  0.07781500  0.85420500  0.00209700  1
  O  O19  1  0.55251600  0.55239700  0.03832000  1
  O  O20  1  0.44748300  0.44760400  0.96167900  1
  O  O21  1  0.53492600  0.44600100  0.05189500  1
  O  O22  1  0.46507200  0.55399900  0.94810400  1
  O  O23  1  0.44646900  0.53528300  0.05328600  1
  O  O24  1  0.55353200  0.46471600  0.94671500  1
  O  O25  1  0.57998500  0.49833700  0.14600300  1
  O  O26  1  0.64785900  0.50094000  0.07905800  1
  O  O27  1  0.42001400  0.50166300  0.85399600  1
  O  O28  1  0.35214000  0.49906100  0.92094100  1
  O  O29  1  0.50249900  0.57671400  0.14760600  1
  O  O30  1  0.49619800  0.64423700  0.08230900  1
  O  O31  1  0.49750200  0.42328600  0.85239600  1
  O  O32  1  0.50380100  0.35576400  0.91768900  1
  O  O33  1  0.64512300  0.42027800  0.00506700  1
  O  O34  1  0.57781400  0.35420500  0.99790100  1
  O  O35  1  0.35487800  0.57972100  0.99493400  1
  O  O36  1  0.42218500  0.64579500  0.00209700  1
  O  O37  1  0.55251600  0.94760300  0.46168000  1
  O  O38  1  0.44748300  0.05239600  0.53832100  1
  O  O39  1  0.53492600  0.05399900  0.44810500  1
  O  O40  1  0.46507200  0.94600100  0.55189600  1
  O  O41  1  0.44646900  0.96471700  0.44671400  1
  O  O42  1  0.55353200  0.03528400  0.55328500  1
  O  O43  1  0.57998500  0.00166300  0.35399700  1
  O  O44  1  0.64785900  0.99906000  0.42094200  1
  O  O45  1  0.42001400  0.99833700  0.64600400  1
  O  O46  1  0.35214000  0.00093900  0.57905900  1
  O  O47  1  0.50249900  0.92328600  0.35239400  1
  O  O48  1  0.49619800  0.85576300  0.41769100  1
  O  O49  1  0.49750200  0.07671400  0.64760400  1
  O  O50  1  0.50380100  0.14423600  0.58231100  1
  O  O51  1  0.64512300  0.07972200  0.49493300  1
  O  O52  1  0.57781400  0.14579500  0.50209900  1
  O  O53  1  0.35487800  0.92027900  0.50506600  1
  O  O54  1  0.42218500  0.85420500  0.49790300  1
  O  O55  1  0.94748400  0.55239700  0.46168000  1
  O  O56  1  0.05251700  0.44760400  0.53832100  1
  O  O57  1  0.96507400  0.44600100  0.44810500  1
  O  O58  1  0.03492800  0.55399900  0.55189600  1
  O  O59  1  0.05353100  0.53528300  0.44671400  1
  O  O60  1  0.94646800  0.46471600  0.55328500  1
  O  O61  1  0.92001500  0.49833700  0.35399700  1
  O  O62  1  0.85214100  0.50094000  0.42094200  1
  O  O63  1  0.07998600  0.50166300  0.64600400  1
  O  O64  1  0.14786000  0.49906100  0.57905900  1
  O  O65  1  0.99750100  0.57671400  0.35239400  1
  O  O66  1  0.00380200  0.64423700  0.41769100  1
  O  O67  1  0.00249800  0.42328600  0.64760400  1
  O  O68  1  0.99619900  0.35576400  0.58231100  1
  O  O69  1  0.85487700  0.42027800  0.49493300  1
  O  O70  1  0.92218600  0.35420500  0.50209900  1
  O  O71  1  0.14512200  0.57972100  0.50506600  1
  O  O72  1  0.07781500  0.64579500  0.49790300  1
  O  O73  1  0.75491800  0.86876800  0.27147700  1
  O  O74  1  0.74508200  0.63123200  0.27147700  1
  O  O75  1  0.27147700  0.75491800  0.86876800  1
  O  O76  1  0.27147700  0.74508200  0.63123200  1
  O  O77  1  0.86876800  0.27147700  0.75491800  1
  O  O78  1  0.63123200  0.27147700  0.74508200  1
  O  O79  1  0.24508200  0.13123200  0.72852300  1
  O  O80  1  0.25491800  0.36876800  0.72852300  1
  O  O81  1  0.72852300  0.24508200  0.13123200  1
  O  O82  1  0.72852300  0.25491800  0.36876800  1
  O  O83  1  0.13123200  0.72852300  0.24508200  1
  O  O84  1  0.36876800  0.72852300  0.25491800  1
