# generated using pymatgen
data_CuH13C17ClO4
_symmetry_space_group_name_H-M   'P 1'
_cell_length_a   13.24570000
_cell_length_b   13.24570000
_cell_length_c   26.49140000
_cell_angle_alpha   90.00000000
_cell_angle_beta   90.00000000
_cell_angle_gamma   90.00000000
_symmetry_Int_Tables_number   1
_chemical_formula_structural   CuH13C17ClO4
_chemical_formula_sum   'Cu4 H52 C68 Cl4 O16'
_cell_volume   4647.87820730
_cell_formula_units_Z   4
loop_
 _symmetry_equiv_pos_site_id
 _symmetry_equiv_pos_as_xyz
  1  'x, y, z'
loop_
 _atom_site_type_symbol
 _atom_site_label
 _atom_site_symmetry_multiplicity
 _atom_site_fract_x
 _atom_site_fract_y
 _atom_site_fract_z
 _atom_site_occupancy
  Cu  Cu1  1  0.89976800  0.00000000  0.00000000  1
  Cu  Cu2  1  0.10023200  0.00000000  0.00000000  1
  Cu  Cu3  1  0.00000000  0.89976800  0.50000000  1
  Cu  Cu4  1  0.00000000  0.10023200  0.50000000  1
  H  H1  1  0.19539600  0.59298100  0.65616900  1
  H  H2  1  0.33258000  0.84621100  0.58515500  1
  H  H3  1  0.19894900  0.96006400  0.62032100  1
  H  H4  1  0.96323000  0.70216800  0.68932800  1
  H  H5  1  0.03639300  0.59772700  0.69035800  1
  H  H6  1  0.05593300  0.69225300  0.74134200  1
  H  H7  1  0.90702800  0.12179000  0.66128300  1
  H  H8  1  0.89136100  0.12572500  0.75179900  1
  H  H9  1  0.06651800  0.85392700  0.75143200  1
  H  H10  1  0.91388100  0.89450900  0.82404500  1
  H  H11  1  0.87501100  0.01793100  0.82333300  1
  H  H12  1  0.03602300  0.07575200  0.83708100  1
  H  H13  1  0.09146300  0.95458700  0.84639800  1
  H  H14  1  0.40701900  0.19539600  0.15616900  1
  H  H15  1  0.15378900  0.33258000  0.08515500  1
  H  H16  1  0.03993600  0.19894900  0.12032100  1
  H  H17  1  0.29783200  0.96323000  0.18932800  1
  H  H18  1  0.40227300  0.03639300  0.19035800  1
  H  H19  1  0.30774700  0.05593300  0.24134200  1
  H  H20  1  0.87821000  0.90702800  0.16128300  1
  H  H21  1  0.87427500  0.89136100  0.25179900  1
  H  H22  1  0.14607300  0.06651800  0.25143200  1
  H  H23  1  0.10549100  0.91388100  0.32404500  1
  H  H24  1  0.98206900  0.87501100  0.32333300  1
  H  H25  1  0.92424800  0.03602300  0.33708100  1
  H  H26  1  0.04541300  0.09146300  0.34639800  1
  H  H27  1  0.57402900  0.31233700  0.92518000  1
  H  H28  1  0.65608500  0.17030900  0.06321200  1
  H  H29  1  0.83108300  0.24064200  0.05622000  1
  H  H30  1  0.81540200  0.37865700  0.88170000  1
  H  H31  1  0.68981600  0.38071700  0.87064200  1
  H  H32  1  0.74284000  0.48268400  0.91097000  1
  H  H33  1  0.15186000  0.32256600  0.01018900  1
  H  H34  1  0.16572000  0.50359900  0.00604100  1
  H  H35  1  0.84967600  0.50286400  0.97187300  1
  H  H36  1  0.98630200  0.64808900  0.93225600  1
  H  H37  1  0.10106000  0.64666600  0.96214900  1
  H  H38  1  0.02809300  0.67416200  0.03951800  1
  H  H39  1  0.90321400  0.69279600  0.01628100  1
  H  H40  1  0.68766300  0.57402900  0.42518000  1
  H  H41  1  0.82969100  0.65608500  0.56321200  1
  H  H42  1  0.75935800  0.83108300  0.55622000  1
  H  H43  1  0.62134300  0.81540200  0.38170000  1
  H  H44  1  0.61928300  0.68981600  0.37064200  1
  H  H45  1  0.51731600  0.74284000  0.41097000  1
  H  H46  1  0.67743400  0.15186000  0.51018900  1
  H  H47  1  0.49640100  0.16572000  0.50604100  1
  H  H48  1  0.49713600  0.84967600  0.47187300  1
  H  H49  1  0.35191100  0.98630200  0.43225600  1
  H  H50  1  0.35333400  0.10106000  0.46214900  1
  H  H51  1  0.32583800  0.02809300  0.53951800  1
  H  H52  1  0.30720400  0.90321400  0.51628100  1
  C  C1  1  0.00000000  0.00000000  0.90480100  1
  C  C2  1  0.00000000  0.80960100  0.00000000  1
  C  C3  1  0.00000000  0.00000000  0.09519900  1
  C  C4  1  0.00000000  0.19039900  0.00000000  1
  C  C5  1  0.00000000  0.00000000  0.40480100  1
  C  C6  1  0.19039900  0.00000000  0.50000000  1
  C  C7  1  0.00000000  0.00000000  0.59519900  1
  C  C8  1  0.80960100  0.00000000  0.50000000  1
  C  C9  1  0.11654000  0.84244700  0.65846500  1
  C  C10  1  0.12064600  0.73553900  0.66866600  1
  C  C11  1  0.19580900  0.67473700  0.65096500  1
  C  C12  1  0.26737900  0.71523700  0.61980200  1
  C  C13  1  0.27036700  0.81569000  0.60743300  1
  C  C14  1  0.19483700  0.87773900  0.62665800  1
  C  C15  1  0.04157000  0.68203400  0.69939300  1
  C  C16  1  0.04627100  0.91217900  0.67962400  1
  C  C17  1  0.00174200  0.98875200  0.65153200  1
  C  C18  1  0.94616600  0.06260400  0.68223700  1
  C  C19  1  0.92945600  0.06281500  0.73514100  1
  C  C20  1  0.96639400  0.97784500  0.75867600  1
  C  C21  1  0.03327200  0.91271700  0.73252400  1
  C  C22  1  0.94003200  0.96461800  0.81337700  1
  C  C23  1  0.02386800  0.99738600  0.84954900  1
  C  C24  1  0.15755300  0.11654000  0.15846500  1
  C  C25  1  0.26446100  0.12064600  0.16866600  1
  C  C26  1  0.32526300  0.19580900  0.15096500  1
  C  C27  1  0.28476300  0.26737900  0.11980200  1
  C  C28  1  0.18431000  0.27036700  0.10743300  1
  C  C29  1  0.12226100  0.19483700  0.12665800  1
  C  C30  1  0.31796600  0.04157000  0.19939300  1
  C  C31  1  0.08782100  0.04627100  0.17962400  1
  C  C32  1  0.01124800  0.00174200  0.15153200  1
  C  C33  1  0.93739600  0.94616600  0.18223700  1
  C  C34  1  0.93718500  0.92945600  0.23514100  1
  C  C35  1  0.02215500  0.96639400  0.25867600  1
  C  C36  1  0.08728300  0.03327200  0.23252400  1
  C  C37  1  0.03538200  0.94003200  0.31337700  1
  C  C38  1  0.00261400  0.02386800  0.34954900  1
  C  C39  1  0.80618700  0.31693000  0.98550000  1
  C  C40  1  0.72768900  0.33733100  0.94915400  1
  C  C41  1  0.63154600  0.30193000  0.95423100  1
  C  C42  1  0.60957600  0.23960400  0.99385400  1
  C  C43  1  0.67849500  0.21486600  0.03042600  1
  C  C44  1  0.77577700  0.25331500  0.02566000  1
  C  C45  1  0.74577000  0.39878500  0.90227900  1
  C  C46  1  0.90518200  0.35924900  0.98531000  1
  C  C47  1  0.99081500  0.30306400  0.99663900  1
  C  C48  1  0.08233400  0.36447400  0.00310100  1
  C  C49  1  0.09429900  0.47028200  0.99726800  1
  C  C50  1  0.00809700  0.51735300  0.98028600  1
  C  C51  1  0.91475500  0.46504900  0.98090400  1
  C  C52  1  0.01738500  0.62675400  0.96628900  1
  C  C53  1  0.98127400  0.69909700  0.00751400  1
  C  C54  1  0.68307000  0.80618700  0.48550000  1
  C  C55  1  0.66266900  0.72768900  0.44915400  1
  C  C56  1  0.69807000  0.63154600  0.45423100  1
  C  C57  1  0.76039600  0.60957600  0.49385400  1
  C  C58  1  0.78513400  0.67849500  0.53042600  1
  C  C59  1  0.74668500  0.77577700  0.52566000  1
  C  C60  1  0.60121500  0.74577000  0.40227900  1
  C  C61  1  0.64075100  0.90518200  0.48531000  1
  C  C62  1  0.69693600  0.99081500  0.49663900  1
  C  C63  1  0.63552600  0.08233400  0.50310100  1
  C  C64  1  0.52971800  0.09429900  0.49726800  1
  C  C65  1  0.48264700  0.00809700  0.48028600  1
  C  C66  1  0.53495100  0.91475500  0.48090400  1
  C  C67  1  0.37324600  0.01738500  0.46628900  1
  C  C68  1  0.30090300  0.98127400  0.50751400  1
  Cl  Cl1  1  0.36296400  0.63703600  0.59643100  1
  Cl  Cl2  1  0.36296400  0.36296400  0.09643100  1
  Cl  Cl3  1  0.48669200  0.19286200  0.00000000  1
  Cl  Cl4  1  0.80713800  0.48669200  0.50000000  1
  O  O1  1  0.07976600  0.00000000  0.92782700  1
  O  O2  1  0.92023400  0.00000000  0.92782700  1
  O  O3  1  0.07976600  0.85565400  0.00000000  1
  O  O4  1  0.92023400  0.85565400  0.00000000  1
  O  O5  1  0.07976600  0.00000000  0.07217300  1
  O  O6  1  0.92023400  0.00000000  0.07217300  1
  O  O7  1  0.07976600  0.14434600  0.00000000  1
  O  O8  1  0.92023400  0.14434600  0.00000000  1
  O  O9  1  0.00000000  0.07976600  0.42782700  1
  O  O10  1  0.00000000  0.92023400  0.42782700  1
  O  O11  1  0.14434600  0.07976600  0.50000000  1
  O  O12  1  0.14434600  0.92023400  0.50000000  1
  O  O13  1  0.00000000  0.07976600  0.57217300  1
  O  O14  1  0.00000000  0.92023400  0.57217300  1
  O  O15  1  0.85565400  0.07976600  0.50000000  1
  O  O16  1  0.85565400  0.92023400  0.50000000  1
