# generated using pymatgen
data_CuH8C12IN3O5
_symmetry_space_group_name_H-M   'P 1'
_cell_length_a   26.47000000
_cell_length_b   26.47000000
_cell_length_c   26.47000000
_cell_angle_alpha   90.00000000
_cell_angle_beta   90.00000000
_cell_angle_gamma   90.00000000
_symmetry_Int_Tables_number   1
_chemical_formula_structural   CuH8C12IN3O5
_chemical_formula_sum   'Cu12 H96 C144 I12 N36 O60'
_cell_volume   18546.49402300
_cell_formula_units_Z   12
loop_
 _symmetry_equiv_pos_site_id
 _symmetry_equiv_pos_as_xyz
  1  'x, y, z'
loop_
 _atom_site_type_symbol
 _atom_site_label
 _atom_site_symmetry_multiplicity
 _atom_site_fract_x
 _atom_site_fract_y
 _atom_site_fract_z
 _atom_site_occupancy
  Cu  Cu1  1  0.94984400  0.50000000  0.50000000  1
  Cu  Cu2  1  0.05015600  0.50000000  0.50000000  1
  Cu  Cu3  1  0.50000000  0.94984400  0.50000000  1
  Cu  Cu4  1  0.50000000  0.05015600  0.50000000  1
  Cu  Cu5  1  0.50000000  0.50000000  0.94984400  1
  Cu  Cu6  1  0.50000000  0.50000000  0.05015600  1
  Cu  Cu7  1  0.44984400  0.00000000  0.00000000  1
  Cu  Cu8  1  0.55015600  0.00000000  0.00000000  1
  Cu  Cu9  1  0.00000000  0.44984400  0.00000000  1
  Cu  Cu10  1  0.00000000  0.55015600  0.00000000  1
  Cu  Cu11  1  0.00000000  0.00000000  0.44984400  1
  Cu  Cu12  1  0.00000000  0.00000000  0.55015600  1
  H  H1  1  0.13272700  0.53678800  0.25350100  1
  H  H2  1  0.87165300  0.44491500  0.27534000  1
  H  H3  1  0.88519600  0.47104200  0.21554400  1
  H  H4  1  0.92617800  0.37516500  0.26511300  1
  H  H5  1  0.94995500  0.39713400  0.20296400  1
  H  H6  1  0.88260800  0.38260800  0.21358800  1
  H  H7  1  0.07502600  0.46038400  0.65537700  1
  H  H8  1  0.86709100  0.56173400  0.80260500  1
  H  H9  1  0.86727300  0.53678800  0.74649900  1
  H  H10  1  0.12834700  0.44491500  0.72466000  1
  H  H11  1  0.11480400  0.47104200  0.78445600  1
  H  H12  1  0.07382200  0.37516500  0.73488700  1
  H  H13  1  0.05004500  0.39713400  0.79703600  1
  H  H14  1  0.11739200  0.38260800  0.78641200  1
  H  H15  1  0.34462300  0.92497400  0.46038400  1
  H  H16  1  0.19739500  0.13290900  0.56173400  1
  H  H17  1  0.25350100  0.13272700  0.53678800  1
  H  H18  1  0.27534000  0.87165300  0.44491500  1
  H  H19  1  0.21554400  0.88519600  0.47104200  1
  H  H20  1  0.26511300  0.92617800  0.37516500  1
  H  H21  1  0.20296400  0.94995500  0.39713400  1
  H  H22  1  0.21358800  0.88260800  0.38260800  1
  H  H23  1  0.65537700  0.07502600  0.46038400  1
  H  H24  1  0.80260500  0.86709100  0.56173400  1
  H  H25  1  0.74649900  0.86727300  0.53678800  1
  H  H26  1  0.72466000  0.12834700  0.44491500  1
  H  H27  1  0.78445600  0.11480400  0.47104200  1
  H  H28  1  0.73488700  0.07382200  0.37516500  1
  H  H29  1  0.79703600  0.05004500  0.39713400  1
  H  H30  1  0.78641200  0.11739200  0.38260800  1
  H  H31  1  0.46038400  0.34462300  0.92497400  1
  H  H32  1  0.56173400  0.19739500  0.13290900  1
  H  H33  1  0.53678800  0.25350100  0.13272700  1
  H  H34  1  0.44491500  0.27534000  0.87165300  1
  H  H35  1  0.47104200  0.21554400  0.88519600  1
  H  H36  1  0.37516500  0.26511300  0.92617800  1
  H  H37  1  0.39713400  0.20296400  0.94995500  1
  H  H38  1  0.38260800  0.21358800  0.88260800  1
  H  H39  1  0.46038400  0.65537700  0.07502600  1
  H  H40  1  0.56173400  0.80260500  0.86709100  1
  H  H41  1  0.53678800  0.74649900  0.86727300  1
  H  H42  1  0.44491500  0.72466000  0.12834700  1
  H  H43  1  0.47104200  0.78445600  0.11480400  1
  H  H44  1  0.37516500  0.73488700  0.07382200  1
  H  H45  1  0.39713400  0.79703600  0.05004500  1
  H  H46  1  0.38260800  0.78641200  0.11739200  1
  H  H47  1  0.46038400  0.92497400  0.65537700  1
  H  H48  1  0.56173400  0.13290900  0.80260500  1
  H  H49  1  0.53678800  0.13272700  0.74649900  1
  H  H50  1  0.44491500  0.87165300  0.72466000  1
  H  H51  1  0.47104200  0.88519600  0.78445600  1
  H  H52  1  0.37516500  0.92617800  0.73488700  1
  H  H53  1  0.39713400  0.94995500  0.79703600  1
  H  H54  1  0.38260800  0.88260800  0.78641200  1
  H  H55  1  0.46038400  0.07502600  0.34462300  1
  H  H56  1  0.56173400  0.86709100  0.19739500  1
  H  H57  1  0.53678800  0.86727300  0.25350100  1
  H  H58  1  0.44491500  0.12834700  0.27534000  1
  H  H59  1  0.47104200  0.11480400  0.21554400  1
  H  H60  1  0.37516500  0.07382200  0.26511300  1
  H  H61  1  0.39713400  0.05004500  0.20296400  1
  H  H62  1  0.38260800  0.11739200  0.21358800  1
  H  H63  1  0.92497400  0.34462300  0.53961600  1
  H  H64  1  0.13290900  0.19739500  0.43826600  1
  H  H65  1  0.13272700  0.25350100  0.46321200  1
  H  H66  1  0.87165300  0.27534000  0.55508500  1
  H  H67  1  0.88519600  0.21554400  0.52895800  1
  H  H68  1  0.92617800  0.26511300  0.62483500  1
  H  H69  1  0.94995500  0.20296400  0.60286600  1
  H  H70  1  0.88260800  0.21358800  0.61739200  1
  H  H71  1  0.07502600  0.65537700  0.53961600  1
  H  H72  1  0.86709100  0.80260500  0.43826600  1
  H  H73  1  0.86727300  0.74649900  0.46321200  1
  H  H74  1  0.12834700  0.72466000  0.55508500  1
  H  H75  1  0.11480400  0.78445600  0.52895800  1
  H  H76  1  0.07382200  0.73488700  0.62483500  1
  H  H77  1  0.05004500  0.79703600  0.60286600  1
  H  H78  1  0.11739200  0.78641200  0.61739200  1
  H  H79  1  0.34462300  0.46038400  0.07502600  1
  H  H80  1  0.19739500  0.56173400  0.86709100  1
  H  H81  1  0.25350100  0.53678800  0.86727300  1
  H  H82  1  0.27534000  0.44491500  0.12834700  1
  H  H83  1  0.21554400  0.47104200  0.11480400  1
  H  H84  1  0.26511300  0.37516500  0.07382200  1
  H  H85  1  0.20296400  0.39713400  0.05004500  1
  H  H86  1  0.21358800  0.38260800  0.11739200  1
  H  H87  1  0.65537700  0.46038400  0.92497400  1
  H  H88  1  0.80260500  0.56173400  0.13290900  1
  H  H89  1  0.74649900  0.53678800  0.13272700  1
  H  H90  1  0.72466000  0.44491500  0.87165300  1
  H  H91  1  0.78445600  0.47104200  0.88519600  1
  H  H92  1  0.73488700  0.37516500  0.92617800  1
  H  H93  1  0.79703600  0.39713400  0.94995500  1
  H  H94  1  0.78641200  0.38260800  0.88260800  1
  H  H95  1  0.92497400  0.46038400  0.34462300  1
  H  H96  1  0.13290900  0.56173400  0.19739500  1
  C  C1  1  0.01708700  0.49663700  0.76547100  1
  C  C2  1  0.00000000  0.59527600  0.50000000  1
  C  C3  1  0.98825700  0.50565000  0.84751700  1
  C  C4  1  0.93908300  0.53329700  0.78304400  1
  C  C5  1  0.97408400  0.51898000  0.74800900  1
  C  C6  1  0.96749300  0.52381300  0.69000800  1
  C  C7  1  0.00390300  0.49667400  0.65345800  1
  C  C8  1  0.04482300  0.47755600  0.67603900  1
  C  C9  1  0.89213500  0.55976900  0.76994200  1
  C  C10  1  0.09604700  0.45089300  0.75216000  1
  C  C11  1  0.08307300  0.39815500  0.76979700  1
  C  C12  1  0.23452900  0.98291300  0.49663700  1
  C  C13  1  0.15248300  0.01174300  0.50565000  1
  C  C14  1  0.21695600  0.06091700  0.53329700  1
  C  C15  1  0.25199100  0.02591600  0.51898000  1
  C  C16  1  0.30999200  0.03250700  0.52381300  1
  C  C17  1  0.34654200  0.99609700  0.49667400  1
  C  C18  1  0.32396100  0.95517700  0.47755600  1
  C  C19  1  0.23005800  0.10786500  0.55976900  1
  C  C20  1  0.24784000  0.90395300  0.45089300  1
  C  C21  1  0.23020300  0.91692700  0.39815500  1
  C  C22  1  0.76547100  0.01708700  0.49663700  1
  C  C23  1  0.84751700  0.98825700  0.50565000  1
  C  C24  1  0.78304400  0.93908300  0.53329700  1
  C  C25  1  0.74800900  0.97408400  0.51898000  1
  C  C26  1  0.40472400  0.00000000  0.50000000  1
  C  C27  1  0.69000800  0.96749300  0.52381300  1
  C  C28  1  0.65345800  0.00390300  0.49667400  1
  C  C29  1  0.67603900  0.04482300  0.47755600  1
  C  C30  1  0.76994200  0.89213500  0.55976900  1
  C  C31  1  0.75216000  0.09604700  0.45089300  1
  C  C32  1  0.76979700  0.08307300  0.39815500  1
  C  C33  1  0.49663700  0.23452900  0.98291300  1
  C  C34  1  0.50565000  0.15248300  0.01174300  1
  C  C35  1  0.53329700  0.21695600  0.06091700  1
  C  C36  1  0.51898000  0.25199100  0.02591600  1
  C  C37  1  0.52381300  0.30999200  0.03250700  1
  C  C38  1  0.49667400  0.34654200  0.99609700  1
  C  C39  1  0.47755600  0.32396100  0.95517700  1
  C  C40  1  0.55976900  0.23005800  0.10786500  1
  C  C41  1  0.45089300  0.24784000  0.90395300  1
  C  C42  1  0.39815500  0.23020300  0.91692700  1
  C  C43  1  0.50000000  0.00000000  0.40472400  1
  C  C44  1  0.00000000  0.50000000  0.40472400  1
  C  C45  1  0.49663700  0.76547100  0.01708700  1
  C  C46  1  0.50565000  0.84751700  0.98825700  1
  C  C47  1  0.53329700  0.78304400  0.93908300  1
  C  C48  1  0.51898000  0.74800900  0.97408400  1
  C  C49  1  0.52381300  0.69000800  0.96749300  1
  C  C50  1  0.49667400  0.65345800  0.00390300  1
  C  C51  1  0.47755600  0.67603900  0.04482300  1
  C  C52  1  0.55976900  0.76994200  0.89213500  1
  C  C53  1  0.45089300  0.75216000  0.09604700  1
  C  C54  1  0.39815500  0.76979700  0.08307300  1
  C  C55  1  0.59527600  0.00000000  0.50000000  1
  C  C56  1  0.49663700  0.98291300  0.76547100  1
  C  C57  1  0.50565000  0.01174300  0.84751700  1
  C  C58  1  0.53329700  0.06091700  0.78304400  1
  C  C59  1  0.51898000  0.02591600  0.74800900  1
  C  C60  1  0.52381300  0.03250700  0.69000800  1
  C  C61  1  0.49667400  0.99609700  0.65345800  1
  C  C62  1  0.47755600  0.95517700  0.67603900  1
  C  C63  1  0.55976900  0.10786500  0.76994200  1
  C  C64  1  0.45089300  0.90395300  0.75216000  1
  C  C65  1  0.39815500  0.91692700  0.76979700  1
  C  C66  1  0.49663700  0.01708700  0.23452900  1
  C  C67  1  0.50565000  0.98825700  0.15248300  1
  C  C68  1  0.50000000  0.00000000  0.59527600  1
  C  C69  1  0.53329700  0.93908300  0.21695600  1
  C  C70  1  0.51898000  0.97408400  0.25199100  1
  C  C71  1  0.52381300  0.96749300  0.30999200  1
  C  C72  1  0.49667400  0.00390300  0.34654200  1
  C  C73  1  0.47755600  0.04482300  0.32396100  1
  C  C74  1  0.55976900  0.89213500  0.23005800  1
  C  C75  1  0.45089300  0.09604700  0.24784000  1
  C  C76  1  0.39815500  0.08307300  0.23020300  1
  C  C77  1  0.98291300  0.23452900  0.50336300  1
  C  C78  1  0.01174300  0.15248300  0.49435000  1
  C  C79  1  0.06091700  0.21695600  0.46670300  1
  C  C80  1  0.02591600  0.25199100  0.48102000  1
  C  C81  1  0.03250700  0.30999200  0.47618700  1
  C  C82  1  0.99609700  0.34654200  0.50332600  1
  C  C83  1  0.95517700  0.32396100  0.52244400  1
  C  C84  1  0.10786500  0.23005800  0.44023100  1
  C  C85  1  0.90395300  0.24784000  0.54910700  1
  C  C86  1  0.91692700  0.23020300  0.60184500  1
  C  C87  1  0.01708700  0.76547100  0.50336300  1
  C  C88  1  0.98825700  0.84751700  0.49435000  1
  C  C89  1  0.93908300  0.78304400  0.46670300  1
  C  C90  1  0.97408400  0.74800900  0.48102000  1
  C  C91  1  0.96749300  0.69000800  0.47618700  1
  C  C92  1  0.50000000  0.40472400  0.00000000  1
  C  C93  1  0.00390300  0.65345800  0.50332600  1
  C  C94  1  0.04482300  0.67603900  0.52244400  1
  C  C95  1  0.89213500  0.76994200  0.44023100  1
  C  C96  1  0.09604700  0.75216000  0.54910700  1
  C  C97  1  0.08307300  0.76979700  0.60184500  1
  C  C98  1  0.23452900  0.49663700  0.01708700  1
  C  C99  1  0.15248300  0.50565000  0.98825700  1
  C  C100  1  0.21695600  0.53329700  0.93908300  1
  C  C101  1  0.25199100  0.51898000  0.97408400  1
  C  C102  1  0.30999200  0.52381300  0.96749300  1
  C  C103  1  0.34654200  0.49667400  0.00390300  1
  C  C104  1  0.32396100  0.47755600  0.04482300  1
  C  C105  1  0.23005800  0.55976900  0.89213500  1
  C  C106  1  0.24784000  0.45089300  0.09604700  1
  C  C107  1  0.23020300  0.39815500  0.08307300  1
  C  C108  1  0.40472400  0.50000000  0.00000000  1
  C  C109  1  0.76547100  0.49663700  0.98291300  1
  C  C110  1  0.84751700  0.50565000  0.01174300  1
  C  C111  1  0.78304400  0.53329700  0.06091700  1
  C  C112  1  0.74800900  0.51898000  0.02591600  1
  C  C113  1  0.69000800  0.52381300  0.03250700  1
  C  C114  1  0.65345800  0.49667400  0.99609700  1
  C  C115  1  0.67603900  0.47755600  0.95517700  1
  C  C116  1  0.76994200  0.55976900  0.10786500  1
  C  C117  1  0.75216000  0.45089300  0.90395300  1
  C  C118  1  0.76979700  0.39815500  0.91692700  1
  C  C119  1  0.50000000  0.59527600  0.00000000  1
  C  C120  1  0.59527600  0.50000000  0.00000000  1
  C  C121  1  0.50000000  0.00000000  0.90472400  1
  C  C122  1  0.50000000  0.90472400  0.00000000  1
  C  C123  1  0.00000000  0.40472400  0.50000000  1
  C  C124  1  0.50000000  0.00000000  0.09527600  1
  C  C125  1  0.50000000  0.09527600  0.00000000  1
  C  C126  1  0.90472400  0.50000000  0.00000000  1
  C  C127  1  0.00000000  0.50000000  0.90472400  1
  C  C128  1  0.09527600  0.50000000  0.00000000  1
  C  C129  1  0.00000000  0.50000000  0.09527600  1
  C  C130  1  0.00000000  0.90472400  0.50000000  1
  C  C131  1  0.90472400  0.00000000  0.50000000  1
  C  C132  1  0.00000000  0.09527600  0.50000000  1
  C  C133  1  0.00000000  0.50000000  0.59527600  1
  C  C134  1  0.09527600  0.00000000  0.50000000  1
  C  C135  1  0.98291300  0.49663700  0.23452900  1
  C  C136  1  0.01174300  0.50565000  0.15248300  1
  C  C137  1  0.06091700  0.53329700  0.21695600  1
  C  C138  1  0.02591600  0.51898000  0.25199100  1
  C  C139  1  0.03250700  0.52381300  0.30999200  1
  C  C140  1  0.99609700  0.49667400  0.34654200  1
  C  C141  1  0.95517700  0.47755600  0.32396100  1
  C  C142  1  0.10786500  0.55976900  0.23005800  1
  C  C143  1  0.90395300  0.45089300  0.24784000  1
  C  C144  1  0.91692700  0.39815500  0.23020300  1
  I  I1  1  0.09331100  0.63649600  0.24377600  1
  I  I2  1  0.90668900  0.63649600  0.75622400  1
  I  I3  1  0.24377600  0.09331100  0.63649600  1
  I  I4  1  0.75622400  0.90668900  0.63649600  1
  I  I5  1  0.63649600  0.24377600  0.09331100  1
  I  I6  1  0.63649600  0.75622400  0.90668900  1
  I  I7  1  0.63649600  0.09331100  0.75622400  1
  I  I8  1  0.63649600  0.90668900  0.24377600  1
  I  I9  1  0.09331100  0.24377600  0.36350400  1
  I  I10  1  0.90668900  0.75622400  0.36350400  1
  I  I11  1  0.24377600  0.63649600  0.90668900  1
  I  I12  1  0.75622400  0.63649600  0.09331100  1
  N  N1  1  0.05183100  0.47767300  0.72944700  1
  N  N2  1  0.02594800  0.49052300  0.81659100  1
  N  N3  1  0.94411900  0.52784200  0.83313800  1
  N  N4  1  0.27055300  0.94816900  0.47767300  1
  N  N5  1  0.18340900  0.97405200  0.49052300  1
  N  N6  1  0.16686200  0.05588100  0.52784200  1
  N  N7  1  0.72944700  0.05183100  0.47767300  1
  N  N8  1  0.81659100  0.02594800  0.49052300  1
  N  N9  1  0.83313800  0.94411900  0.52784200  1
  N  N10  1  0.47767300  0.27055300  0.94816900  1
  N  N11  1  0.49052300  0.18340900  0.97405200  1
  N  N12  1  0.52784200  0.16686200  0.05588100  1
  N  N13  1  0.47767300  0.72944700  0.05183100  1
  N  N14  1  0.49052300  0.81659100  0.02594800  1
  N  N15  1  0.52784200  0.83313800  0.94411900  1
  N  N16  1  0.47767300  0.94816900  0.72944700  1
  N  N17  1  0.49052300  0.97405200  0.81659100  1
  N  N18  1  0.52784200  0.05588100  0.83313800  1
  N  N19  1  0.47767300  0.05183100  0.27055300  1
  N  N20  1  0.49052300  0.02594800  0.18340900  1
  N  N21  1  0.52784200  0.94411900  0.16686200  1
  N  N22  1  0.94816900  0.27055300  0.52232700  1
  N  N23  1  0.97405200  0.18340900  0.50947700  1
  N  N24  1  0.05588100  0.16686200  0.47215800  1
  N  N25  1  0.05183100  0.72944700  0.52232700  1
  N  N26  1  0.02594800  0.81659100  0.50947700  1
  N  N27  1  0.94411900  0.83313800  0.47215800  1
  N  N28  1  0.27055300  0.47767300  0.05183100  1
  N  N29  1  0.18340900  0.49052300  0.02594800  1
  N  N30  1  0.16686200  0.52784200  0.94411900  1
  N  N31  1  0.72944700  0.47767300  0.94816900  1
  N  N32  1  0.81659100  0.49052300  0.97405200  1
  N  N33  1  0.83313800  0.52784200  0.05588100  1
  N  N34  1  0.94816900  0.47767300  0.27055300  1
  N  N35  1  0.97405200  0.49052300  0.18340900  1
  N  N36  1  0.05588100  0.52784200  0.16686200  1
  O  O1  1  0.96008500  0.50000000  0.57223100  1
  O  O2  1  0.93016700  0.54602100  0.67490900  1
  O  O3  1  0.03991500  0.57223100  0.50000000  1
  O  O4  1  0.96008500  0.57223100  0.50000000  1
  O  O5  1  0.32509100  0.06983300  0.54602100  1
  O  O6  1  0.67490900  0.93016700  0.54602100  1
  O  O7  1  0.42776900  0.03991500  0.50000000  1
  O  O8  1  0.42776900  0.96008500  0.50000000  1
  O  O9  1  0.54602100  0.32509100  0.06983300  1
  O  O10  1  0.50000000  0.03991500  0.42776900  1
  O  O11  1  0.54602100  0.67490900  0.93016700  1
  O  O12  1  0.50000000  0.96008500  0.42776900  1
  O  O13  1  0.57223100  0.03991500  0.50000000  1
  O  O14  1  0.54602100  0.06983300  0.67490900  1
  O  O15  1  0.57223100  0.96008500  0.50000000  1
  O  O16  1  0.54602100  0.93016700  0.32509100  1
  O  O17  1  0.50000000  0.03991500  0.57223100  1
  O  O18  1  0.50000000  0.96008500  0.57223100  1
  O  O19  1  0.06983300  0.32509100  0.45397900  1
  O  O20  1  0.93016700  0.67490900  0.45397900  1
  O  O21  1  0.03991500  0.50000000  0.42776900  1
  O  O22  1  0.50000000  0.42776900  0.03991500  1
  O  O23  1  0.50000000  0.42776900  0.96008500  1
  O  O24  1  0.32509100  0.54602100  0.93016700  1
  O  O25  1  0.42776900  0.50000000  0.03991500  1
  O  O26  1  0.67490900  0.54602100  0.06983300  1
  O  O27  1  0.42776900  0.50000000  0.96008500  1
  O  O28  1  0.50000000  0.57223100  0.03991500  1
  O  O29  1  0.50000000  0.57223100  0.96008500  1
  O  O30  1  0.96008500  0.50000000  0.42776900  1
  O  O31  1  0.57223100  0.50000000  0.03991500  1
  O  O32  1  0.57223100  0.50000000  0.96008500  1
  O  O33  1  0.53991500  0.00000000  0.92776900  1
  O  O34  1  0.46008500  0.00000000  0.92776900  1
  O  O35  1  0.53991500  0.92776900  0.00000000  1
  O  O36  1  0.46008500  0.92776900  0.00000000  1
  O  O37  1  0.53991500  0.00000000  0.07223100  1
  O  O38  1  0.46008500  0.00000000  0.07223100  1
  O  O39  1  0.53991500  0.07223100  0.00000000  1
  O  O40  1  0.46008500  0.07223100  0.00000000  1
  O  O41  1  0.92776900  0.53991500  0.00000000  1
  O  O42  1  0.03991500  0.42776900  0.50000000  1
  O  O43  1  0.92776900  0.46008500  0.00000000  1
  O  O44  1  0.00000000  0.53991500  0.92776900  1
  O  O45  1  0.00000000  0.46008500  0.92776900  1
  O  O46  1  0.07223100  0.53991500  0.00000000  1
  O  O47  1  0.07223100  0.46008500  0.00000000  1
  O  O48  1  0.00000000  0.53991500  0.07223100  1
  O  O49  1  0.00000000  0.46008500  0.07223100  1
  O  O50  1  0.96008500  0.42776900  0.50000000  1
  O  O51  1  0.00000000  0.92776900  0.53991500  1
  O  O52  1  0.00000000  0.92776900  0.46008500  1
  O  O53  1  0.92776900  0.00000000  0.53991500  1
  O  O54  1  0.92776900  0.00000000  0.46008500  1
  O  O55  1  0.00000000  0.07223100  0.53991500  1
  O  O56  1  0.00000000  0.07223100  0.46008500  1
  O  O57  1  0.07223100  0.00000000  0.53991500  1
  O  O58  1  0.07223100  0.00000000  0.46008500  1
  O  O59  1  0.03991500  0.50000000  0.57223100  1
  O  O60  1  0.06983300  0.54602100  0.32509100  1
