# generated using pymatgen
data_CuH4C14BrClO7
_symmetry_space_group_name_H-M   'P 1'
_cell_length_a   22.35360000
_cell_length_b   22.35360000
_cell_length_c   22.35360000
_cell_angle_alpha   90.00000000
_cell_angle_beta   90.00000000
_cell_angle_gamma   90.00000000
_symmetry_Int_Tables_number   1
_chemical_formula_structural   CuH4C14BrClO7
_chemical_formula_sum   'Cu12 H48 C168 Br12 Cl12 O84'
_cell_volume   11169.72358701
_cell_formula_units_Z   12
loop_
 _symmetry_equiv_pos_site_id
 _symmetry_equiv_pos_as_xyz
  1  'x, y, z'
loop_
 _atom_site_type_symbol
 _atom_site_label
 _atom_site_symmetry_multiplicity
 _atom_site_fract_x
 _atom_site_fract_y
 _atom_site_fract_z
 _atom_site_occupancy
  Cu  Cu1  1  0.94060700  0.50000000  0.50000000  1
  Cu  Cu2  1  0.05939300  0.50000000  0.50000000  1
  Cu  Cu3  1  0.50000000  0.94060700  0.50000000  1
  Cu  Cu4  1  0.50000000  0.05939300  0.50000000  1
  Cu  Cu5  1  0.50000000  0.50000000  0.94060700  1
  Cu  Cu6  1  0.50000000  0.50000000  0.05939300  1
  Cu  Cu7  1  0.44060700  0.00000000  0.00000000  1
  Cu  Cu8  1  0.55939300  0.00000000  0.00000000  1
  Cu  Cu9  1  0.00000000  0.44060700  0.00000000  1
  Cu  Cu10  1  0.00000000  0.55939300  0.00000000  1
  Cu  Cu11  1  0.00000000  0.00000000  0.44060700  1
  Cu  Cu12  1  0.00000000  0.00000000  0.55939300  1
  H  H1  1  0.11841200  0.36177700  0.74745300  1
  H  H2  1  0.18340500  0.29003400  0.74131000  1
  H  H3  1  0.23093600  0.33219500  0.60128100  1
  H  H4  1  0.12042400  0.49120400  0.60063300  1
  H  H5  1  0.25254700  0.88158800  0.36177700  1
  H  H6  1  0.25869000  0.81659500  0.29003400  1
  H  H7  1  0.39871900  0.76906400  0.33219500  1
  H  H8  1  0.39936700  0.87957600  0.49120400  1
  H  H9  1  0.74745300  0.11841200  0.36177700  1
  H  H10  1  0.74131000  0.18340500  0.29003400  1
  H  H11  1  0.60128100  0.23093600  0.33219500  1
  H  H12  1  0.60063300  0.12042400  0.49120400  1
  H  H13  1  0.36177700  0.25254700  0.88158800  1
  H  H14  1  0.29003400  0.25869000  0.81659500  1
  H  H15  1  0.33219500  0.39871900  0.76906400  1
  H  H16  1  0.49120400  0.39936700  0.87957600  1
  H  H17  1  0.36177700  0.74745300  0.11841200  1
  H  H18  1  0.29003400  0.74131000  0.18340500  1
  H  H19  1  0.33219500  0.60128100  0.23093600  1
  H  H20  1  0.49120400  0.60063300  0.12042400  1
  H  H21  1  0.36177700  0.88158800  0.74745300  1
  H  H22  1  0.29003400  0.81659500  0.74131000  1
  H  H23  1  0.33219500  0.76906400  0.60128100  1
  H  H24  1  0.49120400  0.87957600  0.60063300  1
  H  H25  1  0.36177700  0.11841200  0.25254700  1
  H  H26  1  0.29003400  0.18340500  0.25869000  1
  H  H27  1  0.33219500  0.23093600  0.39871900  1
  H  H28  1  0.49120400  0.12042400  0.39936700  1
  H  H29  1  0.88158800  0.25254700  0.63822300  1
  H  H30  1  0.81659500  0.25869000  0.70996600  1
  H  H31  1  0.76906400  0.39871900  0.66780500  1
  H  H32  1  0.87957600  0.39936700  0.50879600  1
  H  H33  1  0.11841200  0.74745300  0.63822300  1
  H  H34  1  0.18340500  0.74131000  0.70996600  1
  H  H35  1  0.23093600  0.60128100  0.66780500  1
  H  H36  1  0.12042400  0.60063300  0.50879600  1
  H  H37  1  0.25254700  0.36177700  0.11841200  1
  H  H38  1  0.25869000  0.29003400  0.18340500  1
  H  H39  1  0.39871900  0.33219500  0.23093600  1
  H  H40  1  0.39936700  0.49120400  0.12042400  1
  H  H41  1  0.74745300  0.36177700  0.88158800  1
  H  H42  1  0.74131000  0.29003400  0.81659500  1
  H  H43  1  0.60128100  0.33219500  0.76906400  1
  H  H44  1  0.60063300  0.49120400  0.87957600  1
  H  H45  1  0.88158800  0.36177700  0.25254700  1
  H  H46  1  0.81659500  0.29003400  0.25869000  1
  H  H47  1  0.76906400  0.33219500  0.39871900  1
  H  H48  1  0.87957600  0.49120400  0.39936700  1
  C  C1  1  0.03597700  0.54020700  0.21192300  1
  C  C2  1  0.99937600  0.50325700  0.18118900  1
  C  C3  1  0.95320600  0.46655900  0.22193000  1
  C  C4  1  0.10515800  0.42850200  0.67573400  1
  C  C5  1  0.13236700  0.37852300  0.70566400  1
  C  C6  1  0.17621300  0.34554100  0.67698100  1
  C  C7  1  0.19792000  0.36255000  0.62192900  1
  C  C8  1  0.00000000  0.61282100  0.50000000  1
  C  C9  1  0.17957200  0.41550700  0.59283100  1
  C  C10  1  0.13147700  0.44538400  0.62233000  1
  C  C11  1  0.04945700  0.46438600  0.70840600  1
  C  C12  1  0.01141800  0.49789100  0.68014300  1
  C  C13  1  0.96760000  0.53953000  0.72021500  1
  C  C14  1  0.96402300  0.54020700  0.78807700  1
  C  C15  1  0.00062400  0.50325700  0.81881100  1
  C  C16  1  0.04679400  0.46655900  0.77807000  1
  C  C17  1  0.32426600  0.89484200  0.42850200  1
  C  C18  1  0.29433600  0.86763300  0.37852300  1
  C  C19  1  0.32301900  0.82378700  0.34554100  1
  C  C20  1  0.37807100  0.80208000  0.36255000  1
  C  C21  1  0.40716900  0.82042800  0.41550700  1
  C  C22  1  0.37767000  0.86852300  0.44538400  1
  C  C23  1  0.29159400  0.95054300  0.46438600  1
  C  C24  1  0.31985700  0.98858200  0.49789100  1
  C  C25  1  0.27978500  0.03240000  0.53953000  1
  C  C26  1  0.21192300  0.03597700  0.54020700  1
  C  C27  1  0.18118900  0.99937600  0.50325700  1
  C  C28  1  0.22193000  0.95320600  0.46655900  1
  C  C29  1  0.67573400  0.10515800  0.42850200  1
  C  C30  1  0.70566400  0.13236700  0.37852300  1
  C  C31  1  0.67698100  0.17621300  0.34554100  1
  C  C32  1  0.62192900  0.19792000  0.36255000  1
  C  C33  1  0.59283100  0.17957200  0.41550700  1
  C  C34  1  0.62233000  0.13147700  0.44538400  1
  C  C35  1  0.70840600  0.04945700  0.46438600  1
  C  C36  1  0.38717900  0.00000000  0.50000000  1
  C  C37  1  0.68014300  0.01141800  0.49789100  1
  C  C38  1  0.72021500  0.96760000  0.53953000  1
  C  C39  1  0.78807700  0.96402300  0.54020700  1
  C  C40  1  0.81881100  0.00062400  0.50325700  1
  C  C41  1  0.77807000  0.04679400  0.46655900  1
  C  C42  1  0.42850200  0.32426600  0.89484200  1
  C  C43  1  0.37852300  0.29433600  0.86763300  1
  C  C44  1  0.34554100  0.32301900  0.82378700  1
  C  C45  1  0.36255000  0.37807100  0.80208000  1
  C  C46  1  0.41550700  0.40716900  0.82042800  1
  C  C47  1  0.44538400  0.37767000  0.86852300  1
  C  C48  1  0.46438600  0.29159400  0.95054300  1
  C  C49  1  0.49789100  0.31985700  0.98858200  1
  C  C50  1  0.53953000  0.27978500  0.03240000  1
  C  C51  1  0.54020700  0.21192300  0.03597700  1
  C  C52  1  0.50325700  0.18118900  0.99937600  1
  C  C53  1  0.46655900  0.22193000  0.95320600  1
  C  C54  1  0.42850200  0.67573400  0.10515800  1
  C  C55  1  0.50000000  0.00000000  0.38717900  1
  C  C56  1  0.37852300  0.70566400  0.13236700  1
  C  C57  1  0.34554100  0.67698100  0.17621300  1
  C  C58  1  0.36255000  0.62192900  0.19792000  1
  C  C59  1  0.41550700  0.59283100  0.17957200  1
  C  C60  1  0.44538400  0.62233000  0.13147700  1
  C  C61  1  0.00000000  0.50000000  0.38717900  1
  C  C62  1  0.46438600  0.70840600  0.04945700  1
  C  C63  1  0.49789100  0.68014300  0.01141800  1
  C  C64  1  0.53953000  0.72021500  0.96760000  1
  C  C65  1  0.54020700  0.78807700  0.96402300  1
  C  C66  1  0.50325700  0.81881100  0.00062400  1
  C  C67  1  0.46655900  0.77807000  0.04679400  1
  C  C68  1  0.42850200  0.89484200  0.67573400  1
  C  C69  1  0.37852300  0.86763300  0.70566400  1
  C  C70  1  0.34554100  0.82378700  0.67698100  1
  C  C71  1  0.36255000  0.80208000  0.62192900  1
  C  C72  1  0.41550700  0.82042800  0.59283100  1
  C  C73  1  0.44538400  0.86852300  0.62233000  1
  C  C74  1  0.61282100  0.00000000  0.50000000  1
  C  C75  1  0.46438600  0.95054300  0.70840600  1
  C  C76  1  0.49789100  0.98858200  0.68014300  1
  C  C77  1  0.53953000  0.03240000  0.72021500  1
  C  C78  1  0.54020700  0.03597700  0.78807700  1
  C  C79  1  0.50325700  0.99937600  0.81881100  1
  C  C80  1  0.46655900  0.95320600  0.77807000  1
  C  C81  1  0.42850200  0.10515800  0.32426600  1
  C  C82  1  0.37852300  0.13236700  0.29433600  1
  C  C83  1  0.34554100  0.17621300  0.32301900  1
  C  C84  1  0.36255000  0.19792000  0.37807100  1
  C  C85  1  0.41550700  0.17957200  0.40716900  1
  C  C86  1  0.44538400  0.13147700  0.37767000  1
  C  C87  1  0.46438600  0.04945700  0.29159400  1
  C  C88  1  0.49789100  0.01141800  0.31985700  1
  C  C89  1  0.53953000  0.96760000  0.27978500  1
  C  C90  1  0.54020700  0.96402300  0.21192300  1
  C  C91  1  0.50325700  0.00062400  0.18118900  1
  C  C92  1  0.46655900  0.04679400  0.22193000  1
  C  C93  1  0.50000000  0.00000000  0.61282100  1
  C  C94  1  0.89484200  0.32426600  0.57149800  1
  C  C95  1  0.86763300  0.29433600  0.62147700  1
  C  C96  1  0.82378700  0.32301900  0.65445900  1
  C  C97  1  0.80208000  0.37807100  0.63745000  1
  C  C98  1  0.82042800  0.40716900  0.58449300  1
  C  C99  1  0.86852300  0.37767000  0.55461600  1
  C  C100  1  0.95054300  0.29159400  0.53561400  1
  C  C101  1  0.98858200  0.31985700  0.50210900  1
  C  C102  1  0.03240000  0.27978500  0.46047000  1
  C  C103  1  0.03597700  0.21192300  0.45979300  1
  C  C104  1  0.99937600  0.18118900  0.49674300  1
  C  C105  1  0.95320600  0.22193000  0.53344100  1
  C  C106  1  0.10515800  0.67573400  0.57149800  1
  C  C107  1  0.13236700  0.70566400  0.62147700  1
  C  C108  1  0.17621300  0.67698100  0.65445900  1
  C  C109  1  0.19792000  0.62192900  0.63745000  1
  C  C110  1  0.17957200  0.59283100  0.58449300  1
  C  C111  1  0.13147700  0.62233000  0.55461600  1
  C  C112  1  0.04945700  0.70840600  0.53561400  1
  C  C113  1  0.01141800  0.68014300  0.50210900  1
  C  C114  1  0.96760000  0.72021500  0.46047000  1
  C  C115  1  0.96402300  0.78807700  0.45979300  1
  C  C116  1  0.00062400  0.81881100  0.49674300  1
  C  C117  1  0.04679400  0.77807000  0.53344100  1
  C  C118  1  0.32426600  0.42850200  0.10515800  1
  C  C119  1  0.29433600  0.37852300  0.13236700  1
  C  C120  1  0.32301900  0.34554100  0.17621300  1
  C  C121  1  0.37807100  0.36255000  0.19792000  1
  C  C122  1  0.40716900  0.41550700  0.17957200  1
  C  C123  1  0.50000000  0.38717900  0.00000000  1
  C  C124  1  0.37767000  0.44538400  0.13147700  1
  C  C125  1  0.29159400  0.46438600  0.04945700  1
  C  C126  1  0.31985700  0.49789100  0.01141800  1
  C  C127  1  0.27978500  0.53953000  0.96760000  1
  C  C128  1  0.21192300  0.54020700  0.96402300  1
  C  C129  1  0.18118900  0.50325700  0.00062400  1
  C  C130  1  0.22193000  0.46655900  0.04679400  1
  C  C131  1  0.67573400  0.42850200  0.89484200  1
  C  C132  1  0.70566400  0.37852300  0.86763300  1
  C  C133  1  0.67698100  0.34554100  0.82378700  1
  C  C134  1  0.62192900  0.36255000  0.80208000  1
  C  C135  1  0.59283100  0.41550700  0.82042800  1
  C  C136  1  0.62233000  0.44538400  0.86852300  1
  C  C137  1  0.70840600  0.46438600  0.95054300  1
  C  C138  1  0.68014300  0.49789100  0.98858200  1
  C  C139  1  0.72021500  0.53953000  0.03240000  1
  C  C140  1  0.38717900  0.50000000  0.00000000  1
  C  C141  1  0.78807700  0.54020700  0.03597700  1
  C  C142  1  0.81881100  0.50325700  0.99937600  1
  C  C143  1  0.77807000  0.46655900  0.95320600  1
  C  C144  1  0.50000000  0.61282100  0.00000000  1
  C  C145  1  0.61282100  0.50000000  0.00000000  1
  C  C146  1  0.50000000  0.00000000  0.88717900  1
  C  C147  1  0.50000000  0.88717900  0.00000000  1
  C  C148  1  0.00000000  0.38717900  0.50000000  1
  C  C149  1  0.50000000  0.00000000  0.11282100  1
  C  C150  1  0.50000000  0.11282100  0.00000000  1
  C  C151  1  0.88717900  0.50000000  0.00000000  1
  C  C152  1  0.00000000  0.50000000  0.88717900  1
  C  C153  1  0.11282100  0.50000000  0.00000000  1
  C  C154  1  0.00000000  0.50000000  0.11282100  1
  C  C155  1  0.00000000  0.88717900  0.50000000  1
  C  C156  1  0.88717900  0.00000000  0.50000000  1
  C  C157  1  0.00000000  0.11282100  0.50000000  1
  C  C158  1  0.00000000  0.50000000  0.61282100  1
  C  C159  1  0.11282100  0.00000000  0.50000000  1
  C  C160  1  0.89484200  0.42850200  0.32426600  1
  C  C161  1  0.86763300  0.37852300  0.29433600  1
  C  C162  1  0.82378700  0.34554100  0.32301900  1
  C  C163  1  0.80208000  0.36255000  0.37807100  1
  C  C164  1  0.82042800  0.41550700  0.40716900  1
  C  C165  1  0.86852300  0.44538400  0.37767000  1
  C  C166  1  0.95054300  0.46438600  0.29159400  1
  C  C167  1  0.98858200  0.49789100  0.31985700  1
  C  C168  1  0.03240000  0.53953000  0.27978500  1
  Br  Br1  1  0.08916100  0.59711900  0.17757300  1
  Br  Br2  1  0.91083900  0.59711900  0.82242700  1
  Br  Br3  1  0.17757300  0.08916100  0.59711900  1
  Br  Br4  1  0.82242700  0.91083900  0.59711900  1
  Br  Br5  1  0.59711900  0.17757300  0.08916100  1
  Br  Br6  1  0.59711900  0.82242700  0.91083900  1
  Br  Br7  1  0.59711900  0.08916100  0.82242700  1
  Br  Br8  1  0.59711900  0.91083900  0.17757300  1
  Br  Br9  1  0.08916100  0.17757300  0.40288100  1
  Br  Br10  1  0.91083900  0.82242700  0.40288100  1
  Br  Br11  1  0.17757300  0.59711900  0.91083900  1
  Br  Br12  1  0.82242700  0.59711900  0.08916100  1
  Cl  Cl1  1  0.21327000  0.43269400  0.52815700  1
  Cl  Cl2  1  0.47184300  0.78673000  0.43269400  1
  Cl  Cl3  1  0.52815700  0.21327000  0.43269400  1
  Cl  Cl4  1  0.43269400  0.47184300  0.78673000  1
  Cl  Cl5  1  0.43269400  0.52815700  0.21327000  1
  Cl  Cl6  1  0.43269400  0.78673000  0.52815700  1
  Cl  Cl7  1  0.43269400  0.21327000  0.47184300  1
  Cl  Cl8  1  0.78673000  0.47184300  0.56730600  1
  Cl  Cl9  1  0.21327000  0.52815700  0.56730600  1
  Cl  Cl10  1  0.47184300  0.43269400  0.21327000  1
  Cl  Cl11  1  0.52815700  0.43269400  0.78673000  1
  Cl  Cl12  1  0.78673000  0.43269400  0.47184300  1
  O  O1  1  0.95273500  0.50000000  0.58553200  1
  O  O2  1  0.91808100  0.43769700  0.19529400  1
  O  O3  1  0.20313100  0.29686900  0.70231100  1
  O  O4  1  0.04726500  0.58553200  0.50000000  1
  O  O5  1  0.93333800  0.57114400  0.69352100  1
  O  O6  1  0.08191900  0.43769700  0.80470600  1
  O  O7  1  0.29768900  0.79686900  0.29686900  1
  O  O8  1  0.95273500  0.58553200  0.50000000  1
  O  O9  1  0.30647900  0.06666200  0.57114400  1
  O  O10  1  0.19529400  0.91808100  0.43769700  1
  O  O11  1  0.70231100  0.20313100  0.29686900  1
  O  O12  1  0.69352100  0.93333800  0.57114400  1
  O  O13  1  0.80470600  0.08191900  0.43769700  1
  O  O14  1  0.41446800  0.04726500  0.50000000  1
  O  O15  1  0.29686900  0.29768900  0.79686900  1
  O  O16  1  0.41446800  0.95273500  0.50000000  1
  O  O17  1  0.57114400  0.30647900  0.06666200  1
  O  O18  1  0.43769700  0.19529400  0.91808100  1
  O  O19  1  0.29686900  0.70231100  0.20313100  1
  O  O20  1  0.50000000  0.04726500  0.41446800  1
  O  O21  1  0.57114400  0.69352100  0.93333800  1
  O  O22  1  0.43769700  0.80470600  0.08191900  1
  O  O23  1  0.50000000  0.95273500  0.41446800  1
  O  O24  1  0.29686900  0.79686900  0.70231100  1
  O  O25  1  0.57114400  0.06666200  0.69352100  1
  O  O26  1  0.43769700  0.91808100  0.80470600  1
  O  O27  1  0.58553200  0.04726500  0.50000000  1
  O  O28  1  0.29686900  0.20313100  0.29768900  1
  O  O29  1  0.58553200  0.95273500  0.50000000  1
  O  O30  1  0.57114400  0.93333800  0.30647900  1
  O  O31  1  0.43769700  0.08191900  0.19529400  1
  O  O32  1  0.79686900  0.29768900  0.70313100  1
  O  O33  1  0.50000000  0.04726500  0.58553200  1
  O  O34  1  0.06666200  0.30647900  0.42885600  1
  O  O35  1  0.50000000  0.95273500  0.58553200  1
  O  O36  1  0.91808100  0.19529400  0.56230300  1
  O  O37  1  0.20313100  0.70231100  0.70313100  1
  O  O38  1  0.93333800  0.69352100  0.42885600  1
  O  O39  1  0.08191900  0.80470600  0.56230300  1
  O  O40  1  0.29768900  0.29686900  0.20313100  1
  O  O41  1  0.04726500  0.50000000  0.41446800  1
  O  O42  1  0.30647900  0.57114400  0.93333800  1
  O  O43  1  0.50000000  0.41446800  0.04726500  1
  O  O44  1  0.19529400  0.43769700  0.08191900  1
  O  O45  1  0.70231100  0.29686900  0.79686900  1
  O  O46  1  0.50000000  0.41446800  0.95273500  1
  O  O47  1  0.69352100  0.57114400  0.06666200  1
  O  O48  1  0.80470600  0.43769700  0.91808100  1
  O  O49  1  0.41446800  0.50000000  0.04726500  1
  O  O50  1  0.41446800  0.50000000  0.95273500  1
  O  O51  1  0.50000000  0.58553200  0.04726500  1
  O  O52  1  0.50000000  0.58553200  0.95273500  1
  O  O53  1  0.95273500  0.50000000  0.41446800  1
  O  O54  1  0.58553200  0.50000000  0.04726500  1
  O  O55  1  0.58553200  0.50000000  0.95273500  1
  O  O56  1  0.54726500  0.00000000  0.91446800  1
  O  O57  1  0.45273500  0.00000000  0.91446800  1
  O  O58  1  0.54726500  0.91446800  0.00000000  1
  O  O59  1  0.45273500  0.91446800  0.00000000  1
  O  O60  1  0.54726500  0.00000000  0.08553200  1
  O  O61  1  0.45273500  0.00000000  0.08553200  1
  O  O62  1  0.54726500  0.08553200  0.00000000  1
  O  O63  1  0.45273500  0.08553200  0.00000000  1
  O  O64  1  0.91446800  0.54726500  0.00000000  1
  O  O65  1  0.04726500  0.41446800  0.50000000  1
  O  O66  1  0.91446800  0.45273500  0.00000000  1
  O  O67  1  0.00000000  0.54726500  0.91446800  1
  O  O68  1  0.00000000  0.45273500  0.91446800  1
  O  O69  1  0.08553200  0.54726500  0.00000000  1
  O  O70  1  0.08553200  0.45273500  0.00000000  1
  O  O71  1  0.00000000  0.54726500  0.08553200  1
  O  O72  1  0.00000000  0.45273500  0.08553200  1
  O  O73  1  0.95273500  0.41446800  0.50000000  1
  O  O74  1  0.00000000  0.91446800  0.54726500  1
  O  O75  1  0.00000000  0.91446800  0.45273500  1
  O  O76  1  0.91446800  0.00000000  0.54726500  1
  O  O77  1  0.91446800  0.00000000  0.45273500  1
  O  O78  1  0.00000000  0.08553200  0.54726500  1
  O  O79  1  0.00000000  0.08553200  0.45273500  1
  O  O80  1  0.08553200  0.00000000  0.54726500  1
  O  O81  1  0.08553200  0.00000000  0.45273500  1
  O  O82  1  0.79686900  0.29686900  0.29768900  1
  O  O83  1  0.04726500  0.50000000  0.58553200  1
  O  O84  1  0.06666200  0.57114400  0.30647900  1
