# generated using pymatgen
data_CuH7C11IO5
_symmetry_space_group_name_H-M   'P 1'
_cell_length_a   25.79020000
_cell_length_b   25.79020000
_cell_length_c   23.70100000
_cell_angle_alpha   90.00000000
_cell_angle_beta   90.00000000
_cell_angle_gamma   90.00000000
_symmetry_Int_Tables_number   1
_chemical_formula_structural   CuH7C11IO5
_chemical_formula_sum   'Cu16 H112 C176 I16 O80'
_cell_volume   15764.35079456
_cell_formula_units_Z   16
loop_
 _symmetry_equiv_pos_site_id
 _symmetry_equiv_pos_as_xyz
  1  'x, y, z'
loop_
 _atom_site_type_symbol
 _atom_site_label
 _atom_site_symmetry_multiplicity
 _atom_site_fract_x
 _atom_site_fract_y
 _atom_site_fract_z
 _atom_site_occupancy
  Cu  Cu1  1  0.01012600  0.95347300  0.96039100  1
  Cu  Cu2  1  0.01012600  0.02627400  0.03960900  1
  Cu  Cu3  1  0.51012600  0.02627400  0.46039100  1
  Cu  Cu4  1  0.51012600  0.95347300  0.53960900  1
  Cu  Cu5  1  0.29652700  0.73987400  0.21039100  1
  Cu  Cu6  1  0.22372600  0.73987400  0.28960900  1
  Cu  Cu7  1  0.22372600  0.23987400  0.71039100  1
  Cu  Cu8  1  0.29652700  0.23987400  0.78960900  1
  Cu  Cu9  1  0.72372600  0.23987400  0.78960900  1
  Cu  Cu10  1  0.79652700  0.23987400  0.71039100  1
  Cu  Cu11  1  0.79652700  0.73987400  0.28960900  1
  Cu  Cu12  1  0.72372600  0.73987400  0.21039100  1
  Cu  Cu13  1  0.51012600  0.45347300  0.46039100  1
  Cu  Cu14  1  0.51012600  0.52627400  0.53960900  1
  Cu  Cu15  1  0.01012600  0.52627400  0.96039100  1
  Cu  Cu16  1  0.01012600  0.45347300  0.03960900  1
  H  H1  1  0.80984600  0.81208200  0.08520200  1
  H  H2  1  0.92638800  0.94406600  0.16887700  1
  H  H3  1  0.78326500  0.82894400  0.99788400  1
  H  H4  1  0.83582100  0.78765000  0.98575900  1
  H  H5  1  0.79475800  0.79475800  0.89924000  1
  H  H6  1  0.78642700  0.86770400  0.90561500  1
  H  H7  1  0.84893700  0.83054800  0.89017800  1
  H  H8  1  0.71040600  0.16766600  0.58520200  1
  H  H9  1  0.59386400  0.03568200  0.66887700  1
  H  H10  1  0.73698800  0.15080300  0.49788400  1
  H  H11  1  0.68443100  0.19209700  0.48575900  1
  H  H12  1  0.72549400  0.18498900  0.39924000  1
  H  H13  1  0.73382500  0.11204300  0.40561500  1
  H  H14  1  0.67131600  0.14920000  0.39017800  1
  H  H15  1  0.43791800  0.53959400  0.33520200  1
  H  H16  1  0.30593400  0.65613600  0.41887700  1
  H  H17  1  0.42105600  0.51301200  0.24788400  1
  H  H18  1  0.46235000  0.56556900  0.23575900  1
  H  H19  1  0.45524200  0.52450600  0.14924000  1
  H  H20  1  0.38229600  0.51617500  0.15561500  1
  H  H21  1  0.41945200  0.57868400  0.14017800  1
  H  H22  1  0.08233400  0.44015400  0.83520200  1
  H  H23  1  0.21431800  0.32361200  0.91887700  1
  H  H24  1  0.09919700  0.46673500  0.74788400  1
  H  H25  1  0.05790300  0.41417900  0.73575900  1
  H  H26  1  0.06501100  0.45524200  0.64924000  1
  H  H27  1  0.13795700  0.46357300  0.65561500  1
  H  H28  1  0.10080000  0.40106300  0.64017800  1
  H  H29  1  0.71040600  0.81208200  0.41479800  1
  H  H30  1  0.59386400  0.94406600  0.33112300  1
  H  H31  1  0.73698800  0.82894400  0.50211600  1
  H  H32  1  0.68443100  0.78765000  0.51424100  1
  H  H33  1  0.72549400  0.79475800  0.60076000  1
  H  H34  1  0.73382500  0.86770400  0.59438500  1
  H  H35  1  0.67131600  0.83054800  0.60982200  1
  H  H36  1  0.80984600  0.16766600  0.91479800  1
  H  H37  1  0.92638800  0.03568200  0.83112300  1
  H  H38  1  0.78326500  0.15080300  0.00211600  1
  H  H39  1  0.83582100  0.19209700  0.01424100  1
  H  H40  1  0.79475800  0.18498900  0.10076000  1
  H  H41  1  0.78642700  0.11204300  0.09438500  1
  H  H42  1  0.84893700  0.14920000  0.10982200  1
  H  H43  1  0.08233400  0.53959400  0.16479800  1
  H  H44  1  0.21431800  0.65613600  0.08112300  1
  H  H45  1  0.09919700  0.51301200  0.25211600  1
  H  H46  1  0.05790300  0.56556900  0.26424100  1
  H  H47  1  0.06501100  0.52450600  0.35076000  1
  H  H48  1  0.13795700  0.51617500  0.34438500  1
  H  H49  1  0.10080000  0.57868400  0.35982200  1
  H  H50  1  0.43791800  0.44015400  0.66479800  1
  H  H51  1  0.30593400  0.32361200  0.58112300  1
  H  H52  1  0.42105600  0.46673500  0.75211600  1
  H  H53  1  0.46235000  0.41417900  0.76424100  1
  H  H54  1  0.45524200  0.45524200  0.85076000  1
  H  H55  1  0.38229600  0.46357300  0.84438500  1
  H  H56  1  0.41945200  0.40106300  0.85982200  1
  H  H57  1  0.21040600  0.16766600  0.91479800  1
  H  H58  1  0.09386400  0.03568200  0.83112300  1
  H  H59  1  0.23698800  0.15080300  0.00211600  1
  H  H60  1  0.18443100  0.19209700  0.01424100  1
  H  H61  1  0.22549400  0.18498900  0.10076000  1
  H  H62  1  0.23382500  0.11204300  0.09438500  1
  H  H63  1  0.17131600  0.14920000  0.10982200  1
  H  H64  1  0.30984600  0.81208200  0.41479800  1
  H  H65  1  0.42638800  0.94406600  0.33112300  1
  H  H66  1  0.28326500  0.82894400  0.50211600  1
  H  H67  1  0.33582100  0.78765000  0.51424100  1
  H  H68  1  0.29475800  0.79475800  0.60076000  1
  H  H69  1  0.28642700  0.86770400  0.59438500  1
  H  H70  1  0.34893700  0.83054800  0.60982200  1
  H  H71  1  0.58233400  0.44015400  0.66479800  1
  H  H72  1  0.71431800  0.32361200  0.58112300  1
  H  H73  1  0.59919700  0.46673500  0.75211600  1
  H  H74  1  0.55790300  0.41417900  0.76424100  1
  H  H75  1  0.56501100  0.45524200  0.85076000  1
  H  H76  1  0.63795700  0.46357300  0.84438500  1
  H  H77  1  0.60080000  0.40106300  0.85982200  1
  H  H78  1  0.93791800  0.53959400  0.16479800  1
  H  H79  1  0.80593400  0.65613600  0.08112300  1
  H  H80  1  0.92105600  0.51301200  0.25211600  1
  H  H81  1  0.96235000  0.56556900  0.26424100  1
  H  H82  1  0.95524200  0.52450600  0.35076000  1
  H  H83  1  0.88229600  0.51617500  0.34438500  1
  H  H84  1  0.91945200  0.57868400  0.35982200  1
  H  H85  1  0.30984600  0.16766600  0.58520200  1
  H  H86  1  0.42638800  0.03568200  0.66887700  1
  H  H87  1  0.28326500  0.15080300  0.49788400  1
  H  H88  1  0.33582100  0.19209700  0.48575900  1
  H  H89  1  0.29475800  0.18498900  0.39924000  1
  H  H90  1  0.28642700  0.11204300  0.40561500  1
  H  H91  1  0.34893700  0.14920000  0.39017800  1
  H  H92  1  0.21040600  0.81208200  0.08520200  1
  H  H93  1  0.09386400  0.94406600  0.16887700  1
  H  H94  1  0.23698800  0.82894400  0.99788400  1
  H  H95  1  0.18443100  0.78765000  0.98575900  1
  H  H96  1  0.22549400  0.79475800  0.89924000  1
  H  H97  1  0.23382500  0.86770400  0.90561500  1
  H  H98  1  0.17131600  0.83054800  0.89017800  1
  H  H99  1  0.93791800  0.44015400  0.83520200  1
  H  H100  1  0.80593400  0.32361200  0.91887700  1
  H  H101  1  0.92105600  0.46673500  0.74788400  1
  H  H102  1  0.96235000  0.41417900  0.73575900  1
  H  H103  1  0.95524200  0.45524200  0.64924000  1
  H  H104  1  0.88229600  0.46357300  0.65561500  1
  H  H105  1  0.91945200  0.40106300  0.64017800  1
  H  H106  1  0.58233400  0.53959400  0.33520200  1
  H  H107  1  0.71431800  0.65613600  0.41887700  1
  H  H108  1  0.59919700  0.51301200  0.24788400  1
  H  H109  1  0.55790300  0.56556900  0.23575900  1
  H  H110  1  0.56501100  0.52450600  0.14924000  1
  H  H111  1  0.63795700  0.51617500  0.15561500  1
  H  H112  1  0.60080000  0.57868400  0.14017800  1
  C  C1  1  0.07927200  0.53876700  0.05320400  1
  C  C2  1  0.07927200  0.44098000  0.94679600  1
  C  C3  1  0.94098000  0.44098000  0.94679600  1
  C  C4  1  0.94098000  0.53876700  0.05320400  1
  C  C5  1  0.07927200  0.94098000  0.05320400  1
  C  C6  1  0.87104500  0.88714100  0.18588900  1
  C  C7  1  0.84192900  0.84855500  0.15988900  1
  C  C8  1  0.83918500  0.84090600  0.10154200  1
  C  C9  1  0.86715500  0.87035100  0.06575500  1
  C  C10  1  0.89962700  0.90700100  0.08959100  1
  C  C11  1  0.89829300  0.91753500  0.15048200  1
  C  C12  1  0.85391700  0.86949100  0.99961700  1
  C  C13  1  0.82000400  0.82681300  0.97643500  1
  C  C14  1  0.81164300  0.83175100  0.91179400  1
  C  C15  1  0.64920700  0.09260700  0.68588900  1
  C  C16  1  0.67832300  0.13119300  0.65988900  1
  C  C17  1  0.68106700  0.13884200  0.60154200  1
  C  C18  1  0.65309700  0.10939700  0.56575500  1
  C  C19  1  0.62062600  0.07274600  0.58959100  1
  C  C20  1  0.62196000  0.06221300  0.65048200  1
  C  C21  1  0.66633500  0.11025600  0.49961700  1
  C  C22  1  0.70024800  0.15293400  0.47643500  1
  C  C23  1  0.70860900  0.14799600  0.41179400  1
  C  C24  1  0.36285900  0.60079300  0.43588900  1
  C  C25  1  0.40144500  0.57167700  0.40988900  1
  C  C26  1  0.40909400  0.56893300  0.35154200  1
  C  C27  1  0.37964900  0.59690300  0.31575500  1
  C  C28  1  0.34299900  0.62937400  0.33959100  1
  C  C29  1  0.33246500  0.62804000  0.40048200  1
  C  C30  1  0.38050900  0.58366500  0.24961700  1
  C  C31  1  0.42318700  0.54975200  0.22643500  1
  C  C32  1  0.57927200  0.03876700  0.55320400  1
  C  C33  1  0.41824900  0.54139100  0.16179400  1
  C  C34  1  0.15739300  0.37895500  0.93588900  1
  C  C35  1  0.11880700  0.40807100  0.90988900  1
  C  C36  1  0.11115800  0.41081500  0.85154200  1
  C  C37  1  0.14060300  0.38284500  0.81575500  1
  C  C38  1  0.17725400  0.35037300  0.83959100  1
  C  C39  1  0.18778700  0.35170700  0.90048200  1
  C  C40  1  0.13974400  0.39608300  0.74961700  1
  C  C41  1  0.09706600  0.42999600  0.72643500  1
  C  C42  1  0.10200400  0.43835700  0.66179400  1
  C  C43  1  0.64920700  0.88714100  0.31411100  1
  C  C44  1  0.67832300  0.84855500  0.34011100  1
  C  C45  1  0.68106700  0.84090600  0.39845800  1
  C  C46  1  0.65309700  0.87035100  0.43424500  1
  C  C47  1  0.62062600  0.90700100  0.41040900  1
  C  C48  1  0.57927200  0.94098000  0.44679600  1
  C  C49  1  0.62196000  0.91753500  0.34951800  1
  C  C50  1  0.66633500  0.86949100  0.50038300  1
  C  C51  1  0.70024800  0.82681300  0.52356500  1
  C  C52  1  0.70860900  0.83175100  0.58820600  1
  C  C53  1  0.94098000  0.94098000  0.05320400  1
  C  C54  1  0.87104500  0.09260700  0.81411100  1
  C  C55  1  0.84192900  0.13119300  0.84011100  1
  C  C56  1  0.83918500  0.13884200  0.89845800  1
  C  C57  1  0.86715500  0.10939700  0.93424500  1
  C  C58  1  0.89962700  0.07274600  0.91040900  1
  C  C59  1  0.89829300  0.06221300  0.84951800  1
  C  C60  1  0.85391700  0.11025600  0.00038300  1
  C  C61  1  0.82000400  0.15293400  0.02356500  1
  C  C62  1  0.81164300  0.14799600  0.08820600  1
  C  C63  1  0.44098000  0.94098000  0.44679600  1
  C  C64  1  0.15739300  0.60079300  0.06411100  1
  C  C65  1  0.11880700  0.57167700  0.09011100  1
  C  C66  1  0.11115800  0.56893300  0.14845800  1
  C  C67  1  0.14060300  0.59690300  0.18424500  1
  C  C68  1  0.17725400  0.62937400  0.16040900  1
  C  C69  1  0.18778700  0.62804000  0.09951800  1
  C  C70  1  0.13974400  0.58366500  0.25038300  1
  C  C71  1  0.09706600  0.54975200  0.27356500  1
  C  C72  1  0.10200400  0.54139100  0.33820600  1
  C  C73  1  0.36285900  0.37895500  0.56411100  1
  C  C74  1  0.40144500  0.40807100  0.59011100  1
  C  C75  1  0.40909400  0.41081500  0.64845800  1
  C  C76  1  0.37964900  0.38284500  0.68424500  1
  C  C77  1  0.34299900  0.35037300  0.66040900  1
  C  C78  1  0.33246500  0.35170700  0.59951800  1
  C  C79  1  0.38050900  0.39608300  0.75038300  1
  C  C80  1  0.42318700  0.42999600  0.77356500  1
  C  C81  1  0.44098000  0.03876700  0.55320400  1
  C  C82  1  0.41824900  0.43835700  0.83820600  1
  C  C83  1  0.14920700  0.09260700  0.81411100  1
  C  C84  1  0.17832300  0.13119300  0.84011100  1
  C  C85  1  0.18106700  0.13884200  0.89845800  1
  C  C86  1  0.15309700  0.10939700  0.93424500  1
  C  C87  1  0.12062600  0.07274600  0.91040900  1
  C  C88  1  0.12196000  0.06221300  0.84951800  1
  C  C89  1  0.16633500  0.11025600  0.00038300  1
  C  C90  1  0.20024800  0.15293400  0.02356500  1
  C  C91  1  0.20860900  0.14799600  0.08820600  1
  C  C92  1  0.37104500  0.88714100  0.31411100  1
  C  C93  1  0.34192900  0.84855500  0.34011100  1
  C  C94  1  0.33918500  0.84090600  0.39845800  1
  C  C95  1  0.36715500  0.87035100  0.43424500  1
  C  C96  1  0.39962700  0.90700100  0.41040900  1
  C  C97  1  0.39829300  0.91753500  0.34951800  1
  C  C98  1  0.35391700  0.86949100  0.50038300  1
  C  C99  1  0.32000400  0.82681300  0.52356500  1
  C  C100  1  0.31164300  0.83175100  0.58820600  1
  C  C101  1  0.65739300  0.37895500  0.56411100  1
  C  C102  1  0.61880700  0.40807100  0.59011100  1
  C  C103  1  0.61115800  0.41081500  0.64845800  1
  C  C104  1  0.64060300  0.38284500  0.68424500  1
  C  C105  1  0.67725400  0.35037300  0.66040900  1
  C  C106  1  0.68778700  0.35170700  0.59951800  1
  C  C107  1  0.30902000  0.67072800  0.30320400  1
  C  C108  1  0.63974400  0.39608300  0.75038300  1
  C  C109  1  0.59706600  0.42999600  0.77356500  1
  C  C110  1  0.60200400  0.43835700  0.83820600  1
  C  C111  1  0.86285900  0.60079300  0.06411100  1
  C  C112  1  0.90144500  0.57167700  0.09011100  1
  C  C113  1  0.90909400  0.56893300  0.14845800  1
  C  C114  1  0.87964900  0.59690300  0.18424500  1
  C  C115  1  0.84299900  0.62937400  0.16040900  1
  C  C116  1  0.83246500  0.62804000  0.09951800  1
  C  C117  1  0.88050900  0.58366500  0.25038300  1
  C  C118  1  0.92318700  0.54975200  0.27356500  1
  C  C119  1  0.91824900  0.54139100  0.33820600  1
  C  C120  1  0.37104500  0.09260700  0.68588900  1
  C  C121  1  0.21123300  0.67072800  0.19679600  1
  C  C122  1  0.34192900  0.13119300  0.65988900  1
  C  C123  1  0.33918500  0.13884200  0.60154200  1
  C  C124  1  0.36715500  0.10939700  0.56575500  1
  C  C125  1  0.39962700  0.07274600  0.58959100  1
  C  C126  1  0.39829300  0.06221300  0.65048200  1
  C  C127  1  0.35391700  0.11025600  0.49961700  1
  C  C128  1  0.32000400  0.15293400  0.47643500  1
  C  C129  1  0.31164300  0.14799600  0.41179400  1
  C  C130  1  0.14920700  0.88714100  0.18588900  1
  C  C131  1  0.17832300  0.84855500  0.15988900  1
  C  C132  1  0.18106700  0.84090600  0.10154200  1
  C  C133  1  0.15309700  0.87035100  0.06575500  1
  C  C134  1  0.12062600  0.90700100  0.08959100  1
  C  C135  1  0.12196000  0.91753500  0.15048200  1
  C  C136  1  0.16633500  0.86949100  0.99961700  1
  C  C137  1  0.20024800  0.82681300  0.97643500  1
  C  C138  1  0.20860900  0.83175100  0.91179400  1
  C  C139  1  0.21123300  0.80902000  0.19679600  1
  C  C140  1  0.86285900  0.37895500  0.93588900  1
  C  C141  1  0.90144500  0.40807100  0.90988900  1
  C  C142  1  0.90909400  0.41081500  0.85154200  1
  C  C143  1  0.87964900  0.38284500  0.81575500  1
  C  C144  1  0.84299900  0.35037300  0.83959100  1
  C  C145  1  0.83246500  0.35170700  0.90048200  1
  C  C146  1  0.88050900  0.39608300  0.74961700  1
  C  C147  1  0.92318700  0.42999600  0.72643500  1
  C  C148  1  0.91824900  0.43835700  0.66179400  1
  C  C149  1  0.65739300  0.60079300  0.43588900  1
  C  C150  1  0.61880700  0.57167700  0.40988900  1
  C  C151  1  0.61115800  0.56893300  0.35154200  1
  C  C152  1  0.64060300  0.59690300  0.31575500  1
  C  C153  1  0.67725400  0.62937400  0.33959100  1
  C  C154  1  0.68778700  0.62804000  0.40048200  1
  C  C155  1  0.30902000  0.80902000  0.30320400  1
  C  C156  1  0.63974400  0.58366500  0.24961700  1
  C  C157  1  0.59706600  0.54975200  0.22643500  1
  C  C158  1  0.60200400  0.54139100  0.16179400  1
  C  C159  1  0.21123300  0.30902000  0.80320400  1
  C  C160  1  0.30902000  0.30902000  0.69679600  1
  C  C161  1  0.94098000  0.03876700  0.94679600  1
  C  C162  1  0.30902000  0.17072800  0.69679600  1
  C  C163  1  0.21123300  0.17072800  0.80320400  1
  C  C164  1  0.71123300  0.30902000  0.69679600  1
  C  C165  1  0.80902000  0.30902000  0.80320400  1
  C  C166  1  0.80902000  0.17072800  0.80320400  1
  C  C167  1  0.71123300  0.17072800  0.69679600  1
  C  C168  1  0.80902000  0.67072800  0.19679600  1
  C  C169  1  0.71123300  0.67072800  0.30320400  1
  C  C170  1  0.71123300  0.80902000  0.30320400  1
  C  C171  1  0.07927200  0.03876700  0.94679600  1
  C  C172  1  0.80902000  0.80902000  0.19679600  1
  C  C173  1  0.44098000  0.44098000  0.55320400  1
  C  C174  1  0.44098000  0.53876700  0.44679600  1
  C  C175  1  0.57927200  0.53876700  0.44679600  1
  C  C176  1  0.57927200  0.44098000  0.55320400  1
  I  I1  1  0.87536400  0.90682700  0.27162200  1
  I  I2  1  0.64488800  0.07292100  0.77162200  1
  I  I3  1  0.34317300  0.60511200  0.52162200  1
  I  I4  1  0.17707900  0.37463600  0.02162200  1
  I  I5  1  0.64488800  0.90682700  0.22837800  1
  I  I6  1  0.87536400  0.07292100  0.72837800  1
  I  I7  1  0.17707900  0.60511200  0.97837800  1
  I  I8  1  0.34317300  0.37463600  0.47837800  1
  I  I9  1  0.14488800  0.07292100  0.72837800  1
  I  I10  1  0.37536400  0.90682700  0.22837800  1
  I  I11  1  0.67707900  0.37463600  0.47837800  1
  I  I12  1  0.84317300  0.60511200  0.97837800  1
  I  I13  1  0.37536400  0.07292100  0.77162200  1
  I  I14  1  0.14488800  0.90682700  0.27162200  1
  I  I15  1  0.84317300  0.37463600  0.02162200  1
  I  I16  1  0.67707900  0.60511200  0.52162200  1
  O  O1  1  0.06254800  0.99797300  0.92814300  1
  O  O2  1  0.06254800  0.49797300  0.07185700  1
  O  O3  1  0.06254800  0.55590900  0.00881300  1
  O  O4  1  0.06254800  0.42383800  0.99118700  1
  O  O5  1  0.06254800  0.48177400  0.92814300  1
  O  O6  1  0.95770500  0.42383800  0.99118700  1
  O  O7  1  0.95770500  0.48177400  0.92814300  1
  O  O8  1  0.95770500  0.49797300  0.07185700  1
  O  O9  1  0.95770500  0.55590900  0.00881300  1
  O  O10  1  0.06254800  0.98177400  0.07185700  1
  O  O11  1  0.86796700  0.90665500  0.97275700  1
  O  O12  1  0.06254800  0.92383800  0.00881300  1
  O  O13  1  0.65228600  0.07309300  0.47275700  1
  O  O14  1  0.34334500  0.59771400  0.22275700  1
  O  O15  1  0.56254800  0.99797300  0.57185700  1
  O  O16  1  0.56254800  0.05590900  0.50881300  1
  O  O17  1  0.17690700  0.38203300  0.72275700  1
  O  O18  1  0.56254800  0.92383800  0.49118700  1
  O  O19  1  0.65228600  0.90665500  0.52724300  1
  O  O20  1  0.56254800  0.98177400  0.42814300  1
  O  O21  1  0.86796700  0.07309300  0.02724300  1
  O  O22  1  0.45770500  0.92383800  0.49118700  1
  O  O23  1  0.17690700  0.59771400  0.27724300  1
  O  O24  1  0.45770500  0.98177400  0.42814300  1
  O  O25  1  0.34334500  0.38203300  0.77724300  1
  O  O26  1  0.45770500  0.99797300  0.57185700  1
  O  O27  1  0.45770500  0.05590900  0.50881300  1
  O  O28  1  0.15228600  0.07309300  0.02724300  1
  O  O29  1  0.36796700  0.90665500  0.52724300  1
  O  O30  1  0.95770500  0.98177400  0.07185700  1
  O  O31  1  0.67690700  0.38203300  0.77724300  1
  O  O32  1  0.26822600  0.68745200  0.32185700  1
  O  O33  1  0.32616200  0.68745200  0.25881300  1
  O  O34  1  0.84334500  0.59771400  0.27724300  1
  O  O35  1  0.19409100  0.68745200  0.24118700  1
  O  O36  1  0.36796700  0.07309300  0.47275700  1
  O  O37  1  0.25202700  0.68745200  0.17814300  1
  O  O38  1  0.15228600  0.90665500  0.97275700  1
  O  O39  1  0.19409100  0.79229500  0.24118700  1
  O  O40  1  0.25202700  0.79229500  0.17814300  1
  O  O41  1  0.84334500  0.38203300  0.72275700  1
  O  O42  1  0.67690700  0.59771400  0.22275700  1
  O  O43  1  0.95770500  0.92383800  0.00881300  1
  O  O44  1  0.26822600  0.79229500  0.32185700  1
  O  O45  1  0.32616200  0.79229500  0.25881300  1
  O  O46  1  0.25202700  0.29229500  0.82185700  1
  O  O47  1  0.19409100  0.29229500  0.75881300  1
  O  O48  1  0.32616200  0.29229500  0.74118700  1
  O  O49  1  0.26822600  0.29229500  0.67814300  1
  O  O50  1  0.32616200  0.18745200  0.74118700  1
  O  O51  1  0.26822600  0.18745200  0.67814300  1
  O  O52  1  0.25202700  0.18745200  0.82185700  1
  O  O53  1  0.19409100  0.18745200  0.75881300  1
  O  O54  1  0.75202700  0.29229500  0.67814300  1
  O  O55  1  0.95770500  0.05590900  0.99118700  1
  O  O56  1  0.69409100  0.29229500  0.74118700  1
  O  O57  1  0.82616200  0.29229500  0.75881300  1
  O  O58  1  0.76822600  0.29229500  0.82185700  1
  O  O59  1  0.82616200  0.18745200  0.75881300  1
  O  O60  1  0.76822600  0.18745200  0.82185700  1
  O  O61  1  0.75202700  0.18745200  0.67814300  1
  O  O62  1  0.69409100  0.18745200  0.74118700  1
  O  O63  1  0.95770500  0.99797300  0.92814300  1
  O  O64  1  0.76822600  0.68745200  0.17814300  1
  O  O65  1  0.82616200  0.68745200  0.24118700  1
  O  O66  1  0.69409100  0.68745200  0.25881300  1
  O  O67  1  0.75202700  0.68745200  0.32185700  1
  O  O68  1  0.69409100  0.79229500  0.25881300  1
  O  O69  1  0.75202700  0.79229500  0.32185700  1
  O  O70  1  0.76822600  0.79229500  0.17814300  1
  O  O71  1  0.82616200  0.79229500  0.24118700  1
  O  O72  1  0.45770500  0.48177400  0.57185700  1
  O  O73  1  0.45770500  0.42383800  0.50881300  1
  O  O74  1  0.06254800  0.05590900  0.99118700  1
  O  O75  1  0.45770500  0.55590900  0.49118700  1
  O  O76  1  0.45770500  0.49797300  0.42814300  1
  O  O77  1  0.56254800  0.55590900  0.49118700  1
  O  O78  1  0.56254800  0.49797300  0.42814300  1
  O  O79  1  0.56254800  0.48177400  0.57185700  1
  O  O80  1  0.56254800  0.42383800  0.50881300  1
