# generated using pymatgen
data_CuH6C12N2O5F2
_symmetry_space_group_name_H-M   'P 1'
_cell_length_a   10.21490000
_cell_length_b   10.21490000
_cell_length_c   20.42970000
_cell_angle_alpha   90.00000000
_cell_angle_beta   90.00000000
_cell_angle_gamma   90.00000000
_symmetry_Int_Tables_number   1
_chemical_formula_structural   CuH6C12N2O5F2
_chemical_formula_sum   'Cu4 H24 C48 N8 O20 F8'
_cell_volume   2131.72033521
_cell_formula_units_Z   4
loop_
 _symmetry_equiv_pos_site_id
 _symmetry_equiv_pos_as_xyz
  1  'x, y, z'
loop_
 _atom_site_type_symbol
 _atom_site_label
 _atom_site_symmetry_multiplicity
 _atom_site_fract_x
 _atom_site_fract_y
 _atom_site_fract_z
 _atom_site_occupancy
  Cu  Cu1  1  0.87002900  0.00000000  0.00000000  1
  Cu  Cu2  1  0.12997100  0.00000000  0.00000000  1
  Cu  Cu3  1  0.00000000  0.87002900  0.50000000  1
  Cu  Cu4  1  0.00000000  0.12997100  0.50000000  1
  H  H1  1  0.40005000  0.59995000  0.75611900  1
  H  H2  1  0.02841800  0.73479500  0.80570200  1
  H  H3  1  0.36491600  0.10300500  0.60619500  1
  H  H4  1  0.36436700  0.92252600  0.60249700  1
  H  H5  1  0.47844500  0.00662100  0.65497000  1
  H  H6  1  0.83339300  0.16691100  0.80841900  1
  H  H7  1  0.40005000  0.40005000  0.25611900  1
  H  H8  1  0.26520500  0.02841800  0.30570200  1
  H  H9  1  0.89699500  0.36491600  0.10619500  1
  H  H10  1  0.07747400  0.36436700  0.10249700  1
  H  H11  1  0.99337900  0.47844500  0.15497000  1
  H  H12  1  0.83308900  0.83339300  0.30841900  1
  H  H13  1  0.43424400  0.48776300  0.00000000  1
  H  H14  1  0.79237700  0.38859600  0.08371700  1
  H  H15  1  0.81480100  0.78760900  0.83456500  1
  H  H16  1  0.68757100  0.79500500  0.89856800  1
  H  H17  1  0.66637000  0.69006000  0.82850300  1
  H  H18  1  0.23583300  0.38316300  0.99989300  1
  H  H19  1  0.51223700  0.43424400  0.50000000  1
  H  H20  1  0.61140400  0.79237700  0.58371700  1
  H  H21  1  0.21239100  0.81480100  0.33456500  1
  H  H22  1  0.20499500  0.68757100  0.39856800  1
  H  H23  1  0.30994000  0.66637000  0.32850300  1
  H  H24  1  0.61683700  0.23583300  0.49989300  1
  C  C1  1  0.00000000  0.00000000  0.87655400  1
  C  C2  1  0.00000000  0.75310900  0.00000000  1
  C  C3  1  0.00000000  0.00000000  0.12344600  1
  C  C4  1  0.00000000  0.24689100  0.00000000  1
  C  C5  1  0.00000000  0.00000000  0.37655400  1
  C  C6  1  0.24689100  0.00000000  0.50000000  1
  C  C7  1  0.00000000  0.00000000  0.62344600  1
  C  C8  1  0.75310900  0.00000000  0.50000000  1
  C  C9  1  0.14198200  0.88063000  0.75137400  1
  C  C10  1  0.25865000  0.89611600  0.71594700  1
  C  C11  1  0.35380000  0.80004000  0.72044500  1
  C  C12  1  0.33175800  0.68144700  0.75258600  1
  C  C13  1  0.21358200  0.66650300  0.78348600  1
  C  C14  1  0.12080100  0.75575000  0.78081500  1
  C  C15  1  0.37667100  0.01125600  0.63623900  1
  C  C16  1  0.03910300  0.97349400  0.74887000  1
  C  C17  1  0.98353000  0.02122100  0.80405700  1
  C  C18  1  0.98230800  0.03801900  0.69471500  1
  C  C19  1  0.11937000  0.14198200  0.25137400  1
  C  C20  1  0.10388400  0.25865000  0.21594700  1
  C  C21  1  0.19996000  0.35380000  0.22044500  1
  C  C22  1  0.31855300  0.33175800  0.25258600  1
  C  C23  1  0.33349700  0.21358200  0.28348600  1
  C  C24  1  0.24425000  0.12080100  0.28081500  1
  C  C25  1  0.98874400  0.37667100  0.13623900  1
  C  C26  1  0.02650600  0.03910300  0.24887000  1
  C  C27  1  0.97877900  0.98353000  0.30405700  1
  C  C28  1  0.96198100  0.98230800  0.19471500  1
  C  C29  1  0.81519600  0.49725200  0.99200500  1
  C  C30  1  0.74365000  0.56810600  0.94528200  1
  C  C31  1  0.60843200  0.55911100  0.94560900  1
  C  C32  1  0.54016000  0.49482800  0.99533100  1
  C  C33  1  0.61315700  0.43302800  0.04239600  1
  C  C34  1  0.74187000  0.43837000  0.04364600  1
  C  C35  1  0.74161200  0.72752300  0.86284700  1
  C  C36  1  0.95360800  0.50226000  0.99554600  1
  C  C37  1  0.02665200  0.39188600  0.99832000  1
  C  C38  1  0.03939400  0.61056900  0.99281300  1
  C  C39  1  0.50274800  0.81519600  0.49200500  1
  C  C40  1  0.43189400  0.74365000  0.44528200  1
  C  C41  1  0.44088900  0.60843200  0.44560900  1
  C  C42  1  0.50517200  0.54016000  0.49533100  1
  C  C43  1  0.56697200  0.61315700  0.54239600  1
  C  C44  1  0.56163000  0.74187000  0.54364600  1
  C  C45  1  0.27247700  0.74161200  0.36284700  1
  C  C46  1  0.49774000  0.95360800  0.49554600  1
  C  C47  1  0.60811400  0.02665200  0.49832000  1
  C  C48  1  0.38943100  0.03939400  0.49281300  1
  N  N1  1  0.89616900  0.11147700  0.78061100  1
  N  N2  1  0.89657800  0.13195600  0.71655400  1
  N  N3  1  0.88852300  0.89616900  0.28061100  1
  N  N4  1  0.86804400  0.89657800  0.21655400  1
  N  N5  1  0.15224500  0.43877800  0.99729700  1
  N  N6  1  0.16643700  0.56689200  0.98991200  1
  N  N7  1  0.56122200  0.15224500  0.49729700  1
  N  N8  1  0.43310800  0.16643700  0.48991200  1
  O  O1  1  0.10343300  0.00000000  0.90641300  1
  O  O2  1  0.89656700  0.00000000  0.90641300  1
  O  O3  1  0.10343300  0.81282600  0.00000000  1
  O  O4  1  0.89656700  0.81282600  0.00000000  1
  O  O5  1  0.10343300  0.00000000  0.09358700  1
  O  O6  1  0.89656700  0.00000000  0.09358700  1
  O  O7  1  0.10343300  0.18717400  0.00000000  1
  O  O8  1  0.89656700  0.18717400  0.00000000  1
  O  O9  1  0.00000000  0.10343300  0.40641300  1
  O  O10  1  0.00000000  0.89656700  0.40641300  1
  O  O11  1  0.18717400  0.10343300  0.50000000  1
  O  O12  1  0.18717400  0.89656700  0.50000000  1
  O  O13  1  0.00000000  0.10343300  0.59358700  1
  O  O14  1  0.00000000  0.89656700  0.59358700  1
  O  O15  1  0.81282600  0.10343300  0.50000000  1
  O  O16  1  0.81282600  0.89656700  0.50000000  1
  O  O17  1  0.27958200  0.01115400  0.68235100  1
  O  O18  1  0.98884600  0.27958200  0.18235100  1
  O  O19  1  0.81019300  0.63529700  0.89720900  1
  O  O20  1  0.36470300  0.81019300  0.39720900  1
  F  F1  1  0.18513400  0.54491800  0.80818700  1
  F  F2  1  0.47707300  0.80095400  0.69393400  1
  F  F3  1  0.45508200  0.18513400  0.30818700  1
  F  F4  1  0.19904600  0.47707300  0.19393400  1
  F  F5  1  0.54729900  0.38362600  0.09544100  1
  F  F6  1  0.52191200  0.61213200  0.90170300  1
  F  F7  1  0.61637400  0.54729900  0.59544100  1
  F  F8  1  0.38786800  0.52191200  0.40170300  1
