# generated using pymatgen
data_CuH5C9BrO5
_symmetry_space_group_name_H-M   'P 1'
_cell_length_a   22.09030000
_cell_length_b   22.09030000
_cell_length_c   22.09030000
_cell_angle_alpha   90.00000000
_cell_angle_beta   90.00000000
_cell_angle_gamma   90.00000000
_symmetry_Int_Tables_number   1
_chemical_formula_structural   CuH5C9BrO5
_chemical_formula_sum   'Cu12 H60 C108 Br12 O60'
_cell_volume   10779.65450625
_cell_formula_units_Z   12
loop_
 _symmetry_equiv_pos_site_id
 _symmetry_equiv_pos_as_xyz
  1  'x, y, z'
loop_
 _atom_site_type_symbol
 _atom_site_label
 _atom_site_symmetry_multiplicity
 _atom_site_fract_x
 _atom_site_fract_y
 _atom_site_fract_z
 _atom_site_occupancy
  Cu  Cu1  1  0.93990000  0.50000000  0.50000000  1
  Cu  Cu2  1  0.06010000  0.50000000  0.50000000  1
  Cu  Cu3  1  0.50000000  0.93990000  0.50000000  1
  Cu  Cu4  1  0.50000000  0.06010000  0.50000000  1
  Cu  Cu5  1  0.50000000  0.50000000  0.93990000  1
  Cu  Cu6  1  0.50000000  0.50000000  0.06010000  1
  Cu  Cu7  1  0.43990000  0.00000000  0.00000000  1
  Cu  Cu8  1  0.56010000  0.00000000  0.00000000  1
  Cu  Cu9  1  0.00000000  0.43990000  0.00000000  1
  Cu  Cu10  1  0.00000000  0.56010000  0.00000000  1
  Cu  Cu11  1  0.00000000  0.00000000  0.43990000  1
  Cu  Cu12  1  0.00000000  0.00000000  0.56010000  1
  H  H1  1  0.92797700  0.42799000  0.30064200  1
  H  H2  1  0.88671700  0.38671700  0.21594900  1
  H  H3  1  0.88405300  0.44997500  0.15793500  1
  H  H4  1  0.93523800  0.38523800  0.15378200  1
  H  H5  1  0.11542300  0.58119100  0.28695500  1
  H  H6  1  0.07202300  0.42799000  0.69935800  1
  H  H7  1  0.11328300  0.38671700  0.78405100  1
  H  H8  1  0.11594700  0.44997500  0.84206500  1
  H  H9  1  0.06476200  0.38523800  0.84621800  1
  H  H10  1  0.88457700  0.58119100  0.71304500  1
  H  H11  1  0.30064200  0.92797700  0.42799000  1
  H  H12  1  0.21594900  0.88671700  0.38671700  1
  H  H13  1  0.15793500  0.88405300  0.44997500  1
  H  H14  1  0.15378200  0.93523800  0.38523800  1
  H  H15  1  0.28695500  0.11542300  0.58119100  1
  H  H16  1  0.69935800  0.07202300  0.42799000  1
  H  H17  1  0.78405100  0.11328300  0.38671700  1
  H  H18  1  0.84206500  0.11594700  0.44997500  1
  H  H19  1  0.84621800  0.06476200  0.38523800  1
  H  H20  1  0.71304500  0.88457700  0.58119100  1
  H  H21  1  0.42799000  0.30064200  0.92797700  1
  H  H22  1  0.38671700  0.21594900  0.88671700  1
  H  H23  1  0.44997500  0.15793500  0.88405300  1
  H  H24  1  0.38523800  0.15378200  0.93523800  1
  H  H25  1  0.58119100  0.28695500  0.11542300  1
  H  H26  1  0.42799000  0.69935800  0.07202300  1
  H  H27  1  0.38671700  0.78405100  0.11328300  1
  H  H28  1  0.44997500  0.84206500  0.11594700  1
  H  H29  1  0.38523800  0.84621800  0.06476200  1
  H  H30  1  0.58119100  0.71304500  0.88457700  1
  H  H31  1  0.42799000  0.92797700  0.69935800  1
  H  H32  1  0.38671700  0.88671700  0.78405100  1
  H  H33  1  0.44997500  0.88405300  0.84206500  1
  H  H34  1  0.38523800  0.93523800  0.84621800  1
  H  H35  1  0.58119100  0.11542300  0.71304500  1
  H  H36  1  0.42799000  0.07202300  0.30064200  1
  H  H37  1  0.38671700  0.11328300  0.21594900  1
  H  H38  1  0.44997500  0.11594700  0.15793500  1
  H  H39  1  0.38523800  0.06476200  0.15378200  1
  H  H40  1  0.58119100  0.88457700  0.28695500  1
  H  H41  1  0.92797700  0.30064200  0.57201000  1
  H  H42  1  0.88671700  0.21594900  0.61328300  1
  H  H43  1  0.88405300  0.15793500  0.55002500  1
  H  H44  1  0.93523800  0.15378200  0.61476200  1
  H  H45  1  0.11542300  0.28695500  0.41880900  1
  H  H46  1  0.07202300  0.69935800  0.57201000  1
  H  H47  1  0.11328300  0.78405100  0.61328300  1
  H  H48  1  0.11594700  0.84206500  0.55002500  1
  H  H49  1  0.06476200  0.84621800  0.61476200  1
  H  H50  1  0.88457700  0.71304500  0.41880900  1
  H  H51  1  0.30064200  0.42799000  0.07202300  1
  H  H52  1  0.21594900  0.38671700  0.11328300  1
  H  H53  1  0.15793500  0.44997500  0.11594700  1
  H  H54  1  0.15378200  0.38523800  0.06476200  1
  H  H55  1  0.28695500  0.58119100  0.88457700  1
  H  H56  1  0.69935800  0.42799000  0.92797700  1
  H  H57  1  0.78405100  0.38671700  0.88671700  1
  H  H58  1  0.84206500  0.44997500  0.88405300  1
  H  H59  1  0.84621800  0.38523800  0.93523800  1
  H  H60  1  0.71304500  0.58119100  0.11542300  1
  C  C1  1  0.00000000  0.50000000  0.38583400  1
  C  C2  1  0.00000000  0.38583400  0.50000000  1
  C  C3  1  0.00000000  0.50000000  0.61416600  1
  C  C4  1  0.00000000  0.61416600  0.50000000  1
  C  C5  1  0.38583400  0.00000000  0.50000000  1
  C  C6  1  0.50000000  0.00000000  0.38583400  1
  C  C7  1  0.61416600  0.00000000  0.50000000  1
  C  C8  1  0.50000000  0.00000000  0.61416600  1
  C  C9  1  0.50000000  0.38583400  0.00000000  1
  C  C10  1  0.38583400  0.50000000  0.00000000  1
  C  C11  1  0.50000000  0.61416600  0.00000000  1
  C  C12  1  0.61416600  0.50000000  0.00000000  1
  C  C13  1  0.50000000  0.00000000  0.88583400  1
  C  C14  1  0.50000000  0.88583400  0.00000000  1
  C  C15  1  0.50000000  0.00000000  0.11416600  1
  C  C16  1  0.50000000  0.11416600  0.00000000  1
  C  C17  1  0.88583400  0.50000000  0.00000000  1
  C  C18  1  0.00000000  0.50000000  0.88583400  1
  C  C19  1  0.11416600  0.50000000  0.00000000  1
  C  C20  1  0.00000000  0.50000000  0.11416600  1
  C  C21  1  0.00000000  0.88583400  0.50000000  1
  C  C22  1  0.88583400  0.00000000  0.50000000  1
  C  C23  1  0.00000000  0.11416600  0.50000000  1
  C  C24  1  0.11416600  0.00000000  0.50000000  1
  C  C25  1  0.04415000  0.53084300  0.21907200  1
  C  C26  1  0.04776600  0.52620900  0.28318700  1
  C  C27  1  0.00172500  0.49605200  0.31432300  1
  C  C28  1  0.96023900  0.46028700  0.28129200  1
  C  C29  1  0.96178200  0.45603900  0.21674900  1
  C  C30  1  0.00299700  0.49541800  0.18469300  1
  C  C31  1  0.91373900  0.41759400  0.18447200  1
  C  C32  1  0.95585000  0.53084300  0.78092800  1
  C  C33  1  0.95223400  0.52620900  0.71681300  1
  C  C34  1  0.99827500  0.49605200  0.68567700  1
  C  C35  1  0.03976100  0.46028700  0.71870800  1
  C  C36  1  0.03821800  0.45603900  0.78325100  1
  C  C37  1  0.99700300  0.49541800  0.81530700  1
  C  C38  1  0.08626100  0.41759400  0.81552800  1
  C  C39  1  0.21907200  0.04415000  0.53084300  1
  C  C40  1  0.28318700  0.04776600  0.52620900  1
  C  C41  1  0.31432300  0.00172500  0.49605200  1
  C  C42  1  0.28129200  0.96023900  0.46028700  1
  C  C43  1  0.21674900  0.96178200  0.45603900  1
  C  C44  1  0.18469300  0.00299700  0.49541800  1
  C  C45  1  0.18447200  0.91373900  0.41759400  1
  C  C46  1  0.78092800  0.95585000  0.53084300  1
  C  C47  1  0.71681300  0.95223400  0.52620900  1
  C  C48  1  0.68567700  0.99827500  0.49605200  1
  C  C49  1  0.71870800  0.03976100  0.46028700  1
  C  C50  1  0.78325100  0.03821800  0.45603900  1
  C  C51  1  0.81530700  0.99700300  0.49541800  1
  C  C52  1  0.81552800  0.08626100  0.41759400  1
  C  C53  1  0.53084300  0.21907200  0.04415000  1
  C  C54  1  0.52620900  0.28318700  0.04776600  1
  C  C55  1  0.49605200  0.31432300  0.00172500  1
  C  C56  1  0.46028700  0.28129200  0.96023900  1
  C  C57  1  0.45603900  0.21674900  0.96178200  1
  C  C58  1  0.49541800  0.18469300  0.00299700  1
  C  C59  1  0.41759400  0.18447200  0.91373900  1
  C  C60  1  0.53084300  0.78092800  0.95585000  1
  C  C61  1  0.52620900  0.71681300  0.95223400  1
  C  C62  1  0.49605200  0.68567700  0.99827500  1
  C  C63  1  0.46028700  0.71870800  0.03976100  1
  C  C64  1  0.45603900  0.78325100  0.03821800  1
  C  C65  1  0.49541800  0.81530700  0.99700300  1
  C  C66  1  0.41759400  0.81552800  0.08626100  1
  C  C67  1  0.53084300  0.04415000  0.78092800  1
  C  C68  1  0.52620900  0.04776600  0.71681300  1
  C  C69  1  0.49605200  0.00172500  0.68567700  1
  C  C70  1  0.46028700  0.96023900  0.71870800  1
  C  C71  1  0.45603900  0.96178200  0.78325100  1
  C  C72  1  0.49541800  0.00299700  0.81530700  1
  C  C73  1  0.41759400  0.91373900  0.81552800  1
  C  C74  1  0.53084300  0.95585000  0.21907200  1
  C  C75  1  0.52620900  0.95223400  0.28318700  1
  C  C76  1  0.49605200  0.99827500  0.31432300  1
  C  C77  1  0.46028700  0.03976100  0.28129200  1
  C  C78  1  0.45603900  0.03821800  0.21674900  1
  C  C79  1  0.49541800  0.99700300  0.18469300  1
  C  C80  1  0.41759400  0.08626100  0.18447200  1
  C  C81  1  0.04415000  0.21907200  0.46915700  1
  C  C82  1  0.04776600  0.28318700  0.47379100  1
  C  C83  1  0.00172500  0.31432300  0.50394800  1
  C  C84  1  0.96023900  0.28129200  0.53971300  1
  C  C85  1  0.96178200  0.21674900  0.54396100  1
  C  C86  1  0.00299700  0.18469300  0.50458200  1
  C  C87  1  0.91373900  0.18447200  0.58240600  1
  C  C88  1  0.95585000  0.78092800  0.46915700  1
  C  C89  1  0.95223400  0.71681300  0.47379100  1
  C  C90  1  0.99827500  0.68567700  0.50394800  1
  C  C91  1  0.03976100  0.71870800  0.53971300  1
  C  C92  1  0.03821800  0.78325100  0.54396100  1
  C  C93  1  0.99700300  0.81530700  0.50458200  1
  C  C94  1  0.08626100  0.81552800  0.58240600  1
  C  C95  1  0.21907200  0.53084300  0.95585000  1
  C  C96  1  0.28318700  0.52620900  0.95223400  1
  C  C97  1  0.31432300  0.49605200  0.99827500  1
  C  C98  1  0.28129200  0.46028700  0.03976100  1
  C  C99  1  0.21674900  0.45603900  0.03821800  1
  C  C100  1  0.18469300  0.49541800  0.99700300  1
  C  C101  1  0.18447200  0.41759400  0.08626100  1
  C  C102  1  0.78092800  0.53084300  0.04415000  1
  C  C103  1  0.71681300  0.52620900  0.04776600  1
  C  C104  1  0.68567700  0.49605200  0.00172500  1
  C  C105  1  0.71870800  0.46028700  0.96023900  1
  C  C106  1  0.78325100  0.45603900  0.96178200  1
  C  C107  1  0.81530700  0.49541800  0.00299700  1
  C  C108  1  0.81552800  0.41759400  0.91373900  1
  Br  Br1  1  0.10301500  0.58491900  0.18302900  1
  Br  Br2  1  0.89698500  0.58491900  0.81697100  1
  Br  Br3  1  0.18302900  0.10301500  0.58491900  1
  Br  Br4  1  0.81697100  0.89698500  0.58491900  1
  Br  Br5  1  0.58491900  0.18302900  0.10301500  1
  Br  Br6  1  0.58491900  0.81697100  0.89698500  1
  Br  Br7  1  0.58491900  0.10301500  0.81697100  1
  Br  Br8  1  0.58491900  0.89698500  0.18302900  1
  Br  Br9  1  0.10301500  0.18302900  0.41508100  1
  Br  Br10  1  0.89698500  0.81697100  0.41508100  1
  Br  Br11  1  0.18302900  0.58491900  0.89698500  1
  Br  Br12  1  0.81697100  0.58491900  0.10301500  1
  O  O1  1  0.04782900  0.50000000  0.41344800  1
  O  O2  1  0.95217100  0.50000000  0.41344800  1
  O  O3  1  0.04782900  0.41344800  0.50000000  1
  O  O4  1  0.95217100  0.41344800  0.50000000  1
  O  O5  1  0.04782900  0.50000000  0.58655200  1
  O  O6  1  0.95217100  0.50000000  0.58655200  1
  O  O7  1  0.04782900  0.58655200  0.50000000  1
  O  O8  1  0.95217100  0.58655200  0.50000000  1
  O  O9  1  0.41344800  0.04782900  0.50000000  1
  O  O10  1  0.41344800  0.95217100  0.50000000  1
  O  O11  1  0.50000000  0.04782900  0.41344800  1
  O  O12  1  0.50000000  0.95217100  0.41344800  1
  O  O13  1  0.58655200  0.04782900  0.50000000  1
  O  O14  1  0.58655200  0.95217100  0.50000000  1
  O  O15  1  0.50000000  0.04782900  0.58655200  1
  O  O16  1  0.50000000  0.95217100  0.58655200  1
  O  O17  1  0.50000000  0.41344800  0.04782900  1
  O  O18  1  0.50000000  0.41344800  0.95217100  1
  O  O19  1  0.41344800  0.50000000  0.04782900  1
  O  O20  1  0.41344800  0.50000000  0.95217100  1
  O  O21  1  0.50000000  0.58655200  0.04782900  1
  O  O22  1  0.50000000  0.58655200  0.95217100  1
  O  O23  1  0.58655200  0.50000000  0.04782900  1
  O  O24  1  0.58655200  0.50000000  0.95217100  1
  O  O25  1  0.54782900  0.00000000  0.91344800  1
  O  O26  1  0.45217100  0.00000000  0.91344800  1
  O  O27  1  0.54782900  0.91344800  0.00000000  1
  O  O28  1  0.45217100  0.91344800  0.00000000  1
  O  O29  1  0.54782900  0.00000000  0.08655200  1
  O  O30  1  0.45217100  0.00000000  0.08655200  1
  O  O31  1  0.54782900  0.08655200  0.00000000  1
  O  O32  1  0.45217100  0.08655200  0.00000000  1
  O  O33  1  0.91344800  0.54782900  0.00000000  1
  O  O34  1  0.91344800  0.45217100  0.00000000  1
  O  O35  1  0.00000000  0.54782900  0.91344800  1
  O  O36  1  0.00000000  0.45217100  0.91344800  1
  O  O37  1  0.08655200  0.54782900  0.00000000  1
  O  O38  1  0.08655200  0.45217100  0.00000000  1
  O  O39  1  0.00000000  0.54782900  0.08655200  1
  O  O40  1  0.00000000  0.45217100  0.08655200  1
  O  O41  1  0.00000000  0.91344800  0.54782900  1
  O  O42  1  0.00000000  0.91344800  0.45217100  1
  O  O43  1  0.91344800  0.00000000  0.54782900  1
  O  O44  1  0.91344800  0.00000000  0.45217100  1
  O  O45  1  0.00000000  0.08655200  0.54782900  1
  O  O46  1  0.00000000  0.08655200  0.45217100  1
  O  O47  1  0.08655200  0.00000000  0.54782900  1
  O  O48  1  0.08655200  0.00000000  0.45217100  1
  O  O49  1  0.08902400  0.55994800  0.31631000  1
  O  O50  1  0.91097600  0.55994800  0.68369000  1
  O  O51  1  0.31631000  0.08902400  0.55994800  1
  O  O52  1  0.68369000  0.91097600  0.55994800  1
  O  O53  1  0.55994800  0.31631000  0.08902400  1
  O  O54  1  0.55994800  0.68369000  0.91097600  1
  O  O55  1  0.55994800  0.08902400  0.68369000  1
  O  O56  1  0.55994800  0.91097600  0.31631000  1
  O  O57  1  0.08902400  0.31631000  0.44005200  1
  O  O58  1  0.91097600  0.68369000  0.44005200  1
  O  O59  1  0.31631000  0.55994800  0.91097600  1
  O  O60  1  0.68369000  0.55994800  0.08902400  1
