# generated using pymatgen
data_CuH8C12(NO2)2
_symmetry_space_group_name_H-M   'P 1'
_cell_length_a   26.03270000
_cell_length_b   26.03270000
_cell_length_c   23.94350000
_cell_angle_alpha   90.00000000
_cell_angle_beta   90.00000000
_cell_angle_gamma   90.00000000
_symmetry_Int_Tables_number   1
_chemical_formula_structural   CuH8C12(NO2)2
_chemical_formula_sum   'Cu16 H128 C192 N32 O64'
_cell_volume   16226.54512995
_cell_formula_units_Z   16
loop_
 _symmetry_equiv_pos_site_id
 _symmetry_equiv_pos_as_xyz
  1  'x, y, z'
loop_
 _atom_site_type_symbol
 _atom_site_label
 _atom_site_symmetry_multiplicity
 _atom_site_fract_x
 _atom_site_fract_y
 _atom_site_fract_z
 _atom_site_occupancy
  Cu  Cu1  1  0.01003200  0.95390600  0.96079200  1
  Cu  Cu2  1  0.01003200  0.02603000  0.03920800  1
  Cu  Cu3  1  0.51003200  0.02603000  0.46079200  1
  Cu  Cu4  1  0.51003200  0.95390600  0.53920800  1
  Cu  Cu5  1  0.29609400  0.73996800  0.21079200  1
  Cu  Cu6  1  0.22397000  0.73996800  0.28920800  1
  Cu  Cu7  1  0.22397000  0.23996800  0.71079200  1
  Cu  Cu8  1  0.29609400  0.23996800  0.78920800  1
  Cu  Cu9  1  0.72397000  0.23996800  0.78920800  1
  Cu  Cu10  1  0.79609400  0.23996800  0.71079200  1
  Cu  Cu11  1  0.79609400  0.73996800  0.28920800  1
  Cu  Cu12  1  0.72397000  0.73996800  0.21079200  1
  Cu  Cu13  1  0.51003200  0.45390600  0.46079200  1
  Cu  Cu14  1  0.51003200  0.52603000  0.53920800  1
  Cu  Cu15  1  0.01003200  0.52603000  0.96079200  1
  Cu  Cu16  1  0.01003200  0.45390600  0.03920800  1
  H  H1  1  0.76478100  0.79323000  0.99031100  1
  H  H2  1  0.79957500  0.79957500  0.93116400  1
  H  H3  1  0.82941000  0.79788600  0.00200100  1
  H  H4  1  0.77656100  0.97601900  0.92694000  1
  H  H5  1  0.84226400  0.98210400  0.01690100  1
  H  H6  1  0.94763700  0.91940700  0.15954000  1
  H  H7  1  0.89437100  0.86560400  0.22601400  1
  H  H8  1  0.78981700  0.83786200  0.09373300  1
  H  H9  1  0.75528200  0.18670600  0.49031100  1
  H  H10  1  0.72048900  0.18036200  0.43116400  1
  H  H11  1  0.69065400  0.18205000  0.50200100  1
  H  H12  1  0.74350300  0.00391700  0.42694000  1
  H  H13  1  0.67780000  0.99783200  0.51690100  1
  H  H14  1  0.57242700  0.06053000  0.65954000  1
  H  H15  1  0.62569300  0.11433200  0.72601400  1
  H  H16  1  0.73024700  0.14207500  0.59373300  1
  H  H17  1  0.45677000  0.49471800  0.24031100  1
  H  H18  1  0.45042500  0.52951100  0.18116400  1
  H  H19  1  0.45211400  0.55934600  0.25200100  1
  H  H20  1  0.27398100  0.50649700  0.17694000  1
  H  H21  1  0.26789600  0.57220000  0.26690100  1
  H  H22  1  0.33059300  0.67757300  0.40954000  1
  H  H23  1  0.38439600  0.62430700  0.47601400  1
  H  H24  1  0.41213800  0.51975300  0.34373300  1
  H  H25  1  0.06329400  0.48521900  0.74031100  1
  H  H26  1  0.06963800  0.45042500  0.68116400  1
  H  H27  1  0.06795000  0.42059000  0.75200100  1
  H  H28  1  0.24608300  0.47343900  0.67694000  1
  H  H29  1  0.25216800  0.40773600  0.76690100  1
  H  H30  1  0.18947000  0.30236300  0.90954000  1
  H  H31  1  0.13566800  0.35562900  0.97601400  1
  H  H32  1  0.10792500  0.46018300  0.84373300  1
  H  H33  1  0.75528200  0.79323000  0.50968900  1
  H  H34  1  0.72048900  0.79957500  0.56883600  1
  H  H35  1  0.69065400  0.79788600  0.49799900  1
  H  H36  1  0.74350300  0.97601900  0.57306000  1
  H  H37  1  0.67780000  0.98210400  0.48309900  1
  H  H38  1  0.57242700  0.91940700  0.34046000  1
  H  H39  1  0.62569300  0.86560400  0.27398600  1
  H  H40  1  0.73024700  0.83786200  0.40626700  1
  H  H41  1  0.76478100  0.18670600  0.00968900  1
  H  H42  1  0.79957500  0.18036200  0.06883600  1
  H  H43  1  0.82941000  0.18205000  0.99799900  1
  H  H44  1  0.77656100  0.00391700  0.07306000  1
  H  H45  1  0.84226400  0.99783200  0.98309900  1
  H  H46  1  0.94763700  0.06053000  0.84046000  1
  H  H47  1  0.89437100  0.11433200  0.77398600  1
  H  H48  1  0.78981700  0.14207500  0.90626700  1
  H  H49  1  0.06329400  0.49471800  0.25968900  1
  H  H50  1  0.06963800  0.52951100  0.31883600  1
  H  H51  1  0.06795000  0.55934600  0.24799900  1
  H  H52  1  0.24608300  0.50649700  0.32306000  1
  H  H53  1  0.25216800  0.57220000  0.23309900  1
  H  H54  1  0.18947000  0.67757300  0.09046000  1
  H  H55  1  0.13566800  0.62430700  0.02398600  1
  H  H56  1  0.10792500  0.51975300  0.15626700  1
  H  H57  1  0.45677000  0.48521900  0.75968900  1
  H  H58  1  0.45042500  0.45042500  0.81883600  1
  H  H59  1  0.45211400  0.42059000  0.74799900  1
  H  H60  1  0.27398100  0.47343900  0.82306000  1
  H  H61  1  0.26789600  0.40773600  0.73309900  1
  H  H62  1  0.33059300  0.30236300  0.59046000  1
  H  H63  1  0.38439600  0.35562900  0.52398600  1
  H  H64  1  0.41213800  0.46018300  0.65626700  1
  H  H65  1  0.25528200  0.18670600  0.00968900  1
  H  H66  1  0.22048900  0.18036200  0.06883600  1
  H  H67  1  0.19065400  0.18205000  0.99799900  1
  H  H68  1  0.24350300  0.00391700  0.07306000  1
  H  H69  1  0.17780000  0.99783200  0.98309900  1
  H  H70  1  0.07242700  0.06053000  0.84046000  1
  H  H71  1  0.12569300  0.11433200  0.77398600  1
  H  H72  1  0.23024700  0.14207500  0.90626700  1
  H  H73  1  0.26478100  0.79323000  0.50968900  1
  H  H74  1  0.29957500  0.79957500  0.56883600  1
  H  H75  1  0.32941000  0.79788600  0.49799900  1
  H  H76  1  0.27656100  0.97601900  0.57306000  1
  H  H77  1  0.34226400  0.98210400  0.48309900  1
  H  H78  1  0.44763700  0.91940700  0.34046000  1
  H  H79  1  0.39437100  0.86560400  0.27398600  1
  H  H80  1  0.28981700  0.83786200  0.40626700  1
  H  H81  1  0.56329400  0.48521900  0.75968900  1
  H  H82  1  0.56963800  0.45042500  0.81883600  1
  H  H83  1  0.56795000  0.42059000  0.74799900  1
  H  H84  1  0.74608300  0.47343900  0.82306000  1
  H  H85  1  0.75216800  0.40773600  0.73309900  1
  H  H86  1  0.68947000  0.30236300  0.59046000  1
  H  H87  1  0.63566800  0.35562900  0.52398600  1
  H  H88  1  0.60792500  0.46018300  0.65626700  1
  H  H89  1  0.95677000  0.49471800  0.25968900  1
  H  H90  1  0.95042500  0.52951100  0.31883600  1
  H  H91  1  0.95211400  0.55934600  0.24799900  1
  H  H92  1  0.77398100  0.50649700  0.32306000  1
  H  H93  1  0.76789600  0.57220000  0.23309900  1
  H  H94  1  0.83059300  0.67757300  0.09046000  1
  H  H95  1  0.88439600  0.62430700  0.02398600  1
  H  H96  1  0.91213800  0.51975300  0.15626700  1
  H  H97  1  0.26478100  0.18670600  0.49031100  1
  H  H98  1  0.29957500  0.18036200  0.43116400  1
  H  H99  1  0.32941000  0.18205000  0.50200100  1
  H  H100  1  0.27656100  0.00391700  0.42694000  1
  H  H101  1  0.34226400  0.99783200  0.51690100  1
  H  H102  1  0.44763700  0.06053000  0.65954000  1
  H  H103  1  0.39437100  0.11433200  0.72601400  1
  H  H104  1  0.28981700  0.14207500  0.59373300  1
  H  H105  1  0.25528200  0.79323000  0.99031100  1
  H  H106  1  0.22048900  0.79957500  0.93116400  1
  H  H107  1  0.19065400  0.79788600  0.00200100  1
  H  H108  1  0.24350300  0.97601900  0.92694000  1
  H  H109  1  0.17780000  0.98210400  0.01690100  1
  H  H110  1  0.07242700  0.91940700  0.15954000  1
  H  H111  1  0.12569300  0.86560400  0.22601400  1
  H  H112  1  0.23024700  0.83786200  0.09373300  1
  H  H113  1  0.95677000  0.48521900  0.74031100  1
  H  H114  1  0.95042500  0.45042500  0.68116400  1
  H  H115  1  0.95211400  0.42059000  0.75200100  1
  H  H116  1  0.77398100  0.47343900  0.67694000  1
  H  H117  1  0.76789600  0.40773600  0.76690100  1
  H  H118  1  0.83059300  0.30236300  0.90954000  1
  H  H119  1  0.88439600  0.35562900  0.97601400  1
  H  H120  1  0.91213800  0.46018300  0.84373300  1
  H  H121  1  0.56329400  0.49471800  0.24031100  1
  H  H122  1  0.56963800  0.52951100  0.18116400  1
  H  H123  1  0.56795000  0.55934600  0.25200100  1
  H  H124  1  0.74608300  0.50649700  0.17694000  1
  H  H125  1  0.75216800  0.57220000  0.26690100  1
  H  H126  1  0.68947000  0.67757300  0.40954000  1
  H  H127  1  0.63566800  0.62430700  0.47601400  1
  H  H128  1  0.60792500  0.51975300  0.34373300  1
  C  C1  1  0.07853400  0.53840600  0.05266500  1
  C  C2  1  0.07853400  0.44153000  0.94733500  1
  C  C3  1  0.94153000  0.44153000  0.94733500  1
  C  C4  1  0.94153000  0.53840600  0.05266500  1
  C  C5  1  0.07853400  0.94153000  0.05266500  1
  C  C6  1  0.79833300  0.81057800  0.97532500  1
  C  C7  1  0.79081800  0.94554600  0.95145800  1
  C  C8  1  0.82574700  0.94544600  0.99689500  1
  C  C9  1  0.83053800  0.89618700  0.01556900  1
  C  C10  1  0.85671500  0.88481800  0.06712800  1
  C  C11  1  0.90045200  0.91071500  0.08877900  1
  C  C12  1  0.91196500  0.89927500  0.14305200  1
  C  C13  1  0.88528700  0.86525400  0.17989500  1
  C  C14  1  0.84161700  0.84414000  0.16200500  1
  C  C15  1  0.82756600  0.85295900  0.10664100  1
  C  C16  1  0.72173100  0.16935900  0.47532500  1
  C  C17  1  0.72924600  0.03439000  0.45145800  1
  C  C18  1  0.69431600  0.03449100  0.49689500  1
  C  C19  1  0.68952500  0.08374900  0.51556900  1
  C  C20  1  0.66334900  0.09511800  0.56712800  1
  C  C21  1  0.61961100  0.06922100  0.58877900  1
  C  C22  1  0.60809900  0.08066200  0.64305200  1
  C  C23  1  0.63477700  0.11468300  0.67989500  1
  C  C24  1  0.67844700  0.13579600  0.66200500  1
  C  C25  1  0.69249800  0.12697700  0.60664100  1
  C  C26  1  0.43942200  0.52826900  0.22532500  1
  C  C27  1  0.30445400  0.52075400  0.20145800  1
  C  C28  1  0.30455400  0.55568400  0.24689500  1
  C  C29  1  0.35381300  0.56047500  0.26556900  1
  C  C30  1  0.57853400  0.03840600  0.55266500  1
  C  C31  1  0.36518200  0.58665100  0.31712800  1
  C  C32  1  0.33928500  0.63038900  0.33877900  1
  C  C33  1  0.35072500  0.64190100  0.39305200  1
  C  C34  1  0.38474600  0.61522300  0.42989500  1
  C  C35  1  0.40586000  0.57155300  0.41200500  1
  C  C36  1  0.39704100  0.55750200  0.35664100  1
  C  C37  1  0.08064100  0.45166700  0.72532500  1
  C  C38  1  0.21561000  0.45918200  0.70145800  1
  C  C39  1  0.21550900  0.42425300  0.74689500  1
  C  C40  1  0.16625100  0.41946200  0.76556900  1
  C  C41  1  0.15488200  0.39328500  0.81712800  1
  C  C42  1  0.18077900  0.34954800  0.83877900  1
  C  C43  1  0.16933800  0.33803500  0.89305200  1
  C  C44  1  0.13531700  0.36471300  0.92989500  1
  C  C45  1  0.11420400  0.40838300  0.91200500  1
  C  C46  1  0.57853400  0.94153000  0.44733500  1
  C  C47  1  0.12302300  0.42243400  0.85664100  1
  C  C48  1  0.72173100  0.81057800  0.52467500  1
  C  C49  1  0.72924600  0.94554600  0.54854200  1
  C  C50  1  0.69431600  0.94544600  0.50310500  1
  C  C51  1  0.68952500  0.89618700  0.48443100  1
  C  C52  1  0.94153000  0.94153000  0.05266500  1
  C  C53  1  0.66334900  0.88481800  0.43287200  1
  C  C54  1  0.61961100  0.91071500  0.41122100  1
  C  C55  1  0.60809900  0.89927500  0.35694800  1
  C  C56  1  0.63477700  0.86525400  0.32010500  1
  C  C57  1  0.67844700  0.84414000  0.33799500  1
  C  C58  1  0.69249800  0.85295900  0.39335900  1
  C  C59  1  0.79833300  0.16935900  0.02467500  1
  C  C60  1  0.79081800  0.03439000  0.04854200  1
  C  C61  1  0.82574700  0.03449100  0.00310500  1
  C  C62  1  0.83053800  0.08374900  0.98443100  1
  C  C63  1  0.44153000  0.94153000  0.44733500  1
  C  C64  1  0.85671500  0.09511800  0.93287200  1
  C  C65  1  0.90045200  0.06922100  0.91122100  1
  C  C66  1  0.91196500  0.08066200  0.85694800  1
  C  C67  1  0.88528700  0.11468300  0.82010500  1
  C  C68  1  0.84161700  0.13579600  0.83799500  1
  C  C69  1  0.82756600  0.12697700  0.89335900  1
  C  C70  1  0.08064100  0.52826900  0.27467500  1
  C  C71  1  0.21561000  0.52075400  0.29854200  1
  C  C72  1  0.21550900  0.55568400  0.25310500  1
  C  C73  1  0.16625100  0.56047500  0.23443100  1
  C  C74  1  0.15488200  0.58665100  0.18287200  1
  C  C75  1  0.18077900  0.63038900  0.16122100  1
  C  C76  1  0.16933800  0.64190100  0.10694800  1
  C  C77  1  0.13531700  0.61522300  0.07010500  1
  C  C78  1  0.11420400  0.57155300  0.08799500  1
  C  C79  1  0.44153000  0.03840600  0.55266500  1
  C  C80  1  0.12302300  0.55750200  0.14335900  1
  C  C81  1  0.43942200  0.45166700  0.77467500  1
  C  C82  1  0.30445400  0.45918200  0.79854200  1
  C  C83  1  0.30455400  0.42425300  0.75310500  1
  C  C84  1  0.35381300  0.41946200  0.73443100  1
  C  C85  1  0.36518200  0.39328500  0.68287200  1
  C  C86  1  0.33928500  0.34954800  0.66122100  1
  C  C87  1  0.35072500  0.33803500  0.60694800  1
  C  C88  1  0.38474600  0.36471300  0.57010500  1
  C  C89  1  0.40586000  0.40838300  0.58799500  1
  C  C90  1  0.39704100  0.42243400  0.64335900  1
  C  C91  1  0.22173100  0.16935900  0.02467500  1
  C  C92  1  0.22924600  0.03439000  0.04854200  1
  C  C93  1  0.19431600  0.03449100  0.00310500  1
  C  C94  1  0.18952500  0.08374900  0.98443100  1
  C  C95  1  0.16334900  0.09511800  0.93287200  1
  C  C96  1  0.11961100  0.06922100  0.91122100  1
  C  C97  1  0.10809900  0.08066200  0.85694800  1
  C  C98  1  0.13477700  0.11468300  0.82010500  1
  C  C99  1  0.17844700  0.13579600  0.83799500  1
  C  C100  1  0.19249800  0.12697700  0.89335900  1
  C  C101  1  0.29833300  0.81057800  0.52467500  1
  C  C102  1  0.29081800  0.94554600  0.54854200  1
  C  C103  1  0.32574700  0.94544600  0.50310500  1
  C  C104  1  0.33053800  0.89618700  0.48443100  1
  C  C105  1  0.30847000  0.67146600  0.30266500  1
  C  C106  1  0.35671500  0.88481800  0.43287200  1
  C  C107  1  0.40045200  0.91071500  0.41122100  1
  C  C108  1  0.41196500  0.89927500  0.35694800  1
  C  C109  1  0.38528700  0.86525400  0.32010500  1
  C  C110  1  0.34161700  0.84414000  0.33799500  1
  C  C111  1  0.32756600  0.85295900  0.39335900  1
  C  C112  1  0.58064100  0.45166700  0.77467500  1
  C  C113  1  0.71561000  0.45918200  0.79854200  1
  C  C114  1  0.71550900  0.42425300  0.75310500  1
  C  C115  1  0.66625100  0.41946200  0.73443100  1
  C  C116  1  0.65488200  0.39328500  0.68287200  1
  C  C117  1  0.68077900  0.34954800  0.66122100  1
  C  C118  1  0.66933800  0.33803500  0.60694800  1
  C  C119  1  0.63531700  0.36471300  0.57010500  1
  C  C120  1  0.61420400  0.40838300  0.58799500  1
  C  C121  1  0.21159400  0.67146600  0.19733500  1
  C  C122  1  0.62302300  0.42243400  0.64335900  1
  C  C123  1  0.93942200  0.52826900  0.27467500  1
  C  C124  1  0.80445400  0.52075400  0.29854200  1
  C  C125  1  0.80455400  0.55568400  0.25310500  1
  C  C126  1  0.85381300  0.56047500  0.23443100  1
  C  C127  1  0.86518200  0.58665100  0.18287200  1
  C  C128  1  0.83928500  0.63038900  0.16122100  1
  C  C129  1  0.85072500  0.64190100  0.10694800  1
  C  C130  1  0.88474600  0.61522300  0.07010500  1
  C  C131  1  0.90586000  0.57155300  0.08799500  1
  C  C132  1  0.89704100  0.55750200  0.14335900  1
  C  C133  1  0.29833300  0.16935900  0.47532500  1
  C  C134  1  0.29081800  0.03439000  0.45145800  1
  C  C135  1  0.32574700  0.03449100  0.49689500  1
  C  C136  1  0.33053800  0.08374900  0.51556900  1
  C  C137  1  0.21159400  0.80847000  0.19733500  1
  C  C138  1  0.35671500  0.09511800  0.56712800  1
  C  C139  1  0.40045200  0.06922100  0.58877900  1
  C  C140  1  0.41196500  0.08066200  0.64305200  1
  C  C141  1  0.38528700  0.11468300  0.67989500  1
  C  C142  1  0.34161700  0.13579600  0.66200500  1
  C  C143  1  0.32756600  0.12697700  0.60664100  1
  C  C144  1  0.22173100  0.81057800  0.97532500  1
  C  C145  1  0.22924600  0.94554600  0.95145800  1
  C  C146  1  0.19431600  0.94544600  0.99689500  1
  C  C147  1  0.18952500  0.89618700  0.01556900  1
  C  C148  1  0.16334900  0.88481800  0.06712800  1
  C  C149  1  0.11961100  0.91071500  0.08877900  1
  C  C150  1  0.10809900  0.89927500  0.14305200  1
  C  C151  1  0.13477700  0.86525400  0.17989500  1
  C  C152  1  0.17844700  0.84414000  0.16200500  1
  C  C153  1  0.30847000  0.80847000  0.30266500  1
  C  C154  1  0.19249800  0.85295900  0.10664100  1
  C  C155  1  0.93942200  0.45166700  0.72532500  1
  C  C156  1  0.80445400  0.45918200  0.70145800  1
  C  C157  1  0.80455400  0.42425300  0.74689500  1
  C  C158  1  0.85381300  0.41946200  0.76556900  1
  C  C159  1  0.86518200  0.39328500  0.81712800  1
  C  C160  1  0.83928500  0.34954800  0.83877900  1
  C  C161  1  0.85072500  0.33803500  0.89305200  1
  C  C162  1  0.88474600  0.36471300  0.92989500  1
  C  C163  1  0.90586000  0.40838300  0.91200500  1
  C  C164  1  0.89704100  0.42243400  0.85664100  1
  C  C165  1  0.58064100  0.52826900  0.22532500  1
  C  C166  1  0.71561000  0.52075400  0.20145800  1
  C  C167  1  0.71550900  0.55568400  0.24689500  1
  C  C168  1  0.66625100  0.56047500  0.26556900  1
  C  C169  1  0.65488200  0.58665100  0.31712800  1
  C  C170  1  0.68077900  0.63038900  0.33877900  1
  C  C171  1  0.66933800  0.64190100  0.39305200  1
  C  C172  1  0.63531700  0.61522300  0.42989500  1
  C  C173  1  0.61420400  0.57155300  0.41200500  1
  C  C174  1  0.62302300  0.55750200  0.35664100  1
  C  C175  1  0.21159400  0.30847000  0.80266500  1
  C  C176  1  0.30847000  0.30847000  0.69733500  1
  C  C177  1  0.94153000  0.03840600  0.94733500  1
  C  C178  1  0.30847000  0.17146600  0.69733500  1
  C  C179  1  0.21159400  0.17146600  0.80266500  1
  C  C180  1  0.71159400  0.30847000  0.69733500  1
  C  C181  1  0.80847000  0.30847000  0.80266500  1
  C  C182  1  0.80847000  0.17146600  0.80266500  1
  C  C183  1  0.71159400  0.17146600  0.69733500  1
  C  C184  1  0.80847000  0.67146600  0.19733500  1
  C  C185  1  0.71159400  0.67146600  0.30266500  1
  C  C186  1  0.71159400  0.80847000  0.30266500  1
  C  C187  1  0.07853400  0.03840600  0.94733500  1
  C  C188  1  0.80847000  0.80847000  0.19733500  1
  C  C189  1  0.44153000  0.44153000  0.55266500  1
  C  C190  1  0.44153000  0.53840600  0.44733500  1
  C  C191  1  0.57853400  0.53840600  0.44733500  1
  C  C192  1  0.57853400  0.44153000  0.55266500  1
  N  N1  1  0.79843900  0.86727500  0.98301500  1
  N  N2  1  0.77745000  0.89669300  0.94012400  1
  N  N3  1  0.72162400  0.11266100  0.48301500  1
  N  N4  1  0.74261300  0.08324300  0.44012400  1
  N  N5  1  0.38272500  0.52837600  0.23301500  1
  N  N6  1  0.35330700  0.50738700  0.19012400  1
  N  N7  1  0.13733900  0.45156100  0.73301500  1
  N  N8  1  0.16675700  0.47255000  0.69012400  1
  N  N9  1  0.72162400  0.86727500  0.51698500  1
  N  N10  1  0.74261300  0.89669300  0.55987600  1
  N  N11  1  0.79843900  0.11266100  0.01698500  1
  N  N12  1  0.77745000  0.08324300  0.05987600  1
  N  N13  1  0.13733900  0.52837600  0.26698500  1
  N  N14  1  0.16675700  0.50738700  0.30987600  1
  N  N15  1  0.38272500  0.45156100  0.76698500  1
  N  N16  1  0.35330700  0.47255000  0.80987600  1
  N  N17  1  0.22162400  0.11266100  0.01698500  1
  N  N18  1  0.24261300  0.08324300  0.05987600  1
  N  N19  1  0.29843900  0.86727500  0.51698500  1
  N  N20  1  0.27745000  0.89669300  0.55987600  1
  N  N21  1  0.63733900  0.45156100  0.76698500  1
  N  N22  1  0.66675700  0.47255000  0.80987600  1
  N  N23  1  0.88272500  0.52837600  0.26698500  1
  N  N24  1  0.85330700  0.50738700  0.30987600  1
  N  N25  1  0.29843900  0.11266100  0.48301500  1
  N  N26  1  0.27745000  0.08324300  0.44012400  1
  N  N27  1  0.22162400  0.86727500  0.98301500  1
  N  N28  1  0.24261300  0.89669300  0.94012400  1
  N  N29  1  0.88272500  0.45156100  0.73301500  1
  N  N30  1  0.85330700  0.47255000  0.69012400  1
  N  N31  1  0.63733900  0.52837600  0.23301500  1
  N  N32  1  0.66675700  0.50738700  0.19012400  1
  O  O1  1  0.06196500  0.99799200  0.92887100  1
  O  O2  1  0.06196500  0.49799200  0.07112900  1
  O  O3  1  0.06196500  0.55538900  0.00872400  1
  O  O4  1  0.06196500  0.42454800  0.99127600  1
  O  O5  1  0.06196500  0.48194400  0.92887100  1
  O  O6  1  0.95809900  0.42454800  0.99127600  1
  O  O7  1  0.95809900  0.48194400  0.92887100  1
  O  O8  1  0.95809900  0.49799200  0.07112900  1
  O  O9  1  0.95809900  0.55538900  0.00872400  1
  O  O10  1  0.06196500  0.98194400  0.07112900  1
  O  O11  1  0.06196500  0.92454800  0.00872400  1
  O  O12  1  0.56196500  0.99799200  0.57112900  1
  O  O13  1  0.56196500  0.05538900  0.50872400  1
  O  O14  1  0.56196500  0.92454800  0.49127600  1
  O  O15  1  0.56196500  0.98194400  0.42887100  1
  O  O16  1  0.45809900  0.92454800  0.49127600  1
  O  O17  1  0.45809900  0.98194400  0.42887100  1
  O  O18  1  0.45809900  0.99799200  0.57112900  1
  O  O19  1  0.45809900  0.05538900  0.50872400  1
  O  O20  1  0.95809900  0.98194400  0.07112900  1
  O  O21  1  0.26805600  0.68803500  0.32112900  1
  O  O22  1  0.32545200  0.68803500  0.25872400  1
  O  O23  1  0.19461100  0.68803500  0.24127600  1
  O  O24  1  0.25200800  0.68803500  0.17887100  1
  O  O25  1  0.19461100  0.79190100  0.24127600  1
  O  O26  1  0.25200800  0.79190100  0.17887100  1
  O  O27  1  0.95809900  0.92454800  0.00872400  1
  O  O28  1  0.26805600  0.79190100  0.32112900  1
  O  O29  1  0.32545200  0.79190100  0.25872400  1
  O  O30  1  0.25200800  0.29190100  0.82112900  1
  O  O31  1  0.19461100  0.29190100  0.75872400  1
  O  O32  1  0.32545200  0.29190100  0.74127600  1
  O  O33  1  0.26805600  0.29190100  0.67887100  1
  O  O34  1  0.32545200  0.18803500  0.74127600  1
  O  O35  1  0.26805600  0.18803500  0.67887100  1
  O  O36  1  0.25200800  0.18803500  0.82112900  1
  O  O37  1  0.19461100  0.18803500  0.75872400  1
  O  O38  1  0.75200800  0.29190100  0.67887100  1
  O  O39  1  0.95809900  0.05538900  0.99127600  1
  O  O40  1  0.69461100  0.29190100  0.74127600  1
  O  O41  1  0.82545200  0.29190100  0.75872400  1
  O  O42  1  0.76805600  0.29190100  0.82112900  1
  O  O43  1  0.82545200  0.18803500  0.75872400  1
  O  O44  1  0.76805600  0.18803500  0.82112900  1
  O  O45  1  0.75200800  0.18803500  0.67887100  1
  O  O46  1  0.69461100  0.18803500  0.74127600  1
  O  O47  1  0.95809900  0.99799200  0.92887100  1
  O  O48  1  0.76805600  0.68803500  0.17887100  1
  O  O49  1  0.82545200  0.68803500  0.24127600  1
  O  O50  1  0.69461100  0.68803500  0.25872400  1
  O  O51  1  0.75200800  0.68803500  0.32112900  1
  O  O52  1  0.69461100  0.79190100  0.25872400  1
  O  O53  1  0.75200800  0.79190100  0.32112900  1
  O  O54  1  0.76805600  0.79190100  0.17887100  1
  O  O55  1  0.82545200  0.79190100  0.24127600  1
  O  O56  1  0.45809900  0.48194400  0.57112900  1
  O  O57  1  0.45809900  0.42454800  0.50872400  1
  O  O58  1  0.06196500  0.05538900  0.99127600  1
  O  O59  1  0.45809900  0.55538900  0.49127600  1
  O  O60  1  0.45809900  0.49799200  0.42887100  1
  O  O61  1  0.56196500  0.55538900  0.49127600  1
  O  O62  1  0.56196500  0.49799200  0.42887100  1
  O  O63  1  0.56196500  0.48194400  0.57112900  1
  O  O64  1  0.56196500  0.42454800  0.50872400  1
