# generated using pymatgen
data_H9PdC11BrO4
_symmetry_space_group_name_H-M   'P 1'
_cell_length_a   20.27180000
_cell_length_b   20.27180000
_cell_length_c   16.55200000
_cell_angle_alpha   90.00000000
_cell_angle_beta   90.00000000
_cell_angle_gamma   120.00000000
_symmetry_Int_Tables_number   1
_chemical_formula_structural   H9PdC11BrO4
_chemical_formula_sum   'H54 Pd6 C66 Br6 O24'
_cell_volume   5890.68412189
_cell_formula_units_Z   6
loop_
 _symmetry_equiv_pos_site_id
 _symmetry_equiv_pos_as_xyz
  1  'x, y, z'
loop_
 _atom_site_type_symbol
 _atom_site_label
 _atom_site_symmetry_multiplicity
 _atom_site_fract_x
 _atom_site_fract_y
 _atom_site_fract_z
 _atom_site_occupancy
  H  H1  1  0.10253800  0.46645200  0.03228600  1
  H  H2  1  0.97305800  0.40275900  0.99806900  1
  H  H3  1  0.93365200  0.57018000  0.10526200  1
  H  H4  1  0.84289500  0.38343500  0.01729700  1
  H  H5  1  0.82747700  0.45548900  0.02928800  1
  H  H6  1  0.93339900  0.46781700  0.89367100  1
  H  H7  1  0.92401200  0.58491700  0.93821300  1
  H  H8  1  0.82100400  0.52552400  0.92795200  1
  H  H9  1  0.87750600  0.55255400  0.83935000  1
  H  H10  1  0.53354800  0.63608600  0.03228600  1
  H  H11  1  0.59724100  0.57029900  0.99806900  1
  H  H12  1  0.42982000  0.36347200  0.10526200  1
  H  H13  1  0.61656500  0.45946100  0.01729700  1
  H  H14  1  0.54451100  0.37198800  0.02928800  1
  H  H15  1  0.53218300  0.46558200  0.89367100  1
  H  H16  1  0.41508300  0.33909600  0.93821300  1
  H  H17  1  0.47447600  0.29548000  0.92795200  1
  H  H18  1  0.44744600  0.32495300  0.83935000  1
  H  H19  1  0.36391400  0.89746200  0.03228600  1
  H  H20  1  0.42970100  0.02694200  0.99806900  1
  H  H21  1  0.63652800  0.06634800  0.10526200  1
  H  H22  1  0.54053900  0.15710500  0.01729700  1
  H  H23  1  0.62801200  0.17252300  0.02928800  1
  H  H24  1  0.53441800  0.06660100  0.89367100  1
  H  H25  1  0.66090400  0.07598800  0.93821300  1
  H  H26  1  0.70452000  0.17899600  0.92795200  1
  H  H27  1  0.67504700  0.12249400  0.83935000  1
  H  H28  1  0.89746200  0.53354800  0.53228600  1
  H  H29  1  0.02694200  0.59724100  0.49806900  1
  H  H30  1  0.06634800  0.42982000  0.60526200  1
  H  H31  1  0.15710500  0.61656500  0.51729700  1
  H  H32  1  0.17252300  0.54451100  0.52928800  1
  H  H33  1  0.06660100  0.53218300  0.39367100  1
  H  H34  1  0.07598800  0.41508300  0.43821300  1
  H  H35  1  0.17899600  0.47447600  0.42795200  1
  H  H36  1  0.12249400  0.44744600  0.33935000  1
  H  H37  1  0.46645200  0.36391400  0.53228600  1
  H  H38  1  0.40275900  0.42970100  0.49806900  1
  H  H39  1  0.57018000  0.63652800  0.60526200  1
  H  H40  1  0.38343500  0.54053900  0.51729700  1
  H  H41  1  0.45548900  0.62801200  0.52928800  1
  H  H42  1  0.46781700  0.53441800  0.39367100  1
  H  H43  1  0.58491700  0.66090400  0.43821300  1
  H  H44  1  0.52552400  0.70452000  0.42795200  1
  H  H45  1  0.55255400  0.67504700  0.33935000  1
  H  H46  1  0.63608600  0.10253800  0.53228600  1
  H  H47  1  0.57029900  0.97305800  0.49806900  1
  H  H48  1  0.36347200  0.93365200  0.60526200  1
  H  H49  1  0.45946100  0.84289500  0.51729700  1
  H  H50  1  0.37198800  0.82747700  0.52928800  1
  H  H51  1  0.46558200  0.93339900  0.39367100  1
  H  H52  1  0.33909600  0.92401200  0.43821300  1
  H  H53  1  0.29548000  0.82100400  0.42795200  1
  H  H54  1  0.32495300  0.87750600  0.33935000  1
  Pd  Pd1  1  0.43769800  0.71757200  0.24930400  1
  Pd  Pd2  1  0.27986500  0.71757200  0.24930400  1
  Pd  Pd3  1  0.28144700  0.56290500  0.24594600  1
  Pd  Pd4  1  0.56230200  0.28242800  0.74930400  1
  Pd  Pd5  1  0.72013500  0.28242800  0.74930400  1
  Pd  Pd6  1  0.71855300  0.43709500  0.74594600  1
  C  C1  1  0.18194300  0.59097000  0.13848500  1
  C  C2  1  0.40901700  0.59097000  0.13848500  1
  C  C3  1  0.40541000  0.59183600  0.36141800  1
  C  C4  1  0.18641700  0.59183600  0.36141800  1
  C  C5  1  0.40826000  0.81653000  0.35745700  1
  C  C6  1  0.40893400  0.81787700  0.14273700  1
  C  C7  1  0.81805700  0.40903000  0.63848500  1
  C  C8  1  0.59098300  0.40903000  0.63848500  1
  C  C9  1  0.59459000  0.40816400  0.86141800  1
  C  C10  1  0.81358300  0.40816400  0.86141800  1
  C  C11  1  0.59174000  0.18347000  0.85745700  1
  C  C12  1  0.59106600  0.18212300  0.64273700  1
  C  C13  1  0.06969000  0.49080100  0.05384500  1
  C  C14  1  0.99588500  0.45519700  0.02953800  1
  C  C15  1  0.94754800  0.48363000  0.04281200  1
  C  C16  1  0.97016100  0.54595400  0.09563600  1
  C  C17  1  0.04606000  0.58166600  0.12523900  1
  C  C18  1  0.09798000  0.55365900  0.10468600  1
  C  C19  1  0.86940400  0.44308100  0.00326200  1
  C  C20  1  0.87798600  0.46397800  0.91288600  1
  C  C21  1  0.87910300  0.53781100  0.90136700  1
  C  C22  1  0.50919900  0.57888900  0.05384500  1
  C  C23  1  0.54480300  0.54068800  0.02953800  1
  C  C24  1  0.51637000  0.46391800  0.04281200  1
  C  C25  1  0.45404600  0.42420800  0.09563600  1
  C  C26  1  0.41833400  0.46439400  0.12523900  1
  C  C27  1  0.44634100  0.54432200  0.10468600  1
  C  C28  1  0.55691900  0.42632300  0.00326200  1
  C  C29  1  0.53602200  0.41400700  0.91288600  1
  C  C30  1  0.46218900  0.34129300  0.90136700  1
  C  C31  1  0.42111100  0.93031000  0.05384500  1
  C  C32  1  0.45931200  0.00411500  0.02953800  1
  C  C33  1  0.53608200  0.05245200  0.04281200  1
  C  C34  1  0.57579200  0.02983900  0.09563600  1
  C  C35  1  0.53560600  0.95394000  0.12523900  1
  C  C36  1  0.45567800  0.90202000  0.10468600  1
  C  C37  1  0.57367700  0.13059600  0.00326200  1
  C  C38  1  0.58599300  0.12201400  0.91288600  1
  C  C39  1  0.65870700  0.12089700  0.90136700  1
  C  C40  1  0.93031000  0.50919900  0.55384500  1
  C  C41  1  0.00411500  0.54480300  0.52953800  1
  C  C42  1  0.05245200  0.51637000  0.54281200  1
  C  C43  1  0.02983900  0.45404600  0.59563600  1
  C  C44  1  0.95394000  0.41833400  0.62523900  1
  C  C45  1  0.90202000  0.44634100  0.60468600  1
  C  C46  1  0.13059600  0.55691900  0.50326200  1
  C  C47  1  0.12201400  0.53602200  0.41288600  1
  C  C48  1  0.12089700  0.46218900  0.40136700  1
  C  C49  1  0.49080100  0.42111100  0.55384500  1
  C  C50  1  0.45519700  0.45931200  0.52953800  1
  C  C51  1  0.48363000  0.53608200  0.54281200  1
  C  C52  1  0.54595400  0.57579200  0.59563600  1
  C  C53  1  0.58166600  0.53560600  0.62523900  1
  C  C54  1  0.55365900  0.45567800  0.60468600  1
  C  C55  1  0.44308100  0.57367700  0.50326200  1
  C  C56  1  0.46397800  0.58599300  0.41288600  1
  C  C57  1  0.53781100  0.65870700  0.40136700  1
  C  C58  1  0.57888900  0.06969000  0.55384500  1
  C  C59  1  0.54068800  0.99588500  0.52953800  1
  C  C60  1  0.46391800  0.94754800  0.54281200  1
  C  C61  1  0.42420800  0.97016100  0.59563600  1
  C  C62  1  0.46439400  0.04606000  0.62523900  1
  C  C63  1  0.54432200  0.09798000  0.60468600  1
  C  C64  1  0.42632300  0.86940400  0.50326200  1
  C  C65  1  0.41400700  0.87798600  0.41288600  1
  C  C66  1  0.34129300  0.87910300  0.40136700  1
  Br  Br1  1  0.07484200  0.66788200  0.19720800  1
  Br  Br2  1  0.33211800  0.40696000  0.19720800  1
  Br  Br3  1  0.59304000  0.92515800  0.19720800  1
  Br  Br4  1  0.92515800  0.33211800  0.69720800  1
  Br  Br5  1  0.66788200  0.59304000  0.69720800  1
  Br  Br6  1  0.40696000  0.07484200  0.69720800  1
  O  O1  1  0.20666200  0.54852100  0.15924600  1
  O  O2  1  0.20413900  0.65708200  0.16351100  1
  O  O3  1  0.34184900  0.54852100  0.15924600  1
  O  O4  1  0.45293200  0.65708200  0.16351100  1
  O  O5  1  0.45128100  0.65721400  0.33644900  1
  O  O6  1  0.34057500  0.54968300  0.33393500  1
  O  O7  1  0.20592400  0.65721400  0.33644900  1
  O  O8  1  0.20909900  0.54968300  0.33393500  1
  O  O9  1  0.45096700  0.79237900  0.33473600  1
  O  O10  1  0.34140200  0.79237900  0.33473600  1
  O  O11  1  0.45134000  0.79322800  0.16447000  1
  O  O12  1  0.34187800  0.79322800  0.16447000  1
  O  O13  1  0.79333800  0.45147900  0.65924600  1
  O  O14  1  0.79586100  0.34291800  0.66351100  1
  O  O15  1  0.65815100  0.45147900  0.65924600  1
  O  O16  1  0.54706800  0.34291800  0.66351100  1
  O  O17  1  0.54871900  0.34278600  0.83644900  1
  O  O18  1  0.65942500  0.45031700  0.83393500  1
  O  O19  1  0.79407600  0.34278600  0.83644900  1
  O  O20  1  0.79090100  0.45031700  0.83393500  1
  O  O21  1  0.54903300  0.20762100  0.83473600  1
  O  O22  1  0.65859800  0.20762100  0.83473600  1
  O  O23  1  0.54866000  0.20677200  0.66447000  1
  O  O24  1  0.65812200  0.20677200  0.66447000  1
