# generated using pymatgen
data_CuH6C11N2O5
_symmetry_space_group_name_H-M   'P 1'
_cell_length_a   20.60920000
_cell_length_b   20.60920000
_cell_length_c   20.60920000
_cell_angle_alpha   90.00000000
_cell_angle_beta   90.00000000
_cell_angle_gamma   90.00000000
_symmetry_Int_Tables_number   1
_chemical_formula_structural   CuH6C11N2O5
_chemical_formula_sum   'Cu12 H72 C132 N24 O60'
_cell_volume   8753.53356753
_cell_formula_units_Z   12
loop_
 _symmetry_equiv_pos_site_id
 _symmetry_equiv_pos_as_xyz
  1  'x, y, z'
loop_
 _atom_site_type_symbol
 _atom_site_label
 _atom_site_symmetry_multiplicity
 _atom_site_fract_x
 _atom_site_fract_y
 _atom_site_fract_z
 _atom_site_occupancy
  Cu  Cu1  1  0.93558000  0.50000000  0.50000000  1
  Cu  Cu2  1  0.06442000  0.50000000  0.50000000  1
  Cu  Cu3  1  0.50000000  0.93558000  0.50000000  1
  Cu  Cu4  1  0.50000000  0.06442000  0.50000000  1
  Cu  Cu5  1  0.50000000  0.50000000  0.93558000  1
  Cu  Cu6  1  0.50000000  0.50000000  0.06442000  1
  Cu  Cu7  1  0.43558000  0.00000000  0.00000000  1
  Cu  Cu8  1  0.56442000  0.00000000  0.00000000  1
  Cu  Cu9  1  0.00000000  0.43558000  0.00000000  1
  Cu  Cu10  1  0.00000000  0.56442000  0.00000000  1
  Cu  Cu11  1  0.00000000  0.00000000  0.43558000  1
  Cu  Cu12  1  0.00000000  0.00000000  0.56442000  1
  H  H1  1  0.05836700  0.37554000  0.67907200  1
  H  H2  1  0.22232200  0.45277400  0.83297400  1
  H  H3  1  0.12802300  0.50820700  0.82751600  1
  H  H4  1  0.21632500  0.28367500  0.69253500  1
  H  H5  1  0.19639900  0.32842000  0.62326400  1
  H  H6  1  0.14035300  0.27565500  0.66018100  1
  H  H7  1  0.32092800  0.94163300  0.37554000  1
  H  H8  1  0.16702600  0.77767800  0.45277400  1
  H  H9  1  0.17248400  0.87197700  0.50820700  1
  H  H10  1  0.30746500  0.78367500  0.28367500  1
  H  H11  1  0.37673600  0.80360100  0.32842000  1
  H  H12  1  0.33981900  0.85964700  0.27565500  1
  H  H13  1  0.67907200  0.05836700  0.37554000  1
  H  H14  1  0.83297400  0.22232200  0.45277400  1
  H  H15  1  0.82751600  0.12802300  0.50820700  1
  H  H16  1  0.69253500  0.21632500  0.28367500  1
  H  H17  1  0.62326400  0.19639900  0.32842000  1
  H  H18  1  0.66018100  0.14035300  0.27565500  1
  H  H19  1  0.37554000  0.32092800  0.94163300  1
  H  H20  1  0.45277400  0.16702600  0.77767800  1
  H  H21  1  0.50820700  0.17248400  0.87197700  1
  H  H22  1  0.28367500  0.30746500  0.78367500  1
  H  H23  1  0.32842000  0.37673600  0.80360100  1
  H  H24  1  0.27565500  0.33981900  0.85964700  1
  H  H25  1  0.37554000  0.67907200  0.05836700  1
  H  H26  1  0.45277400  0.83297400  0.22232200  1
  H  H27  1  0.50820700  0.82751600  0.12802300  1
  H  H28  1  0.28367500  0.69253500  0.21632500  1
  H  H29  1  0.32842000  0.62326400  0.19639900  1
  H  H30  1  0.27565500  0.66018100  0.14035300  1
  H  H31  1  0.37554000  0.94163300  0.67907200  1
  H  H32  1  0.45277400  0.77767800  0.83297400  1
  H  H33  1  0.50820700  0.87197700  0.82751600  1
  H  H34  1  0.28367500  0.78367500  0.69253500  1
  H  H35  1  0.32842000  0.80360100  0.62326400  1
  H  H36  1  0.27565500  0.85964700  0.66018100  1
  H  H37  1  0.37554000  0.05836700  0.32092800  1
  H  H38  1  0.45277400  0.22232200  0.16702600  1
  H  H39  1  0.50820700  0.12802300  0.17248400  1
  H  H40  1  0.28367500  0.21632500  0.30746500  1
  H  H41  1  0.32842000  0.19639900  0.37673600  1
  H  H42  1  0.27565500  0.14035300  0.33981900  1
  H  H43  1  0.94163300  0.32092800  0.62446000  1
  H  H44  1  0.77767800  0.16702600  0.54722600  1
  H  H45  1  0.87197700  0.17248400  0.49179300  1
  H  H46  1  0.78367500  0.30746500  0.71632500  1
  H  H47  1  0.80360100  0.37673600  0.67158000  1
  H  H48  1  0.85964700  0.33981900  0.72434500  1
  H  H49  1  0.05836700  0.67907200  0.62446000  1
  H  H50  1  0.22232200  0.83297400  0.54722600  1
  H  H51  1  0.12802300  0.82751600  0.49179300  1
  H  H52  1  0.21632500  0.69253500  0.71632500  1
  H  H53  1  0.19639900  0.62326400  0.67158000  1
  H  H54  1  0.14035300  0.66018100  0.72434500  1
  H  H55  1  0.32092800  0.37554000  0.05836700  1
  H  H56  1  0.16702600  0.45277400  0.22232200  1
  H  H57  1  0.17248400  0.50820700  0.12802300  1
  H  H58  1  0.30746500  0.28367500  0.21632500  1
  H  H59  1  0.37673600  0.32842000  0.19639900  1
  H  H60  1  0.33981900  0.27565500  0.14035300  1
  H  H61  1  0.67907200  0.37554000  0.94163300  1
  H  H62  1  0.83297400  0.45277400  0.77767800  1
  H  H63  1  0.82751600  0.50820700  0.87197700  1
  H  H64  1  0.69253500  0.28367500  0.78367500  1
  H  H65  1  0.62326400  0.32842000  0.80360100  1
  H  H66  1  0.66018100  0.27565500  0.85964700  1
  H  H67  1  0.94163300  0.37554000  0.32092800  1
  H  H68  1  0.77767800  0.45277400  0.16702600  1
  H  H69  1  0.87197700  0.50820700  0.17248400  1
  H  H70  1  0.78367500  0.28367500  0.30746500  1
  H  H71  1  0.80360100  0.32842000  0.37673600  1
  H  H72  1  0.85964700  0.27565500  0.33981900  1
  C  C1  1  0.01077100  0.50716300  0.19671500  1
  C  C2  1  0.07817600  0.44478800  0.75310400  1
  C  C3  1  0.09505000  0.39444000  0.70957700  1
  C  C4  1  0.15674900  0.36354100  0.71458200  1
  C  C5  1  0.18559500  0.43151300  0.79843900  1
  C  C6  1  0.12762400  0.46600700  0.79709900  1
  C  C7  1  0.17988700  0.31186400  0.67089500  1
  C  C8  1  0.00000000  0.62237100  0.50000000  1
  C  C9  1  0.01945400  0.48037500  0.74901100  1
  C  C10  1  0.98280800  0.50522200  0.69529600  1
  C  C11  1  0.98922900  0.50716300  0.80328500  1
  C  C12  1  0.24689600  0.92182400  0.44478800  1
  C  C13  1  0.29042300  0.90495000  0.39444000  1
  C  C14  1  0.28541800  0.84325100  0.36354100  1
  C  C15  1  0.20156100  0.81440500  0.43151300  1
  C  C16  1  0.20290100  0.87237600  0.46600700  1
  C  C17  1  0.32910500  0.82011300  0.31186400  1
  C  C18  1  0.25098900  0.98054600  0.48037500  1
  C  C19  1  0.30470400  0.01719200  0.50522200  1
  C  C20  1  0.19671500  0.01077100  0.50716300  1
  C  C21  1  0.75310400  0.07817600  0.44478800  1
  C  C22  1  0.70957700  0.09505000  0.39444000  1
  C  C23  1  0.71458200  0.15674900  0.36354100  1
  C  C24  1  0.79843900  0.18559500  0.43151300  1
  C  C25  1  0.79709900  0.12762400  0.46600700  1
  C  C26  1  0.67089500  0.17988700  0.31186400  1
  C  C27  1  0.74901100  0.01945400  0.48037500  1
  C  C28  1  0.69529600  0.98280800  0.50522200  1
  C  C29  1  0.80328500  0.98922900  0.50716300  1
  C  C30  1  0.44478800  0.24689600  0.92182400  1
  C  C31  1  0.39444000  0.29042300  0.90495000  1
  C  C32  1  0.36354100  0.28541800  0.84325100  1
  C  C33  1  0.37762900  0.00000000  0.50000000  1
  C  C34  1  0.43151300  0.20156100  0.81440500  1
  C  C35  1  0.46600700  0.20290100  0.87237600  1
  C  C36  1  0.31186400  0.32910500  0.82011300  1
  C  C37  1  0.48037500  0.25098900  0.98054600  1
  C  C38  1  0.50522200  0.30470400  0.01719200  1
  C  C39  1  0.50716300  0.19671500  0.01077100  1
  C  C40  1  0.44478800  0.75310400  0.07817600  1
  C  C41  1  0.39444000  0.70957700  0.09505000  1
  C  C42  1  0.36354100  0.71458200  0.15674900  1
  C  C43  1  0.43151300  0.79843900  0.18559500  1
  C  C44  1  0.46600700  0.79709900  0.12762400  1
  C  C45  1  0.31186400  0.67089500  0.17988700  1
  C  C46  1  0.48037500  0.74901100  0.01945400  1
  C  C47  1  0.50522200  0.69529600  0.98280800  1
  C  C48  1  0.50000000  0.00000000  0.37762900  1
  C  C49  1  0.50716300  0.80328500  0.98922900  1
  C  C50  1  0.44478800  0.92182400  0.75310400  1
  C  C51  1  0.39444000  0.90495000  0.70957700  1
  C  C52  1  0.36354100  0.84325100  0.71458200  1
  C  C53  1  0.43151300  0.81440500  0.79843900  1
  C  C54  1  0.46600700  0.87237600  0.79709900  1
  C  C55  1  0.31186400  0.82011300  0.67089500  1
  C  C56  1  0.00000000  0.50000000  0.37762900  1
  C  C57  1  0.48037500  0.98054600  0.74901100  1
  C  C58  1  0.50522200  0.01719200  0.69529600  1
  C  C59  1  0.50716300  0.01077100  0.80328500  1
  C  C60  1  0.44478800  0.07817600  0.24689600  1
  C  C61  1  0.39444000  0.09505000  0.29042300  1
  C  C62  1  0.36354100  0.15674900  0.28541800  1
  C  C63  1  0.43151300  0.18559500  0.20156100  1
  C  C64  1  0.46600700  0.12762400  0.20290100  1
  C  C65  1  0.31186400  0.17988700  0.32910500  1
  C  C66  1  0.62237100  0.00000000  0.50000000  1
  C  C67  1  0.48037500  0.01945400  0.25098900  1
  C  C68  1  0.50522200  0.98280800  0.30470400  1
  C  C69  1  0.50716300  0.98922900  0.19671500  1
  C  C70  1  0.92182400  0.24689600  0.55521200  1
  C  C71  1  0.90495000  0.29042300  0.60556000  1
  C  C72  1  0.84325100  0.28541800  0.63645900  1
  C  C73  1  0.81440500  0.20156100  0.56848700  1
  C  C74  1  0.87237600  0.20290100  0.53399300  1
  C  C75  1  0.82011300  0.32910500  0.68813600  1
  C  C76  1  0.98054600  0.25098900  0.51962500  1
  C  C77  1  0.01719200  0.30470400  0.49477800  1
  C  C78  1  0.01077100  0.19671500  0.49283700  1
  C  C79  1  0.07817600  0.75310400  0.55521200  1
  C  C80  1  0.09505000  0.70957700  0.60556000  1
  C  C81  1  0.15674900  0.71458200  0.63645900  1
  C  C82  1  0.50000000  0.00000000  0.62237100  1
  C  C83  1  0.18559500  0.79843900  0.56848700  1
  C  C84  1  0.12762400  0.79709900  0.53399300  1
  C  C85  1  0.17988700  0.67089500  0.68813600  1
  C  C86  1  0.01945400  0.74901100  0.51962500  1
  C  C87  1  0.98280800  0.69529600  0.49477800  1
  C  C88  1  0.98922900  0.80328500  0.49283700  1
  C  C89  1  0.24689600  0.44478800  0.07817600  1
  C  C90  1  0.29042300  0.39444000  0.09505000  1
  C  C91  1  0.28541800  0.36354100  0.15674900  1
  C  C92  1  0.20156100  0.43151300  0.18559500  1
  C  C93  1  0.20290100  0.46600700  0.12762400  1
  C  C94  1  0.32910500  0.31186400  0.17988700  1
  C  C95  1  0.25098900  0.48037500  0.01945400  1
  C  C96  1  0.30470400  0.50522200  0.98280800  1
  C  C97  1  0.19671500  0.50716300  0.98922900  1
  C  C98  1  0.75310400  0.44478800  0.92182400  1
  C  C99  1  0.70957700  0.39444000  0.90495000  1
  C  C100  1  0.71458200  0.36354100  0.84325100  1
  C  C101  1  0.79843900  0.43151300  0.81440500  1
  C  C102  1  0.79709900  0.46600700  0.87237600  1
  C  C103  1  0.67089500  0.31186400  0.82011300  1
  C  C104  1  0.74901100  0.48037500  0.98054600  1
  C  C105  1  0.69529600  0.50522200  0.01719200  1
  C  C106  1  0.80328500  0.50716300  0.01077100  1
  C  C107  1  0.50000000  0.37762900  0.00000000  1
  C  C108  1  0.37762900  0.50000000  0.00000000  1
  C  C109  1  0.50000000  0.62237100  0.00000000  1
  C  C110  1  0.62237100  0.50000000  0.00000000  1
  C  C111  1  0.50000000  0.00000000  0.87762900  1
  C  C112  1  0.50000000  0.87762900  0.00000000  1
  C  C113  1  0.00000000  0.37762900  0.50000000  1
  C  C114  1  0.50000000  0.00000000  0.12237100  1
  C  C115  1  0.50000000  0.12237100  0.00000000  1
  C  C116  1  0.87762900  0.50000000  0.00000000  1
  C  C117  1  0.00000000  0.50000000  0.87762900  1
  C  C118  1  0.12237100  0.50000000  0.00000000  1
  C  C119  1  0.00000000  0.50000000  0.12237100  1
  C  C120  1  0.00000000  0.87762900  0.50000000  1
  C  C121  1  0.87762900  0.00000000  0.50000000  1
  C  C122  1  0.00000000  0.12237100  0.50000000  1
  C  C123  1  0.00000000  0.50000000  0.62237100  1
  C  C124  1  0.12237100  0.00000000  0.50000000  1
  C  C125  1  0.92182400  0.44478800  0.24689600  1
  C  C126  1  0.90495000  0.39444000  0.29042300  1
  C  C127  1  0.84325100  0.36354100  0.28541800  1
  C  C128  1  0.81440500  0.43151300  0.20156100  1
  C  C129  1  0.87237600  0.46600700  0.20290100  1
  C  C130  1  0.82011300  0.31186400  0.32910500  1
  C  C131  1  0.98054600  0.48037500  0.25098900  1
  C  C132  1  0.01719200  0.50522200  0.30470400  1
  N  N1  1  0.20167700  0.38309500  0.75889800  1
  N  N2  1  0.93446800  0.54345400  0.71606900  1
  N  N3  1  0.24110200  0.79832300  0.38309500  1
  N  N4  1  0.28393100  0.06553200  0.54345400  1
  N  N5  1  0.75889800  0.20167700  0.38309500  1
  N  N6  1  0.71606900  0.93446800  0.54345400  1
  N  N7  1  0.38309500  0.24110200  0.79832300  1
  N  N8  1  0.54345400  0.28393100  0.06553200  1
  N  N9  1  0.38309500  0.75889800  0.20167700  1
  N  N10  1  0.54345400  0.71606900  0.93446800  1
  N  N11  1  0.38309500  0.79832300  0.75889800  1
  N  N12  1  0.54345400  0.06553200  0.71606900  1
  N  N13  1  0.38309500  0.20167700  0.24110200  1
  N  N14  1  0.54345400  0.93446800  0.28393100  1
  N  N15  1  0.79832300  0.24110200  0.61690500  1
  N  N16  1  0.06553200  0.28393100  0.45654600  1
  N  N17  1  0.20167700  0.75889800  0.61690500  1
  N  N18  1  0.93446800  0.71606900  0.45654600  1
  N  N19  1  0.24110200  0.38309500  0.20167700  1
  N  N20  1  0.28393100  0.54345400  0.93446800  1
  N  N21  1  0.75889800  0.38309500  0.79832300  1
  N  N22  1  0.71606900  0.54345400  0.06553200  1
  N  N23  1  0.79832300  0.38309500  0.24110200  1
  N  N24  1  0.06553200  0.54345400  0.28393100  1
  O  O1  1  0.94873400  0.50000000  0.59277200  1
  O  O2  1  0.05802400  0.54726500  0.21883300  1
  O  O3  1  0.94197600  0.54726500  0.78116700  1
  O  O4  1  0.05126600  0.59277200  0.50000000  1
  O  O5  1  0.94873400  0.59277200  0.50000000  1
  O  O6  1  0.21883300  0.05802400  0.54726500  1
  O  O7  1  0.78116700  0.94197600  0.54726500  1
  O  O8  1  0.40722800  0.05126600  0.50000000  1
  O  O9  1  0.54726500  0.21883300  0.05802400  1
  O  O10  1  0.40722800  0.94873400  0.50000000  1
  O  O11  1  0.54726500  0.78116700  0.94197600  1
  O  O12  1  0.50000000  0.05126600  0.40722800  1
  O  O13  1  0.54726500  0.05802400  0.78116700  1
  O  O14  1  0.50000000  0.94873400  0.40722800  1
  O  O15  1  0.54726500  0.94197600  0.21883300  1
  O  O16  1  0.59277200  0.05126600  0.50000000  1
  O  O17  1  0.59277200  0.94873400  0.50000000  1
  O  O18  1  0.05802400  0.21883300  0.45273500  1
  O  O19  1  0.50000000  0.05126600  0.59277200  1
  O  O20  1  0.94197600  0.78116700  0.45273500  1
  O  O21  1  0.50000000  0.94873400  0.59277200  1
  O  O22  1  0.21883300  0.54726500  0.94197600  1
  O  O23  1  0.78116700  0.54726500  0.05802400  1
  O  O24  1  0.05126600  0.50000000  0.40722800  1
  O  O25  1  0.50000000  0.40722800  0.05126600  1
  O  O26  1  0.50000000  0.40722800  0.94873400  1
  O  O27  1  0.40722800  0.50000000  0.05126600  1
  O  O28  1  0.40722800  0.50000000  0.94873400  1
  O  O29  1  0.50000000  0.59277200  0.05126600  1
  O  O30  1  0.50000000  0.59277200  0.94873400  1
  O  O31  1  0.94873400  0.50000000  0.40722800  1
  O  O32  1  0.59277200  0.50000000  0.05126600  1
  O  O33  1  0.59277200  0.50000000  0.94873400  1
  O  O34  1  0.55126600  0.00000000  0.90722800  1
  O  O35  1  0.44873400  0.00000000  0.90722800  1
  O  O36  1  0.55126600  0.90722800  0.00000000  1
  O  O37  1  0.44873400  0.90722800  0.00000000  1
  O  O38  1  0.55126600  0.00000000  0.09277200  1
  O  O39  1  0.44873400  0.00000000  0.09277200  1
  O  O40  1  0.55126600  0.09277200  0.00000000  1
  O  O41  1  0.44873400  0.09277200  0.00000000  1
  O  O42  1  0.90722800  0.55126600  0.00000000  1
  O  O43  1  0.05126600  0.40722800  0.50000000  1
  O  O44  1  0.90722800  0.44873400  0.00000000  1
  O  O45  1  0.00000000  0.55126600  0.90722800  1
  O  O46  1  0.00000000  0.44873400  0.90722800  1
  O  O47  1  0.09277200  0.55126600  0.00000000  1
  O  O48  1  0.09277200  0.44873400  0.00000000  1
  O  O49  1  0.00000000  0.55126600  0.09277200  1
  O  O50  1  0.00000000  0.44873400  0.09277200  1
  O  O51  1  0.94873400  0.40722800  0.50000000  1
  O  O52  1  0.00000000  0.90722800  0.55126600  1
  O  O53  1  0.00000000  0.90722800  0.44873400  1
  O  O54  1  0.90722800  0.00000000  0.55126600  1
  O  O55  1  0.90722800  0.00000000  0.44873400  1
  O  O56  1  0.00000000  0.09277200  0.55126600  1
  O  O57  1  0.00000000  0.09277200  0.44873400  1
  O  O58  1  0.09277200  0.00000000  0.55126600  1
  O  O59  1  0.09277200  0.00000000  0.44873400  1
  O  O60  1  0.05126600  0.50000000  0.59277200  1
