# generated using pymatgen
data_CuH7C14SBrO6
_symmetry_space_group_name_H-M   'P 1'
_cell_length_a   22.44550000
_cell_length_b   22.44550000
_cell_length_c   22.44550000
_cell_angle_alpha   90.00000000
_cell_angle_beta   90.00000000
_cell_angle_gamma   90.00000000
_symmetry_Int_Tables_number   1
_chemical_formula_structural   CuH7C14SBrO6
_chemical_formula_sum   'Cu12 H84 C168 S12 Br12 O72'
_cell_volume   11308.05345500
_cell_formula_units_Z   12
loop_
 _symmetry_equiv_pos_site_id
 _symmetry_equiv_pos_as_xyz
  1  'x, y, z'
loop_
 _atom_site_type_symbol
 _atom_site_label
 _atom_site_symmetry_multiplicity
 _atom_site_fract_x
 _atom_site_fract_y
 _atom_site_fract_z
 _atom_site_occupancy
  Cu  Cu1  1  0.94085000  0.50000000  0.50000000  1
  Cu  Cu2  1  0.05915000  0.50000000  0.50000000  1
  Cu  Cu3  1  0.50000000  0.94085000  0.50000000  1
  Cu  Cu4  1  0.50000000  0.05915000  0.50000000  1
  Cu  Cu5  1  0.50000000  0.50000000  0.94085000  1
  Cu  Cu6  1  0.50000000  0.50000000  0.05915000  1
  Cu  Cu7  1  0.44085000  0.00000000  0.00000000  1
  Cu  Cu8  1  0.55915000  0.00000000  0.00000000  1
  Cu  Cu9  1  0.00000000  0.44085000  0.00000000  1
  Cu  Cu10  1  0.00000000  0.55915000  0.00000000  1
  Cu  Cu11  1  0.00000000  0.00000000  0.44085000  1
  Cu  Cu12  1  0.00000000  0.00000000  0.55915000  1
  H  H1  1  0.26363700  0.23636300  0.83524700  1
  H  H2  1  0.23648800  0.27558300  0.90082100  1
  H  H3  1  0.18712200  0.26130600  0.84389000  1
  H  H4  1  0.26392500  0.32483300  0.77691600  1
  H  H5  1  0.29255800  0.34354200  0.84409000  1
  H  H6  1  0.23118100  0.42027200  0.91383100  1
  H  H7  1  0.11961800  0.48732800  0.90125000  1
  H  H8  1  0.16475300  0.73636300  0.23636300  1
  H  H9  1  0.09917900  0.76351200  0.27558300  1
  H  H10  1  0.15611000  0.81287800  0.26130600  1
  H  H11  1  0.22308400  0.73607500  0.32483300  1
  H  H12  1  0.15591000  0.70744200  0.34354200  1
  H  H13  1  0.08616900  0.76881900  0.42027200  1
  H  H14  1  0.09875000  0.88038200  0.48732800  1
  H  H15  1  0.83524700  0.26363700  0.23636300  1
  H  H16  1  0.90082100  0.23648800  0.27558300  1
  H  H17  1  0.84389000  0.18712200  0.26130600  1
  H  H18  1  0.77691600  0.26392500  0.32483300  1
  H  H19  1  0.84409000  0.29255800  0.34354200  1
  H  H20  1  0.91383100  0.23118100  0.42027200  1
  H  H21  1  0.90125000  0.11961800  0.48732800  1
  H  H22  1  0.23636300  0.16475300  0.73636300  1
  H  H23  1  0.27558300  0.09917900  0.76351200  1
  H  H24  1  0.26130600  0.15611000  0.81287800  1
  H  H25  1  0.32483300  0.22308400  0.73607500  1
  H  H26  1  0.34354200  0.15591000  0.70744200  1
  H  H27  1  0.42027200  0.08616900  0.76881900  1
  H  H28  1  0.48732800  0.09875000  0.88038200  1
  H  H29  1  0.23636300  0.83524700  0.26363700  1
  H  H30  1  0.27558300  0.90082100  0.23648800  1
  H  H31  1  0.26130600  0.84389000  0.18712200  1
  H  H32  1  0.32483300  0.77691600  0.26392500  1
  H  H33  1  0.34354200  0.84409000  0.29255800  1
  H  H34  1  0.42027200  0.91383100  0.23118100  1
  H  H35  1  0.48732800  0.90125000  0.11961800  1
  H  H36  1  0.23636300  0.73636300  0.83524700  1
  H  H37  1  0.27558300  0.76351200  0.90082100  1
  H  H38  1  0.26130600  0.81287800  0.84389000  1
  H  H39  1  0.32483300  0.73607500  0.77691600  1
  H  H40  1  0.34354200  0.70744200  0.84409000  1
  H  H41  1  0.42027200  0.76881900  0.91383100  1
  H  H42  1  0.48732800  0.88038200  0.90125000  1
  H  H43  1  0.23636300  0.26363700  0.16475300  1
  H  H44  1  0.27558300  0.23648800  0.09917900  1
  H  H45  1  0.26130600  0.18712200  0.15611000  1
  H  H46  1  0.32483300  0.26392500  0.22308400  1
  H  H47  1  0.34354200  0.29255800  0.15591000  1
  H  H48  1  0.42027200  0.23118100  0.08616900  1
  H  H49  1  0.48732800  0.11961800  0.09875000  1
  H  H50  1  0.73636300  0.16475300  0.76363700  1
  H  H51  1  0.76351200  0.09917900  0.72441700  1
  H  H52  1  0.81287800  0.15611000  0.73869400  1
  H  H53  1  0.73607500  0.22308400  0.67516700  1
  H  H54  1  0.70744200  0.15591000  0.65645800  1
  H  H55  1  0.76881900  0.08616900  0.57972800  1
  H  H56  1  0.88038200  0.09875000  0.51267200  1
  H  H57  1  0.26363700  0.83524700  0.76363700  1
  H  H58  1  0.23648800  0.90082100  0.72441700  1
  H  H59  1  0.18712200  0.84389000  0.73869400  1
  H  H60  1  0.26392500  0.77691600  0.67516700  1
  H  H61  1  0.29255800  0.84409000  0.65645800  1
  H  H62  1  0.23118100  0.91383100  0.57972800  1
  H  H63  1  0.11961800  0.90125000  0.51267200  1
  H  H64  1  0.16475300  0.23636300  0.26363700  1
  H  H65  1  0.09917900  0.27558300  0.23648800  1
  H  H66  1  0.15611000  0.26130600  0.18712200  1
  H  H67  1  0.22308400  0.32483300  0.26392500  1
  H  H68  1  0.15591000  0.34354200  0.29255800  1
  H  H69  1  0.08616900  0.42027200  0.23118100  1
  H  H70  1  0.09875000  0.48732800  0.11961800  1
  H  H71  1  0.83524700  0.23636300  0.73636300  1
  H  H72  1  0.90082100  0.27558300  0.76351200  1
  H  H73  1  0.84389000  0.26130600  0.81287800  1
  H  H74  1  0.77691600  0.32483300  0.73607500  1
  H  H75  1  0.84409000  0.34354200  0.70744200  1
  H  H76  1  0.91383100  0.42027200  0.76881900  1
  H  H77  1  0.90125000  0.48732800  0.88038200  1
  H  H78  1  0.73636300  0.23636300  0.16475300  1
  H  H79  1  0.76351200  0.27558300  0.09917900  1
  H  H80  1  0.81287800  0.26130600  0.15611000  1
  H  H81  1  0.73607500  0.32483300  0.22308400  1
  H  H82  1  0.70744200  0.34354200  0.15591000  1
  H  H83  1  0.76881900  0.42027200  0.08616900  1
  H  H84  1  0.88038200  0.48732800  0.09875000  1
  C  C1  1  0.03501600  0.53852800  0.21971600  1
  C  C2  1  0.04205400  0.53694900  0.29000200  1
  C  C3  1  0.00334100  0.50485500  0.32127700  1
  C  C4  1  0.95648300  0.47308200  0.28334900  1
  C  C5  1  0.23195800  0.27261200  0.85239900  1
  C  C6  1  0.25040400  0.32998600  0.82201700  1
  C  C7  1  0.20502000  0.37789100  0.83101800  1
  C  C8  1  0.00000000  0.61235900  0.50000000  1
  C  C9  1  0.19565200  0.41883200  0.87882400  1
  C  C10  1  0.13983400  0.45429800  0.87231900  1
  C  C11  1  0.11654300  0.44094000  0.81786000  1
  C  C12  1  0.05413600  0.47249100  0.78528800  1
  C  C13  1  0.01146500  0.50215200  0.81687500  1
  C  C14  1  0.96498400  0.53852800  0.78028400  1
  C  C15  1  0.95794600  0.53694900  0.70999800  1
  C  C16  1  0.99665900  0.50485500  0.67872300  1
  C  C17  1  0.04351700  0.47308200  0.71665100  1
  C  C18  1  0.14760100  0.76804200  0.27261200  1
  C  C19  1  0.17798300  0.74959600  0.32998600  1
  C  C20  1  0.16898200  0.79498000  0.37789100  1
  C  C21  1  0.12117600  0.80434800  0.41883200  1
  C  C22  1  0.12768100  0.86016600  0.45429800  1
  C  C23  1  0.18214000  0.88345700  0.44094000  1
  C  C24  1  0.21471200  0.94586400  0.47249100  1
  C  C25  1  0.18312500  0.98853500  0.50215200  1
  C  C26  1  0.21971600  0.03501600  0.53852800  1
  C  C27  1  0.29000200  0.04205400  0.53694900  1
  C  C28  1  0.32127700  0.00334100  0.50485500  1
  C  C29  1  0.28334900  0.95648300  0.47308200  1
  C  C30  1  0.85239900  0.23195800  0.27261200  1
  C  C31  1  0.82201700  0.25040400  0.32998600  1
  C  C32  1  0.83101800  0.20502000  0.37789100  1
  C  C33  1  0.87882400  0.19565200  0.41883200  1
  C  C34  1  0.87231900  0.13983400  0.45429800  1
  C  C35  1  0.81786000  0.11654300  0.44094000  1
  C  C36  1  0.38764100  0.00000000  0.50000000  1
  C  C37  1  0.78528800  0.05413600  0.47249100  1
  C  C38  1  0.81687500  0.01146500  0.50215200  1
  C  C39  1  0.78028400  0.96498400  0.53852800  1
  C  C40  1  0.70999800  0.95794600  0.53694900  1
  C  C41  1  0.67872300  0.99665900  0.50485500  1
  C  C42  1  0.71665100  0.04351700  0.47308200  1
  C  C43  1  0.27261200  0.14760100  0.76804200  1
  C  C44  1  0.32998600  0.17798300  0.74959600  1
  C  C45  1  0.37789100  0.16898200  0.79498000  1
  C  C46  1  0.41883200  0.12117600  0.80434800  1
  C  C47  1  0.45429800  0.12768100  0.86016600  1
  C  C48  1  0.44094000  0.18214000  0.88345700  1
  C  C49  1  0.50000000  0.00000000  0.38764100  1
  C  C50  1  0.47249100  0.21471200  0.94586400  1
  C  C51  1  0.50215200  0.18312500  0.98853500  1
  C  C52  1  0.53852800  0.21971600  0.03501600  1
  C  C53  1  0.53694900  0.29000200  0.04205400  1
  C  C54  1  0.50485500  0.32127700  0.00334100  1
  C  C55  1  0.47308200  0.28334900  0.95648300  1
  C  C56  1  0.27261200  0.85239900  0.23195800  1
  C  C57  1  0.00000000  0.50000000  0.38764100  1
  C  C58  1  0.32998600  0.82201700  0.25040400  1
  C  C59  1  0.37789100  0.83101800  0.20502000  1
  C  C60  1  0.41883200  0.87882400  0.19565200  1
  C  C61  1  0.45429800  0.87231900  0.13983400  1
  C  C62  1  0.44094000  0.81786000  0.11654300  1
  C  C63  1  0.47249100  0.78528800  0.05413600  1
  C  C64  1  0.50215200  0.81687500  0.01146500  1
  C  C65  1  0.53852800  0.78028400  0.96498400  1
  C  C66  1  0.53694900  0.70999800  0.95794600  1
  C  C67  1  0.50485500  0.67872300  0.99665900  1
  C  C68  1  0.47308200  0.71665100  0.04351700  1
  C  C69  1  0.61235900  0.00000000  0.50000000  1
  C  C70  1  0.27261200  0.76804200  0.85239900  1
  C  C71  1  0.32998600  0.74959600  0.82201700  1
  C  C72  1  0.37789100  0.79498000  0.83101800  1
  C  C73  1  0.41883200  0.80434800  0.87882400  1
  C  C74  1  0.45429800  0.86016600  0.87231900  1
  C  C75  1  0.44094000  0.88345700  0.81786000  1
  C  C76  1  0.47249100  0.94586400  0.78528800  1
  C  C77  1  0.50215200  0.98853500  0.81687500  1
  C  C78  1  0.53852800  0.03501600  0.78028400  1
  C  C79  1  0.53694900  0.04205400  0.70999800  1
  C  C80  1  0.50485500  0.00334100  0.67872300  1
  C  C81  1  0.47308200  0.95648300  0.71665100  1
  C  C82  1  0.27261200  0.23195800  0.14760100  1
  C  C83  1  0.32998600  0.25040400  0.17798300  1
  C  C84  1  0.37789100  0.20502000  0.16898200  1
  C  C85  1  0.41883200  0.19565200  0.12117600  1
  C  C86  1  0.45429800  0.13983400  0.12768100  1
  C  C87  1  0.50000000  0.00000000  0.61235900  1
  C  C88  1  0.44094000  0.11654300  0.18214000  1
  C  C89  1  0.47249100  0.05413600  0.21471200  1
  C  C90  1  0.50215200  0.01146500  0.18312500  1
  C  C91  1  0.53852800  0.96498400  0.21971600  1
  C  C92  1  0.53694900  0.95794600  0.29000200  1
  C  C93  1  0.50485500  0.99665900  0.32127700  1
  C  C94  1  0.47308200  0.04351700  0.28334900  1
  C  C95  1  0.76804200  0.14760100  0.72738800  1
  C  C96  1  0.74959600  0.17798300  0.67001400  1
  C  C97  1  0.79498000  0.16898200  0.62210900  1
  C  C98  1  0.80434800  0.12117600  0.58116800  1
  C  C99  1  0.86016600  0.12768100  0.54570200  1
  C  C100  1  0.88345700  0.18214000  0.55906000  1
  C  C101  1  0.94586400  0.21471200  0.52750900  1
  C  C102  1  0.98853500  0.18312500  0.49784800  1
  C  C103  1  0.03501600  0.21971600  0.46147200  1
  C  C104  1  0.04205400  0.29000200  0.46305100  1
  C  C105  1  0.00334100  0.32127700  0.49514500  1
  C  C106  1  0.95648300  0.28334900  0.52691800  1
  C  C107  1  0.23195800  0.85239900  0.72738800  1
  C  C108  1  0.25040400  0.82201700  0.67001400  1
  C  C109  1  0.20502000  0.83101800  0.62210900  1
  C  C110  1  0.19565200  0.87882400  0.58116800  1
  C  C111  1  0.13983400  0.87231900  0.54570200  1
  C  C112  1  0.11654300  0.81786000  0.55906000  1
  C  C113  1  0.50000000  0.38764100  0.00000000  1
  C  C114  1  0.05413600  0.78528800  0.52750900  1
  C  C115  1  0.01146500  0.81687500  0.49784800  1
  C  C116  1  0.96498400  0.78028400  0.46147200  1
  C  C117  1  0.95794600  0.70999800  0.46305100  1
  C  C118  1  0.99665900  0.67872300  0.49514500  1
  C  C119  1  0.04351700  0.71665100  0.52691800  1
  C  C120  1  0.14760100  0.27261200  0.23195800  1
  C  C121  1  0.17798300  0.32998600  0.25040400  1
  C  C122  1  0.16898200  0.37789100  0.20502000  1
  C  C123  1  0.12117600  0.41883200  0.19565200  1
  C  C124  1  0.12768100  0.45429800  0.13983400  1
  C  C125  1  0.18214000  0.44094000  0.11654300  1
  C  C126  1  0.21471200  0.47249100  0.05413600  1
  C  C127  1  0.18312500  0.50215200  0.01146500  1
  C  C128  1  0.38764100  0.50000000  0.00000000  1
  C  C129  1  0.21971600  0.53852800  0.96498400  1
  C  C130  1  0.29000200  0.53694900  0.95794600  1
  C  C131  1  0.32127700  0.50485500  0.99665900  1
  C  C132  1  0.28334900  0.47308200  0.04351700  1
  C  C133  1  0.85239900  0.27261200  0.76804200  1
  C  C134  1  0.82201700  0.32998600  0.74959600  1
  C  C135  1  0.83101800  0.37789100  0.79498000  1
  C  C136  1  0.87882400  0.41883200  0.80434800  1
  C  C137  1  0.87231900  0.45429800  0.86016600  1
  C  C138  1  0.81786000  0.44094000  0.88345700  1
  C  C139  1  0.78528800  0.47249100  0.94586400  1
  C  C140  1  0.81687500  0.50215200  0.98853500  1
  C  C141  1  0.78028400  0.53852800  0.03501600  1
  C  C142  1  0.70999800  0.53694900  0.04205400  1
  C  C143  1  0.67872300  0.50485500  0.00334100  1
  C  C144  1  0.71665100  0.47308200  0.95648300  1
  C  C145  1  0.50000000  0.61235900  0.00000000  1
  C  C146  1  0.61235900  0.50000000  0.00000000  1
  C  C147  1  0.50000000  0.00000000  0.88764100  1
  C  C148  1  0.50000000  0.88764100  0.00000000  1
  C  C149  1  0.00000000  0.38764100  0.50000000  1
  C  C150  1  0.50000000  0.00000000  0.11235900  1
  C  C151  1  0.50000000  0.11235900  0.00000000  1
  C  C152  1  0.88764100  0.50000000  0.00000000  1
  C  C153  1  0.00000000  0.50000000  0.88764100  1
  C  C154  1  0.11235900  0.50000000  0.00000000  1
  C  C155  1  0.00000000  0.50000000  0.11235900  1
  C  C156  1  0.00000000  0.88764100  0.50000000  1
  C  C157  1  0.88764100  0.00000000  0.50000000  1
  C  C158  1  0.00000000  0.11235900  0.50000000  1
  C  C159  1  0.00000000  0.50000000  0.61235900  1
  C  C160  1  0.11235900  0.00000000  0.50000000  1
  C  C161  1  0.76804200  0.27261200  0.14760100  1
  C  C162  1  0.74959600  0.32998600  0.17798300  1
  C  C163  1  0.79498000  0.37789100  0.16898200  1
  C  C164  1  0.80434800  0.41883200  0.12117600  1
  C  C165  1  0.86016600  0.45429800  0.12768100  1
  C  C166  1  0.88345700  0.44094000  0.18214000  1
  C  C167  1  0.94586400  0.47249100  0.21471200  1
  C  C168  1  0.98853500  0.50215200  0.18312500  1
  S  S1  1  0.15604500  0.38903900  0.77635100  1
  S  S2  1  0.22364900  0.84395500  0.38903900  1
  S  S3  1  0.77635100  0.15604500  0.38903900  1
  S  S4  1  0.38903900  0.22364900  0.84395500  1
  S  S5  1  0.38903900  0.77635100  0.15604500  1
  S  S6  1  0.38903900  0.84395500  0.77635100  1
  S  S7  1  0.38903900  0.15604500  0.22364900  1
  S  S8  1  0.84395500  0.22364900  0.61096100  1
  S  S9  1  0.15604500  0.77635100  0.61096100  1
  S  S10  1  0.22364900  0.38903900  0.15604500  1
  S  S11  1  0.77635100  0.38903900  0.84395500  1
  S  S12  1  0.84395500  0.38903900  0.22364900  1
  Br  Br1  1  0.10815000  0.57937400  0.31842300  1
  Br  Br2  1  0.89185000  0.57937400  0.68157700  1
  Br  Br3  1  0.31842300  0.10815000  0.57937400  1
  Br  Br4  1  0.68157700  0.89185000  0.57937400  1
  Br  Br5  1  0.57937400  0.31842300  0.10815000  1
  Br  Br6  1  0.57937400  0.68157700  0.89185000  1
  Br  Br7  1  0.57937400  0.10815000  0.68157700  1
  Br  Br8  1  0.57937400  0.89185000  0.31842300  1
  Br  Br9  1  0.10815000  0.31842300  0.42062600  1
  Br  Br10  1  0.89185000  0.68157700  0.42062600  1
  Br  Br11  1  0.31842300  0.57937400  0.89185000  1
  Br  Br12  1  0.68157700  0.57937400  0.10815000  1
  O  O1  1  0.95292800  0.50000000  0.58518200  1
  O  O2  1  0.07171100  0.56540100  0.19363100  1
  O  O3  1  0.91999200  0.44261600  0.30936000  1
  O  O4  1  0.04707200  0.58518200  0.50000000  1
  O  O5  1  0.92828900  0.56540100  0.80636900  1
  O  O6  1  0.08000800  0.44261600  0.69064000  1
  O  O7  1  0.95292800  0.58518200  0.50000000  1
  O  O8  1  0.19363100  0.07171100  0.56540100  1
  O  O9  1  0.30936000  0.91999200  0.44261600  1
  O  O10  1  0.41481800  0.04707200  0.50000000  1
  O  O11  1  0.80636900  0.92828900  0.56540100  1
  O  O12  1  0.69064000  0.08000800  0.44261600  1
  O  O13  1  0.41481800  0.95292800  0.50000000  1
  O  O14  1  0.56540100  0.19363100  0.07171100  1
  O  O15  1  0.44261600  0.30936000  0.91999200  1
  O  O16  1  0.50000000  0.04707200  0.41481800  1
  O  O17  1  0.50000000  0.95292800  0.41481800  1
  O  O18  1  0.56540100  0.80636900  0.92828900  1
  O  O19  1  0.44261600  0.69064000  0.08000800  1
  O  O20  1  0.58518200  0.04707200  0.50000000  1
  O  O21  1  0.56540100  0.07171100  0.80636900  1
  O  O22  1  0.58518200  0.95292800  0.50000000  1
  O  O23  1  0.44261600  0.91999200  0.69064000  1
  O  O24  1  0.50000000  0.04707200  0.58518200  1
  O  O25  1  0.56540100  0.92828900  0.19363100  1
  O  O26  1  0.44261600  0.08000800  0.30936000  1
  O  O27  1  0.50000000  0.95292800  0.58518200  1
  O  O28  1  0.07171100  0.19363100  0.43459900  1
  O  O29  1  0.91999200  0.30936000  0.55738400  1
  O  O30  1  0.04707200  0.50000000  0.41481800  1
  O  O31  1  0.92828900  0.80636900  0.43459900  1
  O  O32  1  0.50000000  0.41481800  0.04707200  1
  O  O33  1  0.08000800  0.69064000  0.55738400  1
  O  O34  1  0.50000000  0.41481800  0.95292800  1
  O  O35  1  0.19363100  0.56540100  0.92828900  1
  O  O36  1  0.30936000  0.44261600  0.08000800  1
  O  O37  1  0.41481800  0.50000000  0.04707200  1
  O  O38  1  0.41481800  0.50000000  0.95292800  1
  O  O39  1  0.80636900  0.56540100  0.07171100  1
  O  O40  1  0.69064000  0.44261600  0.91999200  1
  O  O41  1  0.50000000  0.58518200  0.04707200  1
  O  O42  1  0.50000000  0.58518200  0.95292800  1
  O  O43  1  0.95292800  0.50000000  0.41481800  1
  O  O44  1  0.58518200  0.50000000  0.04707200  1
  O  O45  1  0.58518200  0.50000000  0.95292800  1
  O  O46  1  0.54707200  0.00000000  0.91481800  1
  O  O47  1  0.45292800  0.00000000  0.91481800  1
  O  O48  1  0.54707200  0.91481800  0.00000000  1
  O  O49  1  0.45292800  0.91481800  0.00000000  1
  O  O50  1  0.54707200  0.00000000  0.08518200  1
  O  O51  1  0.45292800  0.00000000  0.08518200  1
  O  O52  1  0.54707200  0.08518200  0.00000000  1
  O  O53  1  0.45292800  0.08518200  0.00000000  1
  O  O54  1  0.91481800  0.54707200  0.00000000  1
  O  O55  1  0.04707200  0.41481800  0.50000000  1
  O  O56  1  0.91481800  0.45292800  0.00000000  1
  O  O57  1  0.00000000  0.54707200  0.91481800  1
  O  O58  1  0.00000000  0.45292800  0.91481800  1
  O  O59  1  0.08518200  0.54707200  0.00000000  1
  O  O60  1  0.08518200  0.45292800  0.00000000  1
  O  O61  1  0.00000000  0.54707200  0.08518200  1
  O  O62  1  0.00000000  0.45292800  0.08518200  1
  O  O63  1  0.95292800  0.41481800  0.50000000  1
  O  O64  1  0.00000000  0.91481800  0.54707200  1
  O  O65  1  0.00000000  0.91481800  0.45292800  1
  O  O66  1  0.91481800  0.00000000  0.54707200  1
  O  O67  1  0.91481800  0.00000000  0.45292800  1
  O  O68  1  0.00000000  0.08518200  0.54707200  1
  O  O69  1  0.00000000  0.08518200  0.45292800  1
  O  O70  1  0.08518200  0.00000000  0.54707200  1
  O  O71  1  0.08518200  0.00000000  0.45292800  1
  O  O72  1  0.04707200  0.50000000  0.58518200  1
