# generated using pymatgen
data_CuH14(C9O2)2
_symmetry_space_group_name_H-M   'P 1'
_cell_length_a   12.96310000
_cell_length_b   12.96310000
_cell_length_c   25.92630000
_cell_angle_alpha   90.00000000
_cell_angle_beta   90.00000000
_cell_angle_gamma   90.00000000
_symmetry_Int_Tables_number   1
_chemical_formula_structural   CuH14(C9O2)2
_chemical_formula_sum   'Cu4 H56 C72 O16'
_cell_volume   4356.70630929
_cell_formula_units_Z   4
loop_
 _symmetry_equiv_pos_site_id
 _symmetry_equiv_pos_as_xyz
  1  'x, y, z'
loop_
 _atom_site_type_symbol
 _atom_site_label
 _atom_site_symmetry_multiplicity
 _atom_site_fract_x
 _atom_site_fract_y
 _atom_site_fract_z
 _atom_site_occupancy
  Cu  Cu1  1  0.89758300  0.00000000  0.00000000  1
  Cu  Cu2  1  0.10241700  0.00000000  0.00000000  1
  Cu  Cu3  1  0.00000000  0.89758300  0.50000000  1
  Cu  Cu4  1  0.00000000  0.10241700  0.50000000  1
  H  H1  1  0.21014200  0.94783900  0.61676200  1
  H  H2  1  0.35662000  0.85742900  0.58847700  1
  H  H3  1  0.25796800  0.59432400  0.67274700  1
  H  H4  1  0.12156000  0.68446400  0.70456500  1
  H  H5  1  0.46098500  0.68228400  0.57308800  1
  H  H6  1  0.49876200  0.50123800  0.59905500  1
  H  H7  1  0.37792700  0.51214700  0.63617200  1
  H  H8  1  0.89415300  0.10769200  0.66859500  1
  H  H9  1  0.86759700  0.07088400  0.75604400  1
  H  H10  1  0.07403300  0.81052300  0.75262000  1
  H  H11  1  0.99795200  0.86459700  0.83301300  1
  H  H12  1  0.86701200  0.92042000  0.82709600  1
  H  H13  1  0.94762800  0.09637900  0.84427300  1
  H  H14  1  0.07800600  0.04203500  0.83266100  1
  H  H15  1  0.05216100  0.21014200  0.11676200  1
  H  H16  1  0.14257100  0.35662000  0.08847700  1
  H  H17  1  0.40567600  0.25796800  0.17274700  1
  H  H18  1  0.31553600  0.12156000  0.20456500  1
  H  H19  1  0.31771600  0.46098500  0.07308800  1
  H  H20  1  0.49876200  0.49876200  0.09905500  1
  H  H21  1  0.48785300  0.37792700  0.13617200  1
  H  H22  1  0.89230800  0.89415300  0.16859500  1
  H  H23  1  0.92911600  0.86759700  0.25604400  1
  H  H24  1  0.18947700  0.07403300  0.25262000  1
  H  H25  1  0.13540300  0.99795200  0.33301300  1
  H  H26  1  0.07958000  0.86701200  0.32709600  1
  H  H27  1  0.90362100  0.94762800  0.34427300  1
  H  H28  1  0.95796500  0.07800600  0.33266100  1
  H  H29  1  0.81452300  0.23352500  0.05585500  1
  H  H30  1  0.64701900  0.17695500  0.07567800  1
  H  H31  1  0.53073300  0.34549400  0.94777700  1
  H  H32  1  0.69092700  0.40913100  0.93141900  1
  H  H33  1  0.44937500  0.14617600  0.05065300  1
  H  H34  1  0.29464400  0.19811000  0.00000000  1
  H  H35  1  0.38780100  0.27234500  0.96113600  1
  H  H36  1  0.15099500  0.33719000  0.00065200  1
  H  H37  1  0.14374600  0.51208900  0.97825000  1
  H  H38  1  0.81367000  0.50524000  0.95918400  1
  H  H39  1  0.90570300  0.66602700  0.95140400  1
  H  H40  1  0.03776500  0.65419300  0.92484600  1
  H  H41  1  0.10518300  0.68854600  0.01555900  1
  H  H42  1  0.97456500  0.66532200  0.04244100  1
  H  H43  1  0.76647500  0.81452300  0.55585500  1
  H  H44  1  0.82304500  0.64701900  0.57567800  1
  H  H45  1  0.65450600  0.53073300  0.44777700  1
  H  H46  1  0.59086900  0.69092700  0.43141900  1
  H  H47  1  0.85382400  0.44937500  0.55065300  1
  H  H48  1  0.80189000  0.29464400  0.50000000  1
  H  H49  1  0.72765500  0.38780100  0.46113600  1
  H  H50  1  0.66281000  0.15099500  0.50065200  1
  H  H51  1  0.48791100  0.14374600  0.47825000  1
  H  H52  1  0.49476000  0.81367000  0.45918400  1
  H  H53  1  0.33397300  0.90570300  0.45140400  1
  H  H54  1  0.34580700  0.03776500  0.42484600  1
  H  H55  1  0.31145400  0.10518300  0.51555900  1
  H  H56  1  0.33467800  0.97456500  0.54244100  1
  C  C1  1  0.00000000  0.00000000  0.90272600  1
  C  C2  1  0.00000000  0.80545200  0.00000000  1
  C  C3  1  0.00000000  0.00000000  0.09727400  1
  C  C4  1  0.00000000  0.19454800  0.00000000  1
  C  C5  1  0.00000000  0.00000000  0.40272600  1
  C  C6  1  0.19454800  0.00000000  0.50000000  1
  C  C7  1  0.00000000  0.00000000  0.59727400  1
  C  C8  1  0.80545200  0.00000000  0.50000000  1
  C  C9  1  0.14632700  0.82914100  0.66333000  1
  C  C10  1  0.22343100  0.87218800  0.63068400  1
  C  C11  1  0.31044300  0.81549300  0.61449100  1
  C  C12  1  0.32144100  0.71105900  0.62394800  1
  C  C13  1  0.25439500  0.67172400  0.65952500  1
  C  C14  1  0.16909900  0.72803400  0.67968400  1
  C  C15  1  0.41136100  0.64082200  0.59759300  1
  C  C16  1  0.43201200  0.54511200  0.61290900  1
  C  C17  1  0.05327400  0.88963300  0.68063000  1
  C  C18  1  0.00193300  0.97578200  0.65645400  1
  C  C19  1  0.93905300  0.04627100  0.68623000  1
  C  C20  1  0.91927100  0.02702900  0.73747900  1
  C  C21  1  0.97070500  0.94536100  0.76209700  1
  C  C22  1  0.03166400  0.87713900  0.73237400  1
  C  C23  1  0.95142100  0.93103300  0.81860200  1
  C  C24  1  0.99625900  0.02548600  0.84672300  1
  C  C25  1  0.17085900  0.14632700  0.16333000  1
  C  C26  1  0.12781200  0.22343100  0.13068400  1
  C  C27  1  0.18450700  0.31044300  0.11449100  1
  C  C28  1  0.28894100  0.32144100  0.12394800  1
  C  C29  1  0.32827600  0.25439500  0.15952500  1
  C  C30  1  0.27196600  0.16909900  0.17968400  1
  C  C31  1  0.35917800  0.41136100  0.09759300  1
  C  C32  1  0.45488800  0.43201200  0.11290900  1
  C  C33  1  0.11036700  0.05327400  0.18063000  1
  C  C34  1  0.02421800  0.00193300  0.15645400  1
  C  C35  1  0.95372900  0.93905300  0.18623000  1
  C  C36  1  0.97297100  0.91927100  0.23747900  1
  C  C37  1  0.05463900  0.97070500  0.26209700  1
  C  C38  1  0.12286100  0.03166400  0.23237400  1
  C  C39  1  0.06896700  0.95142100  0.31860200  1
  C  C40  1  0.97451400  0.99625900  0.34672300  1
  C  C41  1  0.77571600  0.32665900  0.99132600  1
  C  C42  1  0.75163400  0.26136800  0.03380700  1
  C  C43  1  0.65001800  0.22898300  0.04452500  1
  C  C44  1  0.56839500  0.24789700  0.01149000  1
  C  C45  1  0.58798900  0.31905100  0.97387900  1
  C  C46  1  0.68812000  0.35936800  0.96363100  1
  C  C47  1  0.45514700  0.19518600  0.01845000  1
  C  C48  1  0.37286700  0.22581700  0.99191200  1
  C  C49  1  0.88428800  0.36126100  0.97981400  1
  C  C50  1  0.98150900  0.31290800  0.99212100  1
  C  C51  1  0.07581400  0.37246100  0.99481100  1
  C  C52  1  0.07619600  0.47495900  0.98101400  1
  C  C53  1  0.98207900  0.52419500  0.97032500  1
  C  C54  1  0.89073400  0.46474800  0.96775700  1
  C  C55  1  0.98558400  0.63720300  0.95844100  1
  C  C56  1  0.02066600  0.69344600  0.00768800  1
  C  C57  1  0.67334100  0.77571600  0.49132600  1
  C  C58  1  0.73863200  0.75163400  0.53380700  1
  C  C59  1  0.77101700  0.65001800  0.54452500  1
  C  C60  1  0.75210300  0.56839500  0.51149000  1
  C  C61  1  0.68094900  0.58798900  0.47387900  1
  C  C62  1  0.64063200  0.68812000  0.46363100  1
  C  C63  1  0.80481400  0.45514700  0.51845000  1
  C  C64  1  0.77418300  0.37286700  0.49191200  1
  C  C65  1  0.63873900  0.88428800  0.47981400  1
  C  C66  1  0.68709200  0.98150900  0.49212100  1
  C  C67  1  0.62753900  0.07581400  0.49481100  1
  C  C68  1  0.52504100  0.07619600  0.48101400  1
  C  C69  1  0.47580500  0.98207900  0.47032500  1
  C  C70  1  0.53525200  0.89073400  0.46775700  1
  C  C71  1  0.36279700  0.98558400  0.45844100  1
  C  C72  1  0.30655400  0.02066600  0.50768800  1
  O  O1  1  0.08150400  0.00000000  0.92625400  1
  O  O2  1  0.91849600  0.00000000  0.92625400  1
  O  O3  1  0.08150400  0.85250800  0.00000000  1
  O  O4  1  0.91849600  0.85250800  0.00000000  1
  O  O5  1  0.08150400  0.00000000  0.07374600  1
  O  O6  1  0.91849600  0.00000000  0.07374600  1
  O  O7  1  0.08150400  0.14749200  0.00000000  1
  O  O8  1  0.91849600  0.14749200  0.00000000  1
  O  O9  1  0.00000000  0.08150400  0.42625400  1
  O  O10  1  0.00000000  0.91849600  0.42625400  1
  O  O11  1  0.14749200  0.08150400  0.50000000  1
  O  O12  1  0.14749200  0.91849600  0.50000000  1
  O  O13  1  0.00000000  0.08150400  0.57374600  1
  O  O14  1  0.00000000  0.91849600  0.57374600  1
  O  O15  1  0.85250800  0.08150400  0.50000000  1
  O  O16  1  0.85250800  0.91849600  0.50000000  1
