# generated using pymatgen
data_CuH9C13N2O6F
_symmetry_space_group_name_H-M   'P 1'
_cell_length_a   10.34580000
_cell_length_b   10.34580000
_cell_length_c   20.69160000
_cell_angle_alpha   90.00000000
_cell_angle_beta   90.00000000
_cell_angle_gamma   90.00000000
_symmetry_Int_Tables_number   1
_chemical_formula_structural   CuH9C13N2O6F
_chemical_formula_sum   'Cu4 H36 C52 N8 O24 F4'
_cell_volume   2214.73735830
_cell_formula_units_Z   4
loop_
 _symmetry_equiv_pos_site_id
 _symmetry_equiv_pos_as_xyz
  1  'x, y, z'
loop_
 _atom_site_type_symbol
 _atom_site_label
 _atom_site_symmetry_multiplicity
 _atom_site_fract_x
 _atom_site_fract_y
 _atom_site_fract_z
 _atom_site_occupancy
  Cu  Cu1  1  0.87167400  0.00000000  0.00000000  1
  Cu  Cu2  1  0.12832600  0.00000000  0.00000000  1
  Cu  Cu3  1  0.00000000  0.87167400  0.50000000  1
  Cu  Cu4  1  0.00000000  0.12832600  0.50000000  1
  H  H1  1  0.27534100  0.48508100  0.73748800  1
  H  H2  1  0.96712600  0.73392700  0.67601800  1
  H  H3  1  0.30954200  0.69275700  0.90627900  1
  H  H4  1  0.42791200  0.57208800  0.90806300  1
  H  H5  1  0.26223200  0.53694100  0.88356400  1
  H  H6  1  0.41505200  0.92462600  0.75488300  1
  H  H7  1  0.45731800  0.87550600  0.83766300  1
  H  H8  1  0.39645200  0.02862800  0.82315600  1
  H  H9  1  0.92283600  0.21011100  0.68620100  1
  H  H10  1  0.51491900  0.27534100  0.23748800  1
  H  H11  1  0.26607300  0.96712600  0.17601800  1
  H  H12  1  0.30724300  0.30954200  0.40627900  1
  H  H13  1  0.42791200  0.42791200  0.40806300  1
  H  H14  1  0.46305900  0.26223200  0.38356400  1
  H  H15  1  0.07537400  0.41505200  0.25488300  1
  H  H16  1  0.12449400  0.45731800  0.33766300  1
  H  H17  1  0.97137200  0.39645200  0.32315600  1
  H  H18  1  0.78988900  0.92283600  0.18620100  1
  H  H19  1  0.44120200  0.47497600  0.91529600  1
  H  H20  1  0.83510300  0.35203700  0.89430700  1
  H  H21  1  0.56386700  0.81255800  0.00081300  1
  H  H22  1  0.39484100  0.81612500  0.00000000  1
  H  H23  1  0.48714200  0.76712700  0.92899700  1
  H  H24  1  0.65321600  0.50976500  0.12009400  1
  H  H25  1  0.58859600  0.67532500  0.11767100  1
  H  H26  1  0.73990900  0.64631200  0.15028900  1
  H  H27  1  0.20313400  0.37240100  0.04700400  1
  H  H28  1  0.52502400  0.44120200  0.41529600  1
  H  H29  1  0.64796300  0.83510300  0.39430700  1
  H  H30  1  0.18744200  0.56386700  0.50081300  1
  H  H31  1  0.18387500  0.39484100  0.50000000  1
  H  H32  1  0.23287300  0.48714200  0.42899700  1
  H  H33  1  0.49023500  0.65321600  0.62009400  1
  H  H34  1  0.32467500  0.58859600  0.61767100  1
  H  H35  1  0.35368800  0.73990900  0.65028900  1
  H  H36  1  0.62759900  0.20313400  0.54700400  1
  C  C1  1  0.00000000  0.00000000  0.87811700  1
  C  C2  1  0.00000000  0.75623400  0.00000000  1
  C  C3  1  0.00000000  0.00000000  0.12188300  1
  C  C4  1  0.00000000  0.24376600  0.00000000  1
  C  C5  1  0.00000000  0.00000000  0.37811700  1
  C  C6  1  0.24376600  0.00000000  0.50000000  1
  C  C7  1  0.00000000  0.00000000  0.62188300  1
  C  C8  1  0.75623400  0.00000000  0.50000000  1
  C  C9  1  0.09693300  0.82569100  0.74444000  1
  C  C10  1  0.20915700  0.80034700  0.78333400  1
  C  C11  1  0.27356200  0.67769100  0.78064900  1
  C  C12  1  0.22651100  0.58147700  0.73925900  1
  C  C13  1  0.12473900  0.61458400  0.69771500  1
  C  C14  1  0.05632400  0.72952300  0.70343800  1
  C  C15  1  0.33648600  0.60637700  0.88514600  1
  C  C16  1  0.38611300  0.92906600  0.80683700  1
  C  C17  1  0.04029400  0.95175600  0.74784900  1
  C  C18  1  0.99505700  0.01586700  0.69382600  1
  C  C19  1  0.00424800  0.03901000  0.80034200  1
  C  C20  1  0.17430900  0.09693300  0.24444000  1
  C  C21  1  0.19965300  0.20915700  0.28333400  1
  C  C22  1  0.32230900  0.27356200  0.28064900  1
  C  C23  1  0.41852300  0.22651100  0.23925900  1
  C  C24  1  0.38541600  0.12473900  0.19771500  1
  C  C25  1  0.27047700  0.05632400  0.20343800  1
  C  C26  1  0.39362300  0.33648600  0.38514600  1
  C  C27  1  0.07093400  0.38611300  0.30683700  1
  C  C28  1  0.04824400  0.04029400  0.24784900  1
  C  C29  1  0.98413300  0.99505700  0.19382600  1
  C  C30  1  0.96099000  0.00424800  0.30034200  1
  C  C31  1  0.80820300  0.48887900  0.97264400  1
  C  C32  1  0.71092800  0.56666800  0.00336000  1
  C  C33  1  0.57865600  0.56129900  0.98276500  1
  C  C34  1  0.54389200  0.47851800  0.93211300  1
  C  C35  1  0.63926600  0.39543000  0.90783700  1
  C  C36  1  0.76891700  0.40687600  0.92428500  1
  C  C37  1  0.48373500  0.77029200  0.97979900  1
  C  C38  1  0.67681900  0.61367400  0.11143300  1
  C  C39  1  0.93739500  0.49569800  0.99718900  1
  C  C40  1  0.01471500  0.38765200  0.00386200  1
  C  C41  1  0.02458000  0.60068500  0.01529400  1
  C  C42  1  0.51112100  0.80820300  0.47264400  1
  C  C43  1  0.43333200  0.71092800  0.50336000  1
  C  C44  1  0.43870100  0.57865600  0.48276500  1
  C  C45  1  0.52148200  0.54389200  0.43211300  1
  C  C46  1  0.60457000  0.63926600  0.40783700  1
  C  C47  1  0.59312400  0.76891700  0.42428500  1
  C  C48  1  0.22970800  0.48373500  0.47979900  1
  C  C49  1  0.38632600  0.67681900  0.61143300  1
  C  C50  1  0.50430200  0.93739500  0.49718900  1
  C  C51  1  0.61234800  0.01471500  0.50386200  1
  C  C52  1  0.39931500  0.02458000  0.51529400  1
  N  N1  1  0.95008400  0.13722900  0.71505500  1
  N  N2  1  0.95687900  0.15131900  0.77850300  1
  N  N3  1  0.86277100  0.95008400  0.21505500  1
  N  N4  1  0.84868100  0.95687900  0.27850300  1
  N  N5  1  0.13233200  0.43011000  0.03087000  1
  N  N6  1  0.13749000  0.55700600  0.03825400  1
  N  N7  1  0.56989000  0.13233200  0.53087000  1
  N  N8  1  0.44299400  0.13749000  0.53825400  1
  O  O1  1  0.10212400  0.00000000  0.90759700  1
  O  O2  1  0.89787600  0.00000000  0.90759700  1
  O  O3  1  0.10212400  0.81519500  0.00000000  1
  O  O4  1  0.89787600  0.81519500  0.00000000  1
  O  O5  1  0.10212400  0.00000000  0.09240300  1
  O  O6  1  0.89787600  0.00000000  0.09240300  1
  O  O7  1  0.10212400  0.18480500  0.00000000  1
  O  O8  1  0.89787600  0.18480500  0.00000000  1
  O  O9  1  0.00000000  0.10212400  0.40759700  1
  O  O10  1  0.00000000  0.89787600  0.40759700  1
  O  O11  1  0.18480500  0.10212400  0.50000000  1
  O  O12  1  0.18480500  0.89787600  0.50000000  1
  O  O13  1  0.00000000  0.10212400  0.59240300  1
  O  O14  1  0.00000000  0.89787600  0.59240300  1
  O  O15  1  0.81519500  0.10212400  0.50000000  1
  O  O16  1  0.81519500  0.89787600  0.50000000  1
  O  O17  1  0.37885700  0.64680700  0.81959800  1
  O  O18  1  0.26077200  0.89056800  0.82357000  1
  O  O19  1  0.35319300  0.37885700  0.31959800  1
  O  O20  1  0.10943200  0.26077200  0.32357000  1
  O  O21  1  0.48236300  0.63919600  0.00907300  1
  O  O22  1  0.73822600  0.64714000  0.05350700  1
  O  O23  1  0.36080400  0.48236300  0.50907300  1
  O  O24  1  0.35286000  0.73822600  0.55350700  1
  F  F1  1  0.07428900  0.51738700  0.66219700  1
  F  F2  1  0.48261300  0.07428900  0.16219700  1
  F  F3  1  0.60621100  0.32439500  0.85563500  1
  F  F4  1  0.67560500  0.60621100  0.35563500  1
