# generated using pymatgen
data_CuH5C13SClO5
_symmetry_space_group_name_H-M   'P 1'
_cell_length_a   25.66840000
_cell_length_b   25.66840000
_cell_length_c   23.57910000
_cell_angle_alpha   90.00000000
_cell_angle_beta   90.00000000
_cell_angle_gamma   90.00000000
_symmetry_Int_Tables_number   1
_chemical_formula_structural   CuH5C13SClO5
_chemical_formula_sum   'Cu16 H80 C208 S16 Cl16 O80'
_cell_volume   15535.48518676
_cell_formula_units_Z   16
loop_
 _symmetry_equiv_pos_site_id
 _symmetry_equiv_pos_as_xyz
  1  'x, y, z'
loop_
 _atom_site_type_symbol
 _atom_site_label
 _atom_site_symmetry_multiplicity
 _atom_site_fract_x
 _atom_site_fract_y
 _atom_site_fract_z
 _atom_site_occupancy
  Cu  Cu1  1  0.01017400  0.95325200  0.96018600  1
  Cu  Cu2  1  0.01017400  0.02639900  0.03981400  1
  Cu  Cu3  1  0.51017400  0.02639900  0.46018600  1
  Cu  Cu4  1  0.51017400  0.95325200  0.53981400  1
  Cu  Cu5  1  0.29674800  0.73982600  0.21018600  1
  Cu  Cu6  1  0.22360100  0.73982600  0.28981400  1
  Cu  Cu7  1  0.22360100  0.23982600  0.71018600  1
  Cu  Cu8  1  0.29674800  0.23982600  0.78981400  1
  Cu  Cu9  1  0.72360100  0.23982600  0.78981400  1
  Cu  Cu10  1  0.79674800  0.23982600  0.71018600  1
  Cu  Cu11  1  0.79674800  0.73982600  0.28981400  1
  Cu  Cu12  1  0.72360100  0.73982600  0.21018600  1
  Cu  Cu13  1  0.51017400  0.45325200  0.46018600  1
  Cu  Cu14  1  0.51017400  0.52639900  0.53981400  1
  Cu  Cu15  1  0.01017400  0.52639900  0.96018600  1
  Cu  Cu16  1  0.01017400  0.45325200  0.03981400  1
  H  H1  1  0.96432900  0.89121500  0.14313100  1
  H  H2  1  0.91178000  0.84002800  0.20665700  1
  H  H3  1  0.78679600  0.84545300  0.08709500  1
  H  H4  1  0.87992200  0.87992200  0.79391500  1
  H  H5  1  0.97737000  0.88224100  0.83516800  1
  H  H6  1  0.55602000  0.08843600  0.64313100  1
  H  H7  1  0.60856900  0.13962300  0.70665700  1
  H  H8  1  0.73355200  0.13419900  0.58709500  1
  H  H9  1  0.64042700  0.09972900  0.29391500  1
  H  H10  1  0.54297800  0.09741100  0.33516800  1
  H  H11  1  0.35878500  0.69398000  0.39313100  1
  H  H12  1  0.40997200  0.64143100  0.45665700  1
  H  H13  1  0.40454700  0.51644800  0.33709500  1
  H  H14  1  0.37007800  0.60957300  0.04391500  1
  H  H15  1  0.36775900  0.70702200  0.08516800  1
  H  H16  1  0.16156400  0.28567100  0.89313100  1
  H  H17  1  0.11037700  0.33822000  0.95665700  1
  H  H18  1  0.11580100  0.46320400  0.83709500  1
  H  H19  1  0.15027100  0.37007800  0.54391500  1
  H  H20  1  0.15258900  0.27263000  0.58516800  1
  H  H21  1  0.55602000  0.89121500  0.35686900  1
  H  H22  1  0.60856900  0.84002800  0.29334300  1
  H  H23  1  0.73355200  0.84545300  0.41290500  1
  H  H24  1  0.64042700  0.87992200  0.70608500  1
  H  H25  1  0.54297800  0.88224100  0.66483200  1
  H  H26  1  0.96432900  0.08843600  0.85686900  1
  H  H27  1  0.91178000  0.13962300  0.79334300  1
  H  H28  1  0.78679600  0.13419900  0.91290500  1
  H  H29  1  0.87992200  0.09972900  0.20608500  1
  H  H30  1  0.97737000  0.09741100  0.16483200  1
  H  H31  1  0.16156400  0.69398000  0.10686900  1
  H  H32  1  0.11037700  0.64143100  0.04334300  1
  H  H33  1  0.11580100  0.51644800  0.16290500  1
  H  H34  1  0.15027100  0.60957300  0.45608500  1
  H  H35  1  0.15258900  0.70702200  0.41483200  1
  H  H36  1  0.35878500  0.28567100  0.60686900  1
  H  H37  1  0.40997200  0.33822000  0.54334300  1
  H  H38  1  0.40454700  0.46320400  0.66290500  1
  H  H39  1  0.37007800  0.37007800  0.95608500  1
  H  H40  1  0.36775900  0.27263000  0.91483200  1
  H  H41  1  0.05602000  0.08843600  0.85686900  1
  H  H42  1  0.10856900  0.13962300  0.79334300  1
  H  H43  1  0.23355200  0.13419900  0.91290500  1
  H  H44  1  0.14042700  0.09972900  0.20608500  1
  H  H45  1  0.04297800  0.09741100  0.16483200  1
  H  H46  1  0.46432900  0.89121500  0.35686900  1
  H  H47  1  0.41178000  0.84002800  0.29334300  1
  H  H48  1  0.28679600  0.84545300  0.41290500  1
  H  H49  1  0.37992200  0.87992200  0.70608500  1
  H  H50  1  0.47737000  0.88224100  0.66483200  1
  H  H51  1  0.66156400  0.28567100  0.60686900  1
  H  H52  1  0.61037700  0.33822000  0.54334300  1
  H  H53  1  0.61580100  0.46320400  0.66290500  1
  H  H54  1  0.65027100  0.37007800  0.95608500  1
  H  H55  1  0.65258900  0.27263000  0.91483200  1
  H  H56  1  0.85878500  0.69398000  0.10686900  1
  H  H57  1  0.90997200  0.64143100  0.04334300  1
  H  H58  1  0.90454700  0.51644800  0.16290500  1
  H  H59  1  0.87007800  0.60957300  0.45608500  1
  H  H60  1  0.86775900  0.70702200  0.41483200  1
  H  H61  1  0.46432900  0.08843600  0.64313100  1
  H  H62  1  0.41178000  0.13962300  0.70665700  1
  H  H63  1  0.28679600  0.13419900  0.58709500  1
  H  H64  1  0.37992200  0.09972900  0.29391500  1
  H  H65  1  0.47737000  0.09741100  0.33516800  1
  H  H66  1  0.05602000  0.89121500  0.14313100  1
  H  H67  1  0.10856900  0.84002800  0.20665700  1
  H  H68  1  0.23355200  0.84545300  0.08709500  1
  H  H69  1  0.14042700  0.87992200  0.79391500  1
  H  H70  1  0.04297800  0.88224100  0.83516800  1
  H  H71  1  0.85878500  0.28567100  0.89313100  1
  H  H72  1  0.90997200  0.33822000  0.95665700  1
  H  H73  1  0.90454700  0.46320400  0.83709500  1
  H  H74  1  0.87007800  0.37007800  0.54391500  1
  H  H75  1  0.86775900  0.27263000  0.58516800  1
  H  H76  1  0.66156400  0.69398000  0.39313100  1
  H  H77  1  0.61037700  0.64143100  0.45665700  1
  H  H78  1  0.61580100  0.51644800  0.33709500  1
  H  H79  1  0.65027100  0.60957300  0.04391500  1
  H  H80  1  0.65258900  0.70702200  0.08516800  1
  C  C1  1  0.07964900  0.53895200  0.05347900  1
  C  C2  1  0.07964900  0.44070000  0.94652100  1
  C  C3  1  0.94070000  0.44070000  0.94652100  1
  C  C4  1  0.94070000  0.53895200  0.05347900  1
  C  C5  1  0.07964900  0.94070000  0.05347900  1
  C  C6  1  0.86031800  0.87854500  0.05868300  1
  C  C7  1  0.90886900  0.89567400  0.08043600  1
  C  C8  1  0.92630200  0.87908100  0.13192900  1
  C  C9  1  0.89437000  0.85410600  0.16737400  1
  C  C10  1  0.84373000  0.84199700  0.15360300  1
  C  C11  1  0.82603500  0.85758500  0.09980800  1
  C  C12  1  0.87351100  0.88714100  0.93765700  1
  C  C13  1  0.85079200  0.89152400  0.88257200  1
  C  C14  1  0.88962800  0.87872500  0.83935700  1
  C  C15  1  0.93997100  0.88083900  0.85928500  1
  C  C16  1  0.84151000  0.88318400  0.99383100  1
  C  C17  1  0.66003100  0.10110600  0.55868300  1
  C  C18  1  0.61147900  0.08397800  0.58043600  1
  C  C19  1  0.59404600  0.10057100  0.63192900  1
  C  C20  1  0.62597800  0.12554500  0.66737400  1
  C  C21  1  0.67661900  0.13765500  0.65360300  1
  C  C22  1  0.69431400  0.12206700  0.59980800  1
  C  C23  1  0.64683800  0.09251000  0.43765700  1
  C  C24  1  0.66955700  0.08812800  0.38257200  1
  C  C25  1  0.63072100  0.10092700  0.33935700  1
  C  C26  1  0.58037700  0.09881300  0.35928500  1
  C  C27  1  0.67883900  0.09646700  0.49383100  1
  C  C28  1  0.37145500  0.58996900  0.30868300  1
  C  C29  1  0.35432600  0.63852100  0.33043600  1
  C  C30  1  0.37091900  0.65595400  0.38192900  1
  C  C31  1  0.39589400  0.62402200  0.41737400  1
  C  C32  1  0.40800300  0.57338100  0.40360300  1
  C  C33  1  0.39241500  0.55568600  0.34980800  1
  C  C34  1  0.57964900  0.03895200  0.55347900  1
  C  C35  1  0.36285900  0.60316200  0.18765700  1
  C  C36  1  0.35847600  0.58044300  0.13257200  1
  C  C37  1  0.37127500  0.61927900  0.08935700  1
  C  C38  1  0.36916100  0.66962300  0.10928500  1
  C  C39  1  0.36681600  0.57116100  0.24383100  1
  C  C40  1  0.14889400  0.38968200  0.80868300  1
  C  C41  1  0.16602200  0.34113100  0.83043600  1
  C  C42  1  0.14942900  0.32369800  0.88192900  1
  C  C43  1  0.12445500  0.35563000  0.91737400  1
  C  C44  1  0.11234500  0.40627000  0.90360300  1
  C  C45  1  0.12793300  0.42396500  0.84980800  1
  C  C46  1  0.15749000  0.37648900  0.68765700  1
  C  C47  1  0.16187200  0.39920800  0.63257200  1
  C  C48  1  0.14907300  0.36037200  0.58935700  1
  C  C49  1  0.15118700  0.31002900  0.60928500  1
  C  C50  1  0.15353300  0.40849000  0.74383100  1
  C  C51  1  0.66003100  0.87854500  0.44131700  1
  C  C52  1  0.61147900  0.89567400  0.41956400  1
  C  C53  1  0.57964900  0.94070000  0.44652100  1
  C  C54  1  0.59404600  0.87908100  0.36807100  1
  C  C55  1  0.62597800  0.85410600  0.33262600  1
  C  C56  1  0.67661900  0.84199700  0.34639700  1
  C  C57  1  0.69431400  0.85758500  0.40019200  1
  C  C58  1  0.64683800  0.88714100  0.56234300  1
  C  C59  1  0.66955700  0.89152400  0.61742800  1
  C  C60  1  0.94070000  0.94070000  0.05347900  1
  C  C61  1  0.63072100  0.87872500  0.66064300  1
  C  C62  1  0.58037700  0.88083900  0.64071500  1
  C  C63  1  0.67883900  0.88318400  0.50616900  1
  C  C64  1  0.86031800  0.10110600  0.94131700  1
  C  C65  1  0.90886900  0.08397800  0.91956400  1
  C  C66  1  0.92630200  0.10057100  0.86807100  1
  C  C67  1  0.89437000  0.12554500  0.83262600  1
  C  C68  1  0.84373000  0.13765500  0.84639700  1
  C  C69  1  0.82603500  0.12206700  0.90019200  1
  C  C70  1  0.87351100  0.09251000  0.06234300  1
  C  C71  1  0.85079200  0.08812800  0.11742800  1
  C  C72  1  0.88962800  0.10092700  0.16064300  1
  C  C73  1  0.44070000  0.94070000  0.44652100  1
  C  C74  1  0.93997100  0.09881300  0.14071500  1
  C  C75  1  0.84151000  0.09646700  0.00616900  1
  C  C76  1  0.14889400  0.58996900  0.19131700  1
  C  C77  1  0.16602200  0.63852100  0.16956400  1
  C  C78  1  0.14942900  0.65595400  0.11807100  1
  C  C79  1  0.12445500  0.62402200  0.08262600  1
  C  C80  1  0.11234500  0.57338100  0.09639700  1
  C  C81  1  0.12793300  0.55568600  0.15019200  1
  C  C82  1  0.15749000  0.60316200  0.31234300  1
  C  C83  1  0.16187200  0.58044300  0.36742800  1
  C  C84  1  0.14907300  0.61927900  0.41064300  1
  C  C85  1  0.15118700  0.66962300  0.39071500  1
  C  C86  1  0.15353300  0.57116100  0.25616900  1
  C  C87  1  0.37145500  0.38968200  0.69131700  1
  C  C88  1  0.35432600  0.34113100  0.66956400  1
  C  C89  1  0.37091900  0.32369800  0.61807100  1
  C  C90  1  0.39589400  0.35563000  0.58262600  1
  C  C91  1  0.40800300  0.40627000  0.59639700  1
  C  C92  1  0.44070000  0.03895200  0.55347900  1
  C  C93  1  0.39241500  0.42396500  0.65019200  1
  C  C94  1  0.36285900  0.37648900  0.81234300  1
  C  C95  1  0.35847600  0.39920800  0.86742800  1
  C  C96  1  0.37127500  0.36037200  0.91064300  1
  C  C97  1  0.36916100  0.31002900  0.89071500  1
  C  C98  1  0.36681600  0.40849000  0.75616900  1
  C  C99  1  0.16003100  0.10110600  0.94131700  1
  C  C100  1  0.11147900  0.08397800  0.91956400  1
  C  C101  1  0.09404600  0.10057100  0.86807100  1
  C  C102  1  0.12597800  0.12554500  0.83262600  1
  C  C103  1  0.17661900  0.13765500  0.84639700  1
  C  C104  1  0.19431400  0.12206700  0.90019200  1
  C  C105  1  0.14683800  0.09251000  0.06234300  1
  C  C106  1  0.16955700  0.08812800  0.11742800  1
  C  C107  1  0.13072100  0.10092700  0.16064300  1
  C  C108  1  0.08037700  0.09881300  0.14071500  1
  C  C109  1  0.17883900  0.09646700  0.00616900  1
  C  C110  1  0.36031800  0.87854500  0.44131700  1
  C  C111  1  0.40886900  0.89567400  0.41956400  1
  C  C112  1  0.42630200  0.87908100  0.36807100  1
  C  C113  1  0.39437000  0.85410600  0.33262600  1
  C  C114  1  0.34373000  0.84199700  0.34639700  1
  C  C115  1  0.32603500  0.85758500  0.40019200  1
  C  C116  1  0.37351100  0.88714100  0.56234300  1
  C  C117  1  0.35079200  0.89152400  0.61742800  1
  C  C118  1  0.38962800  0.87872500  0.66064300  1
  C  C119  1  0.43997100  0.88083900  0.64071500  1
  C  C120  1  0.30930000  0.67035100  0.30347900  1
  C  C121  1  0.34151000  0.88318400  0.50616900  1
  C  C122  1  0.64889400  0.38968200  0.69131700  1
  C  C123  1  0.66602200  0.34113100  0.66956400  1
  C  C124  1  0.64942900  0.32369800  0.61807100  1
  C  C125  1  0.62445500  0.35563000  0.58262600  1
  C  C126  1  0.61234500  0.40627000  0.59639700  1
  C  C127  1  0.62793300  0.42396500  0.65019200  1
  C  C128  1  0.65749000  0.37648900  0.81234300  1
  C  C129  1  0.66187200  0.39920800  0.86742800  1
  C  C130  1  0.64907300  0.36037200  0.91064300  1
  C  C131  1  0.65118700  0.31002900  0.89071500  1
  C  C132  1  0.65353300  0.40849000  0.75616900  1
  C  C133  1  0.87145500  0.58996900  0.19131700  1
  C  C134  1  0.85432600  0.63852100  0.16956400  1
  C  C135  1  0.87091900  0.65595400  0.11807100  1
  C  C136  1  0.89589400  0.62402200  0.08262600  1
  C  C137  1  0.90800300  0.57338100  0.09639700  1
  C  C138  1  0.89241500  0.55568600  0.15019200  1
  C  C139  1  0.21104800  0.67035100  0.19652100  1
  C  C140  1  0.86285900  0.60316200  0.31234300  1
  C  C141  1  0.85847600  0.58044300  0.36742800  1
  C  C142  1  0.87127500  0.61927900  0.41064300  1
  C  C143  1  0.86916100  0.66962300  0.39071500  1
  C  C144  1  0.86681600  0.57116100  0.25616900  1
  C  C145  1  0.36031800  0.10110600  0.55868300  1
  C  C146  1  0.40886900  0.08397800  0.58043600  1
  C  C147  1  0.42630200  0.10057100  0.63192900  1
  C  C148  1  0.39437000  0.12554500  0.66737400  1
  C  C149  1  0.34373000  0.13765500  0.65360300  1
  C  C150  1  0.32603500  0.12206700  0.59980800  1
  C  C151  1  0.37351100  0.09251000  0.43765700  1
  C  C152  1  0.35079200  0.08812800  0.38257200  1
  C  C153  1  0.38962800  0.10092700  0.33935700  1
  C  C154  1  0.43997100  0.09881300  0.35928500  1
  C  C155  1  0.34151000  0.09646700  0.49383100  1
  C  C156  1  0.16003100  0.87854500  0.05868300  1
  C  C157  1  0.21104800  0.80930000  0.19652100  1
  C  C158  1  0.11147900  0.89567400  0.08043600  1
  C  C159  1  0.09404600  0.87908100  0.13192900  1
  C  C160  1  0.12597800  0.85410600  0.16737400  1
  C  C161  1  0.17661900  0.84199700  0.15360300  1
  C  C162  1  0.19431400  0.85758500  0.09980800  1
  C  C163  1  0.14683800  0.88714100  0.93765700  1
  C  C164  1  0.16955700  0.89152400  0.88257200  1
  C  C165  1  0.13072100  0.87872500  0.83935700  1
  C  C166  1  0.08037700  0.88083900  0.85928500  1
  C  C167  1  0.17883900  0.88318400  0.99383100  1
  C  C168  1  0.87145500  0.38968200  0.80868300  1
  C  C169  1  0.85432600  0.34113100  0.83043600  1
  C  C170  1  0.87091900  0.32369800  0.88192900  1
  C  C171  1  0.89589400  0.35563000  0.91737400  1
  C  C172  1  0.90800300  0.40627000  0.90360300  1
  C  C173  1  0.89241500  0.42396500  0.84980800  1
  C  C174  1  0.86285900  0.37648900  0.68765700  1
  C  C175  1  0.85847600  0.39920800  0.63257200  1
  C  C176  1  0.30930000  0.80930000  0.30347900  1
  C  C177  1  0.87127500  0.36037200  0.58935700  1
  C  C178  1  0.86916100  0.31002900  0.60928500  1
  C  C179  1  0.86681600  0.40849000  0.74383100  1
  C  C180  1  0.64889400  0.58996900  0.30868300  1
  C  C181  1  0.66602200  0.63852100  0.33043600  1
  C  C182  1  0.64942900  0.65595400  0.38192900  1
  C  C183  1  0.62445500  0.62402200  0.41737400  1
  C  C184  1  0.61234500  0.57338100  0.40360300  1
  C  C185  1  0.62793300  0.55568600  0.34980800  1
  C  C186  1  0.65749000  0.60316200  0.18765700  1
  C  C187  1  0.66187200  0.58044300  0.13257200  1
  C  C188  1  0.64907300  0.61927900  0.08935700  1
  C  C189  1  0.65118700  0.66962300  0.10928500  1
  C  C190  1  0.65353300  0.57116100  0.24383100  1
  C  C191  1  0.21104800  0.30930000  0.80347900  1
  C  C192  1  0.30930000  0.30930000  0.69652100  1
  C  C193  1  0.94070000  0.03895200  0.94652100  1
  C  C194  1  0.30930000  0.17035100  0.69652100  1
  C  C195  1  0.21104800  0.17035100  0.80347900  1
  C  C196  1  0.71104800  0.30930000  0.69652100  1
  C  C197  1  0.80930000  0.30930000  0.80347900  1
  C  C198  1  0.80930000  0.17035100  0.80347900  1
  C  C199  1  0.71104800  0.17035100  0.69652100  1
  C  C200  1  0.80930000  0.67035100  0.19652100  1
  C  C201  1  0.71104800  0.67035100  0.30347900  1
  C  C202  1  0.71104800  0.80930000  0.30347900  1
  C  C203  1  0.07964900  0.03895200  0.94652100  1
  C  C204  1  0.80930000  0.80930000  0.19652100  1
  C  C205  1  0.44070000  0.44070000  0.55347900  1
  C  C206  1  0.44070000  0.53895200  0.44652100  1
  C  C207  1  0.57964900  0.53895200  0.44652100  1
  C  C208  1  0.57964900  0.44070000  0.55347900  1
  S  S1  1  0.93918000  0.88071900  0.93259000  1
  S  S2  1  0.58116800  0.09893300  0.43259000  1
  S  S3  1  0.36928100  0.66883200  0.18259000  1
  S  S4  1  0.15106700  0.31082000  0.68259000  1
  S  S5  1  0.58116800  0.88071900  0.56741000  1
  S  S6  1  0.93918000  0.09893300  0.06741000  1
  S  S7  1  0.15106700  0.66883200  0.31741000  1
  S  S8  1  0.36928100  0.31082000  0.81741000  1
  S  S9  1  0.08116800  0.09893300  0.06741000  1
  S  S10  1  0.43918000  0.88071900  0.56741000  1
  S  S11  1  0.65106700  0.31082000  0.81741000  1
  S  S12  1  0.86928100  0.66883200  0.31741000  1
  S  S13  1  0.43918000  0.09893300  0.43259000  1
  S  S14  1  0.08116800  0.88071900  0.93259000  1
  S  S15  1  0.86928100  0.31082000  0.68259000  1
  S  S16  1  0.65106700  0.66883200  0.18259000  1
  Cl  Cl1  1  0.78699900  0.90170900  0.86634400  1
  Cl  Cl2  1  0.73335000  0.07794300  0.36634400  1
  Cl  Cl3  1  0.34829100  0.51665000  0.11634400  1
  Cl  Cl4  1  0.17205700  0.46300100  0.61634400  1
  Cl  Cl5  1  0.73335000  0.90170900  0.63365600  1
  Cl  Cl6  1  0.78699900  0.07794300  0.13365600  1
  Cl  Cl7  1  0.17205700  0.51665000  0.38365600  1
  Cl  Cl8  1  0.34829100  0.46300100  0.88365600  1
  Cl  Cl9  1  0.23335000  0.07794300  0.13365600  1
  Cl  Cl10  1  0.28699900  0.90170900  0.63365600  1
  Cl  Cl11  1  0.67205700  0.46300100  0.88365600  1
  Cl  Cl12  1  0.84829100  0.51665000  0.38365600  1
  Cl  Cl13  1  0.28699900  0.07794300  0.36634400  1
  Cl  Cl14  1  0.23335000  0.90170900  0.86634400  1
  Cl  Cl15  1  0.84829100  0.46300100  0.61634400  1
  Cl  Cl16  1  0.67205700  0.51665000  0.11634400  1
  O  O1  1  0.06284500  0.99796400  0.92777200  1
  O  O2  1  0.06284500  0.49796400  0.07222800  1
  O  O3  1  0.06284500  0.55617500  0.00885900  1
  O  O4  1  0.06284500  0.42347700  0.99114100  1
  O  O5  1  0.06284500  0.48168800  0.92777200  1
  O  O6  1  0.95750400  0.42347700  0.99114100  1
  O  O7  1  0.95750400  0.48168800  0.92777200  1
  O  O8  1  0.95750400  0.49796400  0.07222800  1
  O  O9  1  0.95750400  0.55617500  0.00885900  1
  O  O10  1  0.06284500  0.98168800  0.07222800  1
  O  O11  1  0.06284500  0.92347700  0.00885900  1
  O  O12  1  0.79414400  0.87568500  0.98769700  1
  O  O13  1  0.72620500  0.10396600  0.48769700  1
  O  O14  1  0.37431500  0.52379500  0.23769700  1
  O  O15  1  0.56284500  0.99796400  0.57222800  1
  O  O16  1  0.56284500  0.05617500  0.50885900  1
  O  O17  1  0.14603400  0.45585600  0.73769700  1
  O  O18  1  0.56284500  0.92347700  0.49114100  1
  O  O19  1  0.72620500  0.87568500  0.51230300  1
  O  O20  1  0.56284500  0.98168800  0.42777200  1
  O  O21  1  0.79414400  0.10396600  0.01230300  1
  O  O22  1  0.45750400  0.92347700  0.49114100  1
  O  O23  1  0.45750400  0.98168800  0.42777200  1
  O  O24  1  0.14603400  0.52379500  0.26230300  1
  O  O25  1  0.45750400  0.99796400  0.57222800  1
  O  O26  1  0.37431500  0.45585600  0.76230300  1
  O  O27  1  0.45750400  0.05617500  0.50885900  1
  O  O28  1  0.22620500  0.10396600  0.01230300  1
  O  O29  1  0.95750400  0.98168800  0.07222800  1
  O  O30  1  0.29414400  0.87568500  0.51230300  1
  O  O31  1  0.26831200  0.68715500  0.32222800  1
  O  O32  1  0.32652300  0.68715500  0.25885900  1
  O  O33  1  0.64603400  0.45585600  0.76230300  1
  O  O34  1  0.87431500  0.52379500  0.26230300  1
  O  O35  1  0.19382500  0.68715500  0.24114100  1
  O  O36  1  0.25203600  0.68715500  0.17777200  1
  O  O37  1  0.29414400  0.10396600  0.48769700  1
  O  O38  1  0.19382500  0.79249600  0.24114100  1
  O  O39  1  0.22620500  0.87568500  0.98769700  1
  O  O40  1  0.25203600  0.79249600  0.17777200  1
  O  O41  1  0.87431500  0.45585600  0.73769700  1
  O  O42  1  0.95750400  0.92347700  0.00885900  1
  O  O43  1  0.26831200  0.79249600  0.32222800  1
  O  O44  1  0.32652300  0.79249600  0.25885900  1
  O  O45  1  0.64603400  0.52379500  0.23769700  1
  O  O46  1  0.25203600  0.29249600  0.82222800  1
  O  O47  1  0.19382500  0.29249600  0.75885900  1
  O  O48  1  0.32652300  0.29249600  0.74114100  1
  O  O49  1  0.26831200  0.29249600  0.67777200  1
  O  O50  1  0.32652300  0.18715500  0.74114100  1
  O  O51  1  0.26831200  0.18715500  0.67777200  1
  O  O52  1  0.25203600  0.18715500  0.82222800  1
  O  O53  1  0.19382500  0.18715500  0.75885900  1
  O  O54  1  0.75203600  0.29249600  0.67777200  1
  O  O55  1  0.95750400  0.05617500  0.99114100  1
  O  O56  1  0.69382500  0.29249600  0.74114100  1
  O  O57  1  0.82652300  0.29249600  0.75885900  1
  O  O58  1  0.76831200  0.29249600  0.82222800  1
  O  O59  1  0.82652300  0.18715500  0.75885900  1
  O  O60  1  0.76831200  0.18715500  0.82222800  1
  O  O61  1  0.75203600  0.18715500  0.67777200  1
  O  O62  1  0.69382500  0.18715500  0.74114100  1
  O  O63  1  0.95750400  0.99796400  0.92777200  1
  O  O64  1  0.76831200  0.68715500  0.17777200  1
  O  O65  1  0.82652300  0.68715500  0.24114100  1
  O  O66  1  0.69382500  0.68715500  0.25885900  1
  O  O67  1  0.75203600  0.68715500  0.32222800  1
  O  O68  1  0.69382500  0.79249600  0.25885900  1
  O  O69  1  0.75203600  0.79249600  0.32222800  1
  O  O70  1  0.76831200  0.79249600  0.17777200  1
  O  O71  1  0.82652300  0.79249600  0.24114100  1
  O  O72  1  0.45750400  0.48168800  0.57222800  1
  O  O73  1  0.45750400  0.42347700  0.50885900  1
  O  O74  1  0.06284500  0.05617500  0.99114100  1
  O  O75  1  0.45750400  0.55617500  0.49114100  1
  O  O76  1  0.45750400  0.49796400  0.42777200  1
  O  O77  1  0.56284500  0.55617500  0.49114100  1
  O  O78  1  0.56284500  0.49796400  0.42777200  1
  O  O79  1  0.56284500  0.48168800  0.57222800  1
  O  O80  1  0.56284500  0.42347700  0.50885900  1
