# generated using pymatgen
data_CuH5C11ClO6
_symmetry_space_group_name_H-M   'P 1'
_cell_length_a   22.37570000
_cell_length_b   22.37570000
_cell_length_c   22.37570000
_cell_angle_alpha   90.00000000
_cell_angle_beta   90.00000000
_cell_angle_gamma   90.00000000
_symmetry_Int_Tables_number   1
_chemical_formula_structural   CuH5C11ClO6
_chemical_formula_sum   'Cu12 H60 C132 Cl12 O72'
_cell_volume   11202.88536258
_cell_formula_units_Z   12
loop_
 _symmetry_equiv_pos_site_id
 _symmetry_equiv_pos_as_xyz
  1  'x, y, z'
loop_
 _atom_site_type_symbol
 _atom_site_label
 _atom_site_symmetry_multiplicity
 _atom_site_fract_x
 _atom_site_fract_y
 _atom_site_fract_z
 _atom_site_occupancy
  Cu  Cu1  1  0.94066600  0.50000000  0.50000000  1
  Cu  Cu2  1  0.05933400  0.50000000  0.50000000  1
  Cu  Cu3  1  0.50000000  0.94066600  0.50000000  1
  Cu  Cu4  1  0.50000000  0.05933400  0.50000000  1
  Cu  Cu5  1  0.50000000  0.50000000  0.94066600  1
  Cu  Cu6  1  0.50000000  0.50000000  0.05933400  1
  Cu  Cu7  1  0.44066600  0.00000000  0.00000000  1
  Cu  Cu8  1  0.55933400  0.00000000  0.00000000  1
  Cu  Cu9  1  0.00000000  0.44066600  0.00000000  1
  Cu  Cu10  1  0.00000000  0.55933400  0.00000000  1
  Cu  Cu11  1  0.00000000  0.00000000  0.44066600  1
  Cu  Cu12  1  0.00000000  0.00000000  0.55933400  1
  H  H1  1  0.09613100  0.43542200  0.86210300  1
  H  H2  1  0.12835000  0.38061200  0.74378600  1
  H  H3  1  0.17390300  0.36929400  0.87406900  1
  H  H4  1  0.22280900  0.38421200  0.81573700  1
  H  H5  1  0.18252900  0.31747100  0.81538200  1
  H  H6  1  0.13789700  0.90386900  0.43542200  1
  H  H7  1  0.25621400  0.87165000  0.38061200  1
  H  H8  1  0.12593100  0.82609700  0.36929400  1
  H  H9  1  0.18426300  0.77719100  0.38421200  1
  H  H10  1  0.18461800  0.81747100  0.31747100  1
  H  H11  1  0.86210300  0.09613100  0.43542200  1
  H  H12  1  0.74378600  0.12835000  0.38061200  1
  H  H13  1  0.87406900  0.17390300  0.36929400  1
  H  H14  1  0.81573700  0.22280900  0.38421200  1
  H  H15  1  0.81538200  0.18252900  0.31747100  1
  H  H16  1  0.43542200  0.13789700  0.90386900  1
  H  H17  1  0.38061200  0.25621400  0.87165000  1
  H  H18  1  0.36929400  0.12593100  0.82609700  1
  H  H19  1  0.38421200  0.18426300  0.77719100  1
  H  H20  1  0.31747100  0.18461800  0.81747100  1
  H  H21  1  0.43542200  0.86210300  0.09613100  1
  H  H22  1  0.38061200  0.74378600  0.12835000  1
  H  H23  1  0.36929400  0.87406900  0.17390300  1
  H  H24  1  0.38421200  0.81573700  0.22280900  1
  H  H25  1  0.31747100  0.81538200  0.18252900  1
  H  H26  1  0.43542200  0.90386900  0.86210300  1
  H  H27  1  0.38061200  0.87165000  0.74378600  1
  H  H28  1  0.36929400  0.82609700  0.87406900  1
  H  H29  1  0.38421200  0.77719100  0.81573700  1
  H  H30  1  0.31747100  0.81747100  0.81538200  1
  H  H31  1  0.43542200  0.09613100  0.13789700  1
  H  H32  1  0.38061200  0.12835000  0.25621400  1
  H  H33  1  0.36929400  0.17390300  0.12593100  1
  H  H34  1  0.38421200  0.22280900  0.18426300  1
  H  H35  1  0.31747100  0.18252900  0.18461800  1
  H  H36  1  0.90386900  0.13789700  0.56457800  1
  H  H37  1  0.87165000  0.25621400  0.61938800  1
  H  H38  1  0.82609700  0.12593100  0.63070600  1
  H  H39  1  0.77719100  0.18426300  0.61578800  1
  H  H40  1  0.81747100  0.18461800  0.68252900  1
  H  H41  1  0.09613100  0.86210300  0.56457800  1
  H  H42  1  0.12835000  0.74378600  0.61938800  1
  H  H43  1  0.17390300  0.87406900  0.63070600  1
  H  H44  1  0.22280900  0.81573700  0.61578800  1
  H  H45  1  0.18252900  0.81538200  0.68252900  1
  H  H46  1  0.13789700  0.43542200  0.09613100  1
  H  H47  1  0.25621400  0.38061200  0.12835000  1
  H  H48  1  0.12593100  0.36929400  0.17390300  1
  H  H49  1  0.18426300  0.38421200  0.22280900  1
  H  H50  1  0.18461800  0.31747100  0.18252900  1
  H  H51  1  0.86210300  0.43542200  0.90386900  1
  H  H52  1  0.74378600  0.38061200  0.87165000  1
  H  H53  1  0.87406900  0.36929400  0.82609700  1
  H  H54  1  0.81573700  0.38421200  0.77719100  1
  H  H55  1  0.81538200  0.31747100  0.81747100  1
  H  H56  1  0.90386900  0.43542200  0.13789700  1
  H  H57  1  0.87165000  0.38061200  0.25621400  1
  H  H58  1  0.82609700  0.36929400  0.12593100  1
  H  H59  1  0.77719100  0.38421200  0.18426300  1
  H  H60  1  0.81747100  0.31747100  0.18461800  1
  C  C1  1  0.08925700  0.43051700  0.81532200  1
  C  C2  1  0.12752500  0.39242600  0.79025500  1
  C  C3  1  0.17801500  0.36577100  0.82494300  1
  C  C4  1  0.04585000  0.46119700  0.78738600  1
  C  C5  1  0.00000000  0.61271000  0.50000000  1
  C  C6  1  0.00694600  0.49552300  0.81900100  1
  C  C7  1  0.96095500  0.53469400  0.77951200  1
  C  C8  1  0.95700000  0.53548500  0.71059700  1
  C  C9  1  0.99692300  0.50078200  0.68000200  1
  C  C10  1  0.04412100  0.46542600  0.71655800  1
  C  C11  1  0.18467800  0.91074300  0.43051700  1
  C  C12  1  0.20974500  0.87247500  0.39242600  1
  C  C13  1  0.17505700  0.82198500  0.36577100  1
  C  C14  1  0.21261400  0.95415000  0.46119700  1
  C  C15  1  0.18099900  0.99305400  0.49552300  1
  C  C16  1  0.22048800  0.03904500  0.53469400  1
  C  C17  1  0.28940300  0.04300000  0.53548500  1
  C  C18  1  0.31999800  0.00307700  0.50078200  1
  C  C19  1  0.28344200  0.95587900  0.46542600  1
  C  C20  1  0.81532200  0.08925700  0.43051700  1
  C  C21  1  0.79025500  0.12752500  0.39242600  1
  C  C22  1  0.82494300  0.17801500  0.36577100  1
  C  C23  1  0.78738600  0.04585000  0.46119700  1
  C  C24  1  0.81900100  0.00694600  0.49552300  1
  C  C25  1  0.77951200  0.96095500  0.53469400  1
  C  C26  1  0.71059700  0.95700000  0.53548500  1
  C  C27  1  0.68000200  0.99692300  0.50078200  1
  C  C28  1  0.71655800  0.04412100  0.46542600  1
  C  C29  1  0.43051700  0.18467800  0.91074300  1
  C  C30  1  0.39242600  0.20974500  0.87247500  1
  C  C31  1  0.36577100  0.17505700  0.82198500  1
  C  C32  1  0.38729000  0.00000000  0.50000000  1
  C  C33  1  0.46119700  0.21261400  0.95415000  1
  C  C34  1  0.49552300  0.18099900  0.99305400  1
  C  C35  1  0.53469400  0.22048800  0.03904500  1
  C  C36  1  0.53548500  0.28940300  0.04300000  1
  C  C37  1  0.50078200  0.31999800  0.00307700  1
  C  C38  1  0.46542600  0.28344200  0.95587900  1
  C  C39  1  0.43051700  0.81532200  0.08925700  1
  C  C40  1  0.39242600  0.79025500  0.12752500  1
  C  C41  1  0.36577100  0.82494300  0.17801500  1
  C  C42  1  0.46119700  0.78738600  0.04585000  1
  C  C43  1  0.49552300  0.81900100  0.00694600  1
  C  C44  1  0.53469400  0.77951200  0.96095500  1
  C  C45  1  0.53548500  0.71059700  0.95700000  1
  C  C46  1  0.50078200  0.68000200  0.99692300  1
  C  C47  1  0.46542600  0.71655800  0.04412100  1
  C  C48  1  0.43051700  0.91074300  0.81532200  1
  C  C49  1  0.39242600  0.87247500  0.79025500  1
  C  C50  1  0.36577100  0.82198500  0.82494300  1
  C  C51  1  0.50000000  0.00000000  0.38729000  1
  C  C52  1  0.46119700  0.95415000  0.78738600  1
  C  C53  1  0.49552300  0.99305400  0.81900100  1
  C  C54  1  0.53469400  0.03904500  0.77951200  1
  C  C55  1  0.53548500  0.04300000  0.71059700  1
  C  C56  1  0.50078200  0.00307700  0.68000200  1
  C  C57  1  0.00000000  0.50000000  0.38729000  1
  C  C58  1  0.46542600  0.95587900  0.71655800  1
  C  C59  1  0.43051700  0.08925700  0.18467800  1
  C  C60  1  0.39242600  0.12752500  0.20974500  1
  C  C61  1  0.36577100  0.17801500  0.17505700  1
  C  C62  1  0.46119700  0.04585000  0.21261400  1
  C  C63  1  0.49552300  0.00694600  0.18099900  1
  C  C64  1  0.53469400  0.96095500  0.22048800  1
  C  C65  1  0.53548500  0.95700000  0.28940300  1
  C  C66  1  0.50078200  0.99692300  0.31999800  1
  C  C67  1  0.46542600  0.04412100  0.28344200  1
  C  C68  1  0.61271000  0.00000000  0.50000000  1
  C  C69  1  0.91074300  0.18467800  0.56948300  1
  C  C70  1  0.87247500  0.20974500  0.60757400  1
  C  C71  1  0.82198500  0.17505700  0.63422900  1
  C  C72  1  0.95415000  0.21261400  0.53880300  1
  C  C73  1  0.99305400  0.18099900  0.50447700  1
  C  C74  1  0.03904500  0.22048800  0.46530600  1
  C  C75  1  0.04300000  0.28940300  0.46451500  1
  C  C76  1  0.00307700  0.31999800  0.49921800  1
  C  C77  1  0.95587900  0.28344200  0.53457400  1
  C  C78  1  0.08925700  0.81532200  0.56948300  1
  C  C79  1  0.12752500  0.79025500  0.60757400  1
  C  C80  1  0.17801500  0.82494300  0.63422900  1
  C  C81  1  0.04585000  0.78738600  0.53880300  1
  C  C82  1  0.00694600  0.81900100  0.50447700  1
  C  C83  1  0.96095500  0.77951200  0.46530600  1
  C  C84  1  0.95700000  0.71059700  0.46451500  1
  C  C85  1  0.50000000  0.00000000  0.61271000  1
  C  C86  1  0.99692300  0.68000200  0.49921800  1
  C  C87  1  0.04412100  0.71655800  0.53457400  1
  C  C88  1  0.18467800  0.43051700  0.08925700  1
  C  C89  1  0.20974500  0.39242600  0.12752500  1
  C  C90  1  0.17505700  0.36577100  0.17801500  1
  C  C91  1  0.21261400  0.46119700  0.04585000  1
  C  C92  1  0.18099900  0.49552300  0.00694600  1
  C  C93  1  0.22048800  0.53469400  0.96095500  1
  C  C94  1  0.28940300  0.53548500  0.95700000  1
  C  C95  1  0.31999800  0.50078200  0.99692300  1
  C  C96  1  0.28344200  0.46542600  0.04412100  1
  C  C97  1  0.81532200  0.43051700  0.91074300  1
  C  C98  1  0.79025500  0.39242600  0.87247500  1
  C  C99  1  0.82494300  0.36577100  0.82198500  1
  C  C100  1  0.78738600  0.46119700  0.95415000  1
  C  C101  1  0.81900100  0.49552300  0.99305400  1
  C  C102  1  0.77951200  0.53469400  0.03904500  1
  C  C103  1  0.71059700  0.53548500  0.04300000  1
  C  C104  1  0.68000200  0.50078200  0.00307700  1
  C  C105  1  0.71655800  0.46542600  0.95587900  1
  C  C106  1  0.50000000  0.38729000  0.00000000  1
  C  C107  1  0.38729000  0.50000000  0.00000000  1
  C  C108  1  0.50000000  0.61271000  0.00000000  1
  C  C109  1  0.61271000  0.50000000  0.00000000  1
  C  C110  1  0.50000000  0.00000000  0.88729000  1
  C  C111  1  0.50000000  0.88729000  0.00000000  1
  C  C112  1  0.00000000  0.38729000  0.50000000  1
  C  C113  1  0.50000000  0.00000000  0.11271000  1
  C  C114  1  0.50000000  0.11271000  0.00000000  1
  C  C115  1  0.88729000  0.50000000  0.00000000  1
  C  C116  1  0.00000000  0.50000000  0.88729000  1
  C  C117  1  0.11271000  0.50000000  0.00000000  1
  C  C118  1  0.00000000  0.50000000  0.11271000  1
  C  C119  1  0.00000000  0.88729000  0.50000000  1
  C  C120  1  0.88729000  0.00000000  0.50000000  1
  C  C121  1  0.00000000  0.11271000  0.50000000  1
  C  C122  1  0.00000000  0.50000000  0.61271000  1
  C  C123  1  0.11271000  0.00000000  0.50000000  1
  C  C124  1  0.91074300  0.43051700  0.18467800  1
  C  C125  1  0.87247500  0.39242600  0.20974500  1
  C  C126  1  0.82198500  0.36577100  0.17505700  1
  C  C127  1  0.95415000  0.46119700  0.21261400  1
  C  C128  1  0.99305400  0.49552300  0.18099900  1
  C  C129  1  0.03904500  0.53469400  0.22048800  1
  C  C130  1  0.04300000  0.53548500  0.28940300  1
  C  C131  1  0.00307700  0.50078200  0.31999800  1
  C  C132  1  0.95587900  0.46542600  0.28344200  1
  Cl  Cl1  1  0.09366500  0.58504000  0.32271600  1
  Cl  Cl2  1  0.90633500  0.58504000  0.67728400  1
  Cl  Cl3  1  0.32271600  0.09366500  0.58504000  1
  Cl  Cl4  1  0.67728400  0.90633500  0.58504000  1
  Cl  Cl5  1  0.58504000  0.32271600  0.09366500  1
  Cl  Cl6  1  0.58504000  0.67728400  0.90633500  1
  Cl  Cl7  1  0.58504000  0.09366500  0.67728400  1
  Cl  Cl8  1  0.58504000  0.90633500  0.32271600  1
  Cl  Cl9  1  0.09366500  0.32271600  0.41496000  1
  Cl  Cl10  1  0.90633500  0.67728400  0.41496000  1
  Cl  Cl11  1  0.32271600  0.58504000  0.90633500  1
  Cl  Cl12  1  0.67728400  0.58504000  0.09366500  1
  O  O1  1  0.95278100  0.50000000  0.58544800  1
  O  O2  1  0.92080300  0.56353900  0.80472500  1
  O  O3  1  0.07824500  0.43552500  0.68599500  1
  O  O4  1  0.04721900  0.58544800  0.50000000  1
  O  O5  1  0.19527500  0.07919700  0.56353900  1
  O  O6  1  0.95278100  0.58544800  0.50000000  1
  O  O7  1  0.31400500  0.92175500  0.43552500  1
  O  O8  1  0.80472500  0.92080300  0.56353900  1
  O  O9  1  0.68599500  0.07824500  0.43552500  1
  O  O10  1  0.56353900  0.19527500  0.07919700  1
  O  O11  1  0.43552500  0.31400500  0.92175500  1
  O  O12  1  0.41455200  0.04721900  0.50000000  1
  O  O13  1  0.41455200  0.95278100  0.50000000  1
  O  O14  1  0.56353900  0.80472500  0.92080300  1
  O  O15  1  0.43552500  0.68599500  0.07824500  1
  O  O16  1  0.56353900  0.07919700  0.80472500  1
  O  O17  1  0.50000000  0.04721900  0.41455200  1
  O  O18  1  0.43552500  0.92175500  0.68599500  1
  O  O19  1  0.50000000  0.95278100  0.41455200  1
  O  O20  1  0.56353900  0.92080300  0.19527500  1
  O  O21  1  0.43552500  0.07824500  0.31400500  1
  O  O22  1  0.58544800  0.04721900  0.50000000  1
  O  O23  1  0.07919700  0.19527500  0.43646100  1
  O  O24  1  0.92175500  0.31400500  0.56447500  1
  O  O25  1  0.58544800  0.95278100  0.50000000  1
  O  O26  1  0.92080300  0.80472500  0.43646100  1
  O  O27  1  0.07824500  0.68599500  0.56447500  1
  O  O28  1  0.50000000  0.04721900  0.58544800  1
  O  O29  1  0.19527500  0.56353900  0.92080300  1
  O  O30  1  0.31400500  0.43552500  0.07824500  1
  O  O31  1  0.50000000  0.95278100  0.58544800  1
  O  O32  1  0.80472500  0.56353900  0.07919700  1
  O  O33  1  0.68599500  0.43552500  0.92175500  1
  O  O34  1  0.04721900  0.50000000  0.41455200  1
  O  O35  1  0.50000000  0.41455200  0.04721900  1
  O  O36  1  0.50000000  0.41455200  0.95278100  1
  O  O37  1  0.41455200  0.50000000  0.04721900  1
  O  O38  1  0.41455200  0.50000000  0.95278100  1
  O  O39  1  0.50000000  0.58544800  0.04721900  1
  O  O40  1  0.50000000  0.58544800  0.95278100  1
  O  O41  1  0.95278100  0.50000000  0.41455200  1
  O  O42  1  0.58544800  0.50000000  0.04721900  1
  O  O43  1  0.58544800  0.50000000  0.95278100  1
  O  O44  1  0.54721900  0.00000000  0.91455200  1
  O  O45  1  0.45278100  0.00000000  0.91455200  1
  O  O46  1  0.54721900  0.91455200  0.00000000  1
  O  O47  1  0.45278100  0.91455200  0.00000000  1
  O  O48  1  0.54721900  0.00000000  0.08544800  1
  O  O49  1  0.45278100  0.00000000  0.08544800  1
  O  O50  1  0.54721900  0.08544800  0.00000000  1
  O  O51  1  0.45278100  0.08544800  0.00000000  1
  O  O52  1  0.91455200  0.54721900  0.00000000  1
  O  O53  1  0.04721900  0.41455200  0.50000000  1
  O  O54  1  0.91455200  0.45278100  0.00000000  1
  O  O55  1  0.00000000  0.54721900  0.91455200  1
  O  O56  1  0.00000000  0.45278100  0.91455200  1
  O  O57  1  0.08544800  0.54721900  0.00000000  1
  O  O58  1  0.08544800  0.45278100  0.00000000  1
  O  O59  1  0.00000000  0.54721900  0.08544800  1
  O  O60  1  0.00000000  0.45278100  0.08544800  1
  O  O61  1  0.95278100  0.41455200  0.50000000  1
  O  O62  1  0.00000000  0.91455200  0.54721900  1
  O  O63  1  0.00000000  0.91455200  0.45278100  1
  O  O64  1  0.91455200  0.00000000  0.54721900  1
  O  O65  1  0.91455200  0.00000000  0.45278100  1
  O  O66  1  0.00000000  0.08544800  0.54721900  1
  O  O67  1  0.00000000  0.08544800  0.45278100  1
  O  O68  1  0.08544800  0.00000000  0.54721900  1
  O  O69  1  0.08544800  0.00000000  0.45278100  1
  O  O70  1  0.04721900  0.50000000  0.58544800  1
  O  O71  1  0.07919700  0.56353900  0.19527500  1
  O  O72  1  0.92175500  0.43552500  0.31400500  1
