# generated using pymatgen
data_CuH6C12SO6
_symmetry_space_group_name_H-M   'P 1'
_cell_length_a   13.96770000
_cell_length_b   13.96770000
_cell_length_c   27.93540000
_cell_angle_alpha   90.00000000
_cell_angle_beta   90.00000000
_cell_angle_gamma   90.00000000
_symmetry_Int_Tables_number   1
_chemical_formula_structural   CuH6C12SO6
_chemical_formula_sum   'Cu4 H24 C48 S4 O24'
_cell_volume   5450.10276896
_cell_formula_units_Z   4
loop_
 _symmetry_equiv_pos_site_id
 _symmetry_equiv_pos_as_xyz
  1  'x, y, z'
loop_
 _atom_site_type_symbol
 _atom_site_label
 _atom_site_symmetry_multiplicity
 _atom_site_fract_x
 _atom_site_fract_y
 _atom_site_fract_z
 _atom_site_occupancy
  Cu  Cu1  1  0.90494900  0.00000000  0.00000000  1
  Cu  Cu2  1  0.09505100  0.00000000  0.00000000  1
  Cu  Cu3  1  0.00000000  0.90494900  0.50000000  1
  Cu  Cu4  1  0.00000000  0.09505100  0.50000000  1
  H  H1  1  0.88967100  0.08210400  0.74603000  1
  H  H2  1  0.07513100  0.89647400  0.83113200  1
  H  H3  1  0.92626300  0.01547100  0.68057200  1
  H  H4  1  0.20427900  0.82502600  0.75820600  1
  H  H5  1  0.20725600  0.79274400  0.67996400  1
  H  H6  1  0.13432700  0.88977400  0.56864900  1
  H  H7  1  0.91789600  0.88967100  0.24603000  1
  H  H8  1  0.10352600  0.07513100  0.33113200  1
  H  H9  1  0.98452900  0.92626300  0.18057200  1
  H  H10  1  0.17497400  0.20427900  0.25820600  1
  H  H11  1  0.20725600  0.20725600  0.17996400  1
  H  H12  1  0.11022600  0.13432700  0.06864900  1
  H  H13  1  0.13607000  0.49205900  0.99002100  1
  H  H14  1  0.87367000  0.66226400  0.98996100  1
  H  H15  1  0.06308000  0.36114400  0.97940000  1
  H  H16  1  0.73182800  0.51641200  0.01036100  1
  H  H17  1  0.70689600  0.35992800  0.00000000  1
  H  H18  1  0.82707500  0.13729800  0.00852100  1
  H  H19  1  0.50794100  0.13607000  0.49002100  1
  H  H20  1  0.33773600  0.87367000  0.48996100  1
  H  H21  1  0.63885600  0.06308000  0.47940000  1
  H  H22  1  0.48358800  0.73182800  0.51036100  1
  H  H23  1  0.64007200  0.70689600  0.50000000  1
  H  H24  1  0.86270200  0.82707500  0.50852100  1
  C  C1  1  0.00000000  0.00000000  0.90972200  1
  C  C2  1  0.00000000  0.81944300  0.00000000  1
  C  C3  1  0.00000000  0.00000000  0.09027800  1
  C  C4  1  0.00000000  0.18055700  0.00000000  1
  C  C5  1  0.00000000  0.00000000  0.40972200  1
  C  C6  1  0.18055700  0.00000000  0.50000000  1
  C  C7  1  0.00000000  0.00000000  0.59027800  1
  C  C8  1  0.81944300  0.00000000  0.50000000  1
  C  C9  1  0.92535400  0.04232200  0.77436800  1
  C  C10  1  0.99502300  0.97016500  0.77513000  1
  C  C11  1  0.01894300  0.94387200  0.82198400  1
  C  C12  1  0.97304600  0.99969500  0.85683600  1
  C  C13  1  0.04194900  0.95961900  0.63735700  1
  C  C14  1  0.99437100  0.97694600  0.68196000  1
  C  C15  1  0.02826000  0.93616400  0.72814600  1
  C  C16  1  0.09965600  0.86730400  0.72175900  1
  C  C17  1  0.14832200  0.84533900  0.67906700  1
  C  C18  1  0.12033300  0.89582600  0.63764800  1
  C  C19  1  0.95767800  0.92535400  0.27436800  1
  C  C20  1  0.02983500  0.99502300  0.27513000  1
  C  C21  1  0.05612800  0.01894300  0.32198400  1
  C  C22  1  0.00030500  0.97304600  0.35683600  1
  C  C23  1  0.04038100  0.04194900  0.13735700  1
  C  C24  1  0.02305400  0.99437100  0.18196000  1
  C  C25  1  0.06383600  0.02826000  0.22814600  1
  C  C26  1  0.13269600  0.09965600  0.22175900  1
  C  C27  1  0.15466100  0.14832200  0.17906700  1
  C  C28  1  0.10417400  0.12033300  0.13764800  1
  C  C29  1  0.08270900  0.54873600  0.98857200  1
  C  C30  1  0.98242300  0.55026000  0.98769200  1
  C  C31  1  0.94691700  0.64396700  0.98685300  1
  C  C32  1  0.01884400  0.71367200  0.99036200  1
  C  C33  1  0.94178400  0.27471400  0.00055400  1
  C  C34  1  0.98767800  0.36392100  0.98985900  1
  C  C35  1  0.93487900  0.45629200  0.98742200  1
  C  C36  1  0.83570200  0.44351800  0.98831900  1
  C  C37  1  0.78575900  0.35813400  0.99775900  1
  C  C38  1  0.84124900  0.27529600  0.00571300  1
  C  C39  1  0.45126400  0.08270900  0.48857200  1
  C  C40  1  0.44974000  0.98242300  0.48769200  1
  C  C41  1  0.35603300  0.94691700  0.48685300  1
  C  C42  1  0.28632800  0.01884400  0.49036200  1
  C  C43  1  0.72528600  0.94178400  0.50055400  1
  C  C44  1  0.63607900  0.98767800  0.48985900  1
  C  C45  1  0.54370800  0.93487900  0.48742200  1
  C  C46  1  0.55648200  0.83570200  0.48831900  1
  C  C47  1  0.64186600  0.78575900  0.49775900  1
  C  C48  1  0.72470400  0.84124900  0.50571300  1
  S  S1  1  0.88129700  0.06062900  0.83080100  1
  S  S2  1  0.93937100  0.88129700  0.33080100  1
  S  S3  1  0.12680700  0.66160100  0.97946800  1
  S  S4  1  0.33839900  0.12680700  0.47946800  1
  O  O1  1  0.07564300  0.00000000  0.93155800  1
  O  O2  1  0.92435700  0.00000000  0.93155800  1
  O  O3  1  0.07564300  0.86311600  0.00000000  1
  O  O4  1  0.92435700  0.86311600  0.00000000  1
  O  O5  1  0.07564300  0.00000000  0.06844200  1
  O  O6  1  0.92435700  0.00000000  0.06844200  1
  O  O7  1  0.07564300  0.13688400  0.00000000  1
  O  O8  1  0.92435700  0.13688400  0.00000000  1
  O  O9  1  0.00000000  0.07564300  0.43155800  1
  O  O10  1  0.00000000  0.92435700  0.43155800  1
  O  O11  1  0.13688400  0.07564300  0.50000000  1
  O  O12  1  0.13688400  0.92435700  0.50000000  1
  O  O13  1  0.00000000  0.07564300  0.56844200  1
  O  O14  1  0.00000000  0.92435700  0.56844200  1
  O  O15  1  0.86311600  0.07564300  0.50000000  1
  O  O16  1  0.86311600  0.92435700  0.50000000  1
  O  O17  1  0.13508600  0.81630000  0.76175500  1
  O  O18  1  0.17173800  0.87484500  0.59692900  1
  O  O19  1  0.18370000  0.13508600  0.26175500  1
  O  O20  1  0.12515500  0.17173800  0.09692900  1
  O  O21  1  0.77458500  0.52351100  0.98281200  1
  O  O22  1  0.79006500  0.19385900  0.01647000  1
  O  O23  1  0.47648900  0.77458500  0.48281200  1
  O  O24  1  0.80614100  0.79006500  0.51647000  1
