# generated using pymatgen
data_CuH9C11NO5
_symmetry_space_group_name_H-M   'P 1'
_cell_length_a   21.94790000
_cell_length_b   21.94790000
_cell_length_c   21.94790000
_cell_angle_alpha   90.00000000
_cell_angle_beta   90.00000000
_cell_angle_gamma   90.00000000
_symmetry_Int_Tables_number   1
_chemical_formula_structural   CuH9C11NO5
_chemical_formula_sum   'Cu12 H108 C132 N12 O60'
_cell_volume   10572.52980964
_cell_formula_units_Z   12
loop_
 _symmetry_equiv_pos_site_id
 _symmetry_equiv_pos_as_xyz
  1  'x, y, z'
loop_
 _atom_site_type_symbol
 _atom_site_label
 _atom_site_symmetry_multiplicity
 _atom_site_fract_x
 _atom_site_fract_y
 _atom_site_fract_z
 _atom_site_occupancy
  Cu  Cu1  1  0.93950900  0.50000000  0.50000000  1
  Cu  Cu2  1  0.06049100  0.50000000  0.50000000  1
  Cu  Cu3  1  0.50000000  0.93950900  0.50000000  1
  Cu  Cu4  1  0.50000000  0.06049100  0.50000000  1
  Cu  Cu5  1  0.50000000  0.50000000  0.93950900  1
  Cu  Cu6  1  0.50000000  0.50000000  0.06049100  1
  Cu  Cu7  1  0.43950900  0.00000000  0.00000000  1
  Cu  Cu8  1  0.56049100  0.00000000  0.00000000  1
  Cu  Cu9  1  0.00000000  0.43950900  0.00000000  1
  Cu  Cu10  1  0.00000000  0.56049100  0.00000000  1
  Cu  Cu11  1  0.00000000  0.00000000  0.43950900  1
  Cu  Cu12  1  0.00000000  0.00000000  0.56049100  1
  H  H1  1  0.83915900  0.47030500  0.30696700  1
  H  H2  1  0.87666500  0.46656000  0.37323800  1
  H  H3  1  0.94671700  0.58145400  0.69622500  1
  H  H4  1  0.06367200  0.42943200  0.81305800  1
  H  H5  1  0.08792400  0.37901000  0.73136800  1
  H  H6  1  0.05476200  0.38910000  0.65929400  1
  H  H7  1  0.11468500  0.34011800  0.58465000  1
  H  H8  1  0.17842500  0.38378000  0.55136900  1
  H  H9  1  0.18805400  0.31194600  0.58914500  1
  H  H10  1  0.16084100  0.47030500  0.69303300  1
  H  H11  1  0.12333500  0.46656000  0.62676200  1
  H  H12  1  0.30377500  0.05328300  0.58145400  1
  H  H13  1  0.18694200  0.93632800  0.42943200  1
  H  H14  1  0.26863200  0.91207600  0.37901000  1
  H  H15  1  0.34070600  0.94523800  0.38910000  1
  H  H16  1  0.41535000  0.88531500  0.34011800  1
  H  H17  1  0.44863100  0.82157500  0.38378000  1
  H  H18  1  0.41085500  0.81194600  0.31194600  1
  H  H19  1  0.30696700  0.83915900  0.47030500  1
  H  H20  1  0.37323800  0.87666500  0.46656000  1
  H  H21  1  0.69622500  0.94671700  0.58145400  1
  H  H22  1  0.81305800  0.06367200  0.42943200  1
  H  H23  1  0.73136800  0.08792400  0.37901000  1
  H  H24  1  0.65929400  0.05476200  0.38910000  1
  H  H25  1  0.58465000  0.11468500  0.34011800  1
  H  H26  1  0.55136900  0.17842500  0.38378000  1
  H  H27  1  0.58914500  0.18805400  0.31194600  1
  H  H28  1  0.69303300  0.16084100  0.47030500  1
  H  H29  1  0.62676200  0.12333500  0.46656000  1
  H  H30  1  0.58145400  0.30377500  0.05328300  1
  H  H31  1  0.42943200  0.18694200  0.93632800  1
  H  H32  1  0.37901000  0.26863200  0.91207600  1
  H  H33  1  0.38910000  0.34070600  0.94523800  1
  H  H34  1  0.34011800  0.41535000  0.88531500  1
  H  H35  1  0.38378000  0.44863100  0.82157500  1
  H  H36  1  0.31194600  0.41085500  0.81194600  1
  H  H37  1  0.47030500  0.30696700  0.83915900  1
  H  H38  1  0.46656000  0.37323800  0.87666500  1
  H  H39  1  0.58145400  0.69622500  0.94671700  1
  H  H40  1  0.42943200  0.81305800  0.06367200  1
  H  H41  1  0.37901000  0.73136800  0.08792400  1
  H  H42  1  0.38910000  0.65929400  0.05476200  1
  H  H43  1  0.34011800  0.58465000  0.11468500  1
  H  H44  1  0.38378000  0.55136900  0.17842500  1
  H  H45  1  0.31194600  0.58914500  0.18805400  1
  H  H46  1  0.47030500  0.69303300  0.16084100  1
  H  H47  1  0.46656000  0.62676200  0.12333500  1
  H  H48  1  0.58145400  0.05328300  0.69622500  1
  H  H49  1  0.42943200  0.93632800  0.81305800  1
  H  H50  1  0.37901000  0.91207600  0.73136800  1
  H  H51  1  0.38910000  0.94523800  0.65929400  1
  H  H52  1  0.34011800  0.88531500  0.58465000  1
  H  H53  1  0.38378000  0.82157500  0.55136900  1
  H  H54  1  0.31194600  0.81194600  0.58914500  1
  H  H55  1  0.47030500  0.83915900  0.69303300  1
  H  H56  1  0.46656000  0.87666500  0.62676200  1
  H  H57  1  0.58145400  0.94671700  0.30377500  1
  H  H58  1  0.42943200  0.06367200  0.18694200  1
  H  H59  1  0.37901000  0.08792400  0.26863200  1
  H  H60  1  0.38910000  0.05476200  0.34070600  1
  H  H61  1  0.34011800  0.11468500  0.41535000  1
  H  H62  1  0.38378000  0.17842500  0.44863100  1
  H  H63  1  0.31194600  0.18805400  0.41085500  1
  H  H64  1  0.47030500  0.16084100  0.30696700  1
  H  H65  1  0.46656000  0.12333500  0.37323800  1
  H  H66  1  0.05328300  0.30377500  0.41854600  1
  H  H67  1  0.93632800  0.18694200  0.57056800  1
  H  H68  1  0.91207600  0.26863200  0.62099000  1
  H  H69  1  0.94523800  0.34070600  0.61090000  1
  H  H70  1  0.88531500  0.41535000  0.65988200  1
  H  H71  1  0.82157500  0.44863100  0.61622000  1
  H  H72  1  0.81194600  0.41085500  0.68805400  1
  H  H73  1  0.83915900  0.30696700  0.52969500  1
  H  H74  1  0.87666500  0.37323800  0.53344000  1
  H  H75  1  0.94671700  0.69622500  0.41854600  1
  H  H76  1  0.06367200  0.81305800  0.57056800  1
  H  H77  1  0.08792400  0.73136800  0.62099000  1
  H  H78  1  0.05476200  0.65929400  0.61090000  1
  H  H79  1  0.11468500  0.58465000  0.65988200  1
  H  H80  1  0.17842500  0.55136900  0.61622000  1
  H  H81  1  0.18805400  0.58914500  0.68805400  1
  H  H82  1  0.16084100  0.69303300  0.52969500  1
  H  H83  1  0.12333500  0.62676200  0.53344000  1
  H  H84  1  0.30377500  0.58145400  0.94671700  1
  H  H85  1  0.18694200  0.42943200  0.06367200  1
  H  H86  1  0.26863200  0.37901000  0.08792400  1
  H  H87  1  0.34070600  0.38910000  0.05476200  1
  H  H88  1  0.41535000  0.34011800  0.11468500  1
  H  H89  1  0.44863100  0.38378000  0.17842500  1
  H  H90  1  0.41085500  0.31194600  0.18805400  1
  H  H91  1  0.30696700  0.47030500  0.16084100  1
  H  H92  1  0.37323800  0.46656000  0.12333500  1
  H  H93  1  0.69622500  0.58145400  0.05328300  1
  H  H94  1  0.81305800  0.42943200  0.93632800  1
  H  H95  1  0.73136800  0.37901000  0.91207600  1
  H  H96  1  0.65929400  0.38910000  0.94523800  1
  H  H97  1  0.58465000  0.34011800  0.88531500  1
  H  H98  1  0.55136900  0.38378000  0.82157500  1
  H  H99  1  0.58914500  0.31194600  0.81194600  1
  H  H100  1  0.69303300  0.47030500  0.83915900  1
  H  H101  1  0.62676200  0.46656000  0.87666500  1
  H  H102  1  0.05328300  0.58145400  0.30377500  1
  H  H103  1  0.93632800  0.42943200  0.18694200  1
  H  H104  1  0.91207600  0.37901000  0.26863200  1
  H  H105  1  0.94523800  0.38910000  0.34070600  1
  H  H106  1  0.88531500  0.34011800  0.41535000  1
  H  H107  1  0.82157500  0.38378000  0.44863100  1
  H  H108  1  0.81194600  0.31194600  0.41085500  1
  C  C1  1  0.86488200  0.43987400  0.33548400  1
  C  C2  1  0.00631000  0.50284800  0.68776200  1
  C  C3  1  0.04102200  0.46156800  0.72127400  1
  C  C4  1  0.97039100  0.54445500  0.72083800  1
  C  C5  1  0.03650100  0.46153200  0.78514200  1
  C  C6  1  0.07971100  0.41268700  0.69542300  1
  C  C7  1  0.00000000  0.61490700  0.50000000  1
  C  C8  1  0.99766800  0.50355400  0.81318300  1
  C  C9  1  0.16198200  0.35344300  0.58858600  1
  C  C10  1  0.17412800  0.38667900  0.64858600  1
  C  C11  1  0.13511800  0.43987400  0.66451600  1
  C  C12  1  0.31223800  0.99369000  0.50284800  1
  C  C13  1  0.27872600  0.95897800  0.46156800  1
  C  C14  1  0.27916200  0.02960900  0.54445500  1
  C  C15  1  0.21485800  0.96349900  0.46153200  1
  C  C16  1  0.30457700  0.92028900  0.41268700  1
  C  C17  1  0.18681700  0.00233200  0.50355400  1
  C  C18  1  0.41141400  0.83801800  0.35344300  1
  C  C19  1  0.35141400  0.82587200  0.38667900  1
  C  C20  1  0.33548400  0.86488200  0.43987400  1
  C  C21  1  0.68776200  0.00631000  0.50284800  1
  C  C22  1  0.72127400  0.04102200  0.46156800  1
  C  C23  1  0.72083800  0.97039100  0.54445500  1
  C  C24  1  0.78514200  0.03650100  0.46153200  1
  C  C25  1  0.69542300  0.07971100  0.41268700  1
  C  C26  1  0.81318300  0.99766800  0.50355400  1
  C  C27  1  0.58858600  0.16198200  0.35344300  1
  C  C28  1  0.64858600  0.17412800  0.38667900  1
  C  C29  1  0.38509300  0.00000000  0.50000000  1
  C  C30  1  0.66451600  0.13511800  0.43987400  1
  C  C31  1  0.50284800  0.31223800  0.99369000  1
  C  C32  1  0.46156800  0.27872600  0.95897800  1
  C  C33  1  0.54445500  0.27916200  0.02960900  1
  C  C34  1  0.46153200  0.21485800  0.96349900  1
  C  C35  1  0.41268700  0.30457700  0.92028900  1
  C  C36  1  0.50355400  0.18681700  0.00233200  1
  C  C37  1  0.35344300  0.41141400  0.83801800  1
  C  C38  1  0.38667900  0.35141400  0.82587200  1
  C  C39  1  0.43987400  0.33548400  0.86488200  1
  C  C40  1  0.50284800  0.68776200  0.00631000  1
  C  C41  1  0.46156800  0.72127400  0.04102200  1
  C  C42  1  0.54445500  0.72083800  0.97039100  1
  C  C43  1  0.46153200  0.78514200  0.03650100  1
  C  C44  1  0.41268700  0.69542300  0.07971100  1
  C  C45  1  0.50000000  0.00000000  0.38509300  1
  C  C46  1  0.50355400  0.81318300  0.99766800  1
  C  C47  1  0.35344300  0.58858600  0.16198200  1
  C  C48  1  0.38667900  0.64858600  0.17412800  1
  C  C49  1  0.00000000  0.50000000  0.38509300  1
  C  C50  1  0.43987400  0.66451600  0.13511800  1
  C  C51  1  0.50284800  0.99369000  0.68776200  1
  C  C52  1  0.46156800  0.95897800  0.72127400  1
  C  C53  1  0.54445500  0.02960900  0.72083800  1
  C  C54  1  0.46153200  0.96349900  0.78514200  1
  C  C55  1  0.41268700  0.92028900  0.69542300  1
  C  C56  1  0.50355400  0.00233200  0.81318300  1
  C  C57  1  0.35344300  0.83801800  0.58858600  1
  C  C58  1  0.38667900  0.82587200  0.64858600  1
  C  C59  1  0.61490700  0.00000000  0.50000000  1
  C  C60  1  0.43987400  0.86488200  0.66451600  1
  C  C61  1  0.50284800  0.00631000  0.31223800  1
  C  C62  1  0.46156800  0.04102200  0.27872600  1
  C  C63  1  0.54445500  0.97039100  0.27916200  1
  C  C64  1  0.46153200  0.03650100  0.21485800  1
  C  C65  1  0.41268700  0.07971100  0.30457700  1
  C  C66  1  0.50355400  0.99766800  0.18681700  1
  C  C67  1  0.35344300  0.16198200  0.41141400  1
  C  C68  1  0.38667900  0.17412800  0.35141400  1
  C  C69  1  0.43987400  0.13511800  0.33548400  1
  C  C70  1  0.99369000  0.31223800  0.49715200  1
  C  C71  1  0.95897800  0.27872600  0.53843200  1
  C  C72  1  0.02960900  0.27916200  0.45554500  1
  C  C73  1  0.96349900  0.21485800  0.53846800  1
  C  C74  1  0.92028900  0.30457700  0.58731300  1
  C  C75  1  0.50000000  0.00000000  0.61490700  1
  C  C76  1  0.00233200  0.18681700  0.49644600  1
  C  C77  1  0.83801800  0.41141400  0.64655700  1
  C  C78  1  0.82587200  0.35141400  0.61332100  1
  C  C79  1  0.86488200  0.33548400  0.56012600  1
  C  C80  1  0.00631000  0.68776200  0.49715200  1
  C  C81  1  0.04102200  0.72127400  0.53843200  1
  C  C82  1  0.97039100  0.72083800  0.45554500  1
  C  C83  1  0.03650100  0.78514200  0.53846800  1
  C  C84  1  0.07971100  0.69542300  0.58731300  1
  C  C85  1  0.99766800  0.81318300  0.49644600  1
  C  C86  1  0.16198200  0.58858600  0.64655700  1
  C  C87  1  0.17412800  0.64858600  0.61332100  1
  C  C88  1  0.13511800  0.66451600  0.56012600  1
  C  C89  1  0.31223800  0.50284800  0.00631000  1
  C  C90  1  0.27872600  0.46156800  0.04102200  1
  C  C91  1  0.27916200  0.54445500  0.97039100  1
  C  C92  1  0.21485800  0.46153200  0.03650100  1
  C  C93  1  0.30457700  0.41268700  0.07971100  1
  C  C94  1  0.18681700  0.50355400  0.99766800  1
  C  C95  1  0.41141400  0.35344300  0.16198200  1
  C  C96  1  0.35141400  0.38667900  0.17412800  1
  C  C97  1  0.50000000  0.38509300  0.00000000  1
  C  C98  1  0.33548400  0.43987400  0.13511800  1
  C  C99  1  0.68776200  0.50284800  0.99369000  1
  C  C100  1  0.72127400  0.46156800  0.95897800  1
  C  C101  1  0.72083800  0.54445500  0.02960900  1
  C  C102  1  0.78514200  0.46153200  0.96349900  1
  C  C103  1  0.69542300  0.41268700  0.92028900  1
  C  C104  1  0.81318300  0.50355400  0.00233200  1
  C  C105  1  0.58858600  0.35344300  0.83801800  1
  C  C106  1  0.64858600  0.38667900  0.82587200  1
  C  C107  1  0.66451600  0.43987400  0.86488200  1
  C  C108  1  0.38509300  0.50000000  0.00000000  1
  C  C109  1  0.50000000  0.61490700  0.00000000  1
  C  C110  1  0.61490700  0.50000000  0.00000000  1
  C  C111  1  0.50000000  0.00000000  0.88509300  1
  C  C112  1  0.50000000  0.88509300  0.00000000  1
  C  C113  1  0.00000000  0.38509300  0.50000000  1
  C  C114  1  0.50000000  0.00000000  0.11490700  1
  C  C115  1  0.50000000  0.11490700  0.00000000  1
  C  C116  1  0.88509300  0.50000000  0.00000000  1
  C  C117  1  0.00000000  0.50000000  0.88509300  1
  C  C118  1  0.11490700  0.50000000  0.00000000  1
  C  C119  1  0.00000000  0.50000000  0.11490700  1
  C  C120  1  0.00000000  0.88509300  0.50000000  1
  C  C121  1  0.88509300  0.00000000  0.50000000  1
  C  C122  1  0.00000000  0.11490700  0.50000000  1
  C  C123  1  0.00000000  0.50000000  0.61490700  1
  C  C124  1  0.11490700  0.00000000  0.50000000  1
  C  C125  1  0.99369000  0.50284800  0.31223800  1
  C  C126  1  0.95897800  0.46156800  0.27872600  1
  C  C127  1  0.02960900  0.54445500  0.27916200  1
  C  C128  1  0.96349900  0.46153200  0.21485800  1
  C  C129  1  0.92028900  0.41268700  0.30457700  1
  C  C130  1  0.00233200  0.50355400  0.18681700  1
  C  C131  1  0.83801800  0.35344300  0.41141400  1
  C  C132  1  0.82587200  0.38667900  0.35141400  1
  N  N1  1  0.96201700  0.54462300  0.78190000  1
  N  N2  1  0.21810000  0.03798300  0.54462300  1
  N  N3  1  0.78190000  0.96201700  0.54462300  1
  N  N4  1  0.54462300  0.21810000  0.03798300  1
  N  N5  1  0.54462300  0.78190000  0.96201700  1
  N  N6  1  0.54462300  0.03798300  0.78190000  1
  N  N7  1  0.54462300  0.96201700  0.21810000  1
  N  N8  1  0.03798300  0.21810000  0.45537700  1
  N  N9  1  0.96201700  0.78190000  0.45537700  1
  N  N10  1  0.21810000  0.54462300  0.96201700  1
  N  N11  1  0.78190000  0.54462300  0.03798300  1
  N  N12  1  0.03798300  0.54462300  0.21810000  1
  O  O1  1  0.95186100  0.50000000  0.58711400  1
  O  O2  1  0.78947000  0.37011500  0.31250300  1
  O  O3  1  0.04813900  0.58711400  0.50000000  1
  O  O4  1  0.21053000  0.37011500  0.68749700  1
  O  O5  1  0.95186100  0.58711400  0.50000000  1
  O  O6  1  0.31250300  0.78947000  0.37011500  1
  O  O7  1  0.68749700  0.21053000  0.37011500  1
  O  O8  1  0.41288600  0.04813900  0.50000000  1
  O  O9  1  0.41288600  0.95186100  0.50000000  1
  O  O10  1  0.37011500  0.31250300  0.78947000  1
  O  O11  1  0.50000000  0.04813900  0.41288600  1
  O  O12  1  0.37011500  0.68749700  0.21053000  1
  O  O13  1  0.50000000  0.95186100  0.41288600  1
  O  O14  1  0.37011500  0.78947000  0.68749700  1
  O  O15  1  0.58711400  0.04813900  0.50000000  1
  O  O16  1  0.58711400  0.95186100  0.50000000  1
  O  O17  1  0.37011500  0.21053000  0.31250300  1
  O  O18  1  0.50000000  0.04813900  0.58711400  1
  O  O19  1  0.78947000  0.31250300  0.62988500  1
  O  O20  1  0.50000000  0.95186100  0.58711400  1
  O  O21  1  0.21053000  0.68749700  0.62988500  1
  O  O22  1  0.04813900  0.50000000  0.41288600  1
  O  O23  1  0.31250300  0.37011500  0.21053000  1
  O  O24  1  0.50000000  0.41288600  0.04813900  1
  O  O25  1  0.50000000  0.41288600  0.95186100  1
  O  O26  1  0.68749700  0.37011500  0.78947000  1
  O  O27  1  0.41288600  0.50000000  0.04813900  1
  O  O28  1  0.41288600  0.50000000  0.95186100  1
  O  O29  1  0.50000000  0.58711400  0.04813900  1
  O  O30  1  0.50000000  0.58711400  0.95186100  1
  O  O31  1  0.95186100  0.50000000  0.41288600  1
  O  O32  1  0.58711400  0.50000000  0.04813900  1
  O  O33  1  0.58711400  0.50000000  0.95186100  1
  O  O34  1  0.54813900  0.00000000  0.91288600  1
  O  O35  1  0.45186100  0.00000000  0.91288600  1
  O  O36  1  0.54813900  0.91288600  0.00000000  1
  O  O37  1  0.45186100  0.91288600  0.00000000  1
  O  O38  1  0.54813900  0.00000000  0.08711400  1
  O  O39  1  0.45186100  0.00000000  0.08711400  1
  O  O40  1  0.54813900  0.08711400  0.00000000  1
  O  O41  1  0.45186100  0.08711400  0.00000000  1
  O  O42  1  0.91288600  0.54813900  0.00000000  1
  O  O43  1  0.04813900  0.41288600  0.50000000  1
  O  O44  1  0.91288600  0.45186100  0.00000000  1
  O  O45  1  0.00000000  0.54813900  0.91288600  1
  O  O46  1  0.00000000  0.45186100  0.91288600  1
  O  O47  1  0.08711400  0.54813900  0.00000000  1
  O  O48  1  0.08711400  0.45186100  0.00000000  1
  O  O49  1  0.00000000  0.54813900  0.08711400  1
  O  O50  1  0.00000000  0.45186100  0.08711400  1
  O  O51  1  0.95186100  0.41288600  0.50000000  1
  O  O52  1  0.00000000  0.91288600  0.54813900  1
  O  O53  1  0.00000000  0.91288600  0.45186100  1
  O  O54  1  0.91288600  0.00000000  0.54813900  1
  O  O55  1  0.91288600  0.00000000  0.45186100  1
  O  O56  1  0.00000000  0.08711400  0.54813900  1
  O  O57  1  0.00000000  0.08711400  0.45186100  1
  O  O58  1  0.08711400  0.00000000  0.54813900  1
  O  O59  1  0.08711400  0.00000000  0.45186100  1
  O  O60  1  0.04813900  0.50000000  0.58711400  1
