# generated using pymatgen
data_CuH15C20SNO4
_symmetry_space_group_name_H-M   'P 1'
_cell_length_a   12.85700000
_cell_length_b   12.85700000
_cell_length_c   25.71410000
_cell_angle_alpha   90.00000000
_cell_angle_beta   90.00000000
_cell_angle_gamma   90.00000000
_symmetry_Int_Tables_number   1
_chemical_formula_structural   CuH15C20SNO4
_chemical_formula_sum   'Cu4 H60 C80 S4 N4 O16'
_cell_volume   4250.60370383
_cell_formula_units_Z   4
loop_
 _symmetry_equiv_pos_site_id
 _symmetry_equiv_pos_as_xyz
  1  'x, y, z'
loop_
 _atom_site_type_symbol
 _atom_site_label
 _atom_site_symmetry_multiplicity
 _atom_site_fract_x
 _atom_site_fract_y
 _atom_site_fract_z
 _atom_site_occupancy
  Cu  Cu1  1  0.89673800  0.00000000  0.00000000  1
  Cu  Cu2  1  0.10326200  0.00000000  0.00000000  1
  Cu  Cu3  1  0.00000000  0.89673800  0.50000000  1
  Cu  Cu4  1  0.00000000  0.10326200  0.50000000  1
  H  H1  1  0.29176900  0.92505000  0.79337800  1
  H  H2  1  0.39278600  0.60721400  0.80121100  1
  H  H3  1  0.26934500  0.57240100  0.72972400  1
  H  H4  1  0.50483700  0.83648300  0.82587300  1
  H  H5  1  0.45344700  0.74445100  0.86745900  1
  H  H6  1  0.39729500  0.86544700  0.87054800  1
  H  H7  1  0.94929100  0.78428000  0.59533600  1
  H  H8  1  0.16728600  0.54626700  0.66571000  1
  H  H9  1  0.88024900  0.12111100  0.65557700  1
  H  H10  1  0.84389900  0.10743700  0.75042700  1
  H  H11  1  0.00757300  0.81205700  0.75442000  1
  H  H12  1  0.84990600  0.99602100  0.83046800  1
  H  H13  1  0.89940500  0.86896900  0.82764800  1
  H  H14  1  0.03562700  0.06168200  0.82972000  1
  H  H15  1  0.08117100  0.94336200  0.83619000  1
  H  H16  1  0.07495000  0.29176900  0.29337800  1
  H  H17  1  0.39278600  0.39278600  0.30121100  1
  H  H18  1  0.42759900  0.26934500  0.22972400  1
  H  H19  1  0.16351700  0.50483700  0.32587300  1
  H  H20  1  0.25554900  0.45344700  0.36745900  1
  H  H21  1  0.13455300  0.39729500  0.37054800  1
  H  H22  1  0.21572000  0.94929100  0.09533600  1
  H  H23  1  0.45373300  0.16728600  0.16571000  1
  H  H24  1  0.87888900  0.88024900  0.15557700  1
  H  H25  1  0.89256300  0.84389900  0.25042700  1
  H  H26  1  0.18794300  0.00757300  0.25442000  1
  H  H27  1  0.00397900  0.84990600  0.33046800  1
  H  H28  1  0.13103100  0.89940500  0.32764800  1
  H  H29  1  0.93831800  0.03562700  0.32972000  1
  H  H30  1  0.05663800  0.08117100  0.33619000  1
  H  H31  1  0.74069000  0.58675600  0.07665700  1
  H  H32  1  0.44451600  0.60242300  0.00000000  1
  H  H33  1  0.50718600  0.45944800  0.94404900  1
  H  H34  1  0.52740300  0.65174500  0.12067500  1
  H  H35  1  0.49866500  0.73491700  0.06996700  1
  H  H36  1  0.62392700  0.74109600  0.09289300  1
  H  H37  1  0.88331900  0.19067200  0.90580300  1
  H  H38  1  0.56087300  0.33142000  0.89872600  1
  H  H39  1  0.17031500  0.31115400  0.00048100  1
  H  H40  1  0.18634900  0.50085400  0.98279500  1
  H  H41  1  0.86174900  0.50883900  0.93623000  1
  H  H42  1  0.10331900  0.66093600  0.94552700  1
  H  H43  1  0.97847900  0.65529500  0.91810800  1
  H  H44  1  0.01842300  0.65944000  0.03440400  1
  H  H45  1  0.90255400  0.67237900  0.00867400  1
  H  H46  1  0.41324400  0.74069000  0.57665700  1
  H  H47  1  0.39757700  0.44451600  0.50000000  1
  H  H48  1  0.54055200  0.50718600  0.44404900  1
  H  H49  1  0.34825500  0.52740300  0.62067500  1
  H  H50  1  0.26508300  0.49866500  0.56996700  1
  H  H51  1  0.25890400  0.62392700  0.59289300  1
  H  H52  1  0.80932800  0.88331900  0.40580300  1
  H  H53  1  0.66858000  0.56087300  0.39872600  1
  H  H54  1  0.68884600  0.17031500  0.50048100  1
  H  H55  1  0.49914600  0.18634900  0.48279500  1
  H  H56  1  0.49116100  0.86174900  0.43623000  1
  H  H57  1  0.33906400  0.10331900  0.44552700  1
  H  H58  1  0.34470500  0.97847900  0.41810800  1
  H  H59  1  0.34056000  0.01842300  0.53440400  1
  H  H60  1  0.32762100  0.90255400  0.50867400  1
  C  C1  1  0.00000000  0.00000000  0.90192300  1
  C  C2  1  0.00000000  0.80384600  0.00000000  1
  C  C3  1  0.00000000  0.00000000  0.09807700  1
  C  C4  1  0.00000000  0.19615400  0.00000000  1
  C  C5  1  0.00000000  0.00000000  0.40192300  1
  C  C6  1  0.19615400  0.00000000  0.50000000  1
  C  C7  1  0.00000000  0.00000000  0.59807700  1
  C  C8  1  0.80384600  0.00000000  0.50000000  1
  C  C9  1  0.20259400  0.72083000  0.72907600  1
  C  C10  1  0.28896100  0.84557700  0.78303900  1
  C  C11  1  0.35689200  0.77187100  0.80411300  1
  C  C12  1  0.33954800  0.66959300  0.78782500  1
  C  C13  1  0.27068800  0.64681800  0.74804100  1
  C  C14  1  0.42922100  0.80532700  0.84495600  1
  C  C15  1  0.05248300  0.78865100  0.66580900  1
  C  C16  1  0.00854700  0.74572900  0.61928500  1
  C  C17  1  0.12715300  0.62025900  0.65991500  1
  C  C18  1  0.13030900  0.71361200  0.68630800  1
  C  C19  1  0.01062300  0.88438800  0.68093800  1
  C  C20  1  0.97398800  0.97917600  0.65392500  1
  C  C21  1  0.90939000  0.05734500  0.67914200  1
  C  C22  1  0.88477300  0.04635400  0.73226600  1
  C  C23  1  0.92310100  0.95895900  0.75909200  1
  C  C24  1  0.98595900  0.88278600  0.73318200  1
  C  C25  1  0.91244800  0.94695500  0.81691700  1
  C  C26  1  0.01366000  0.98727300  0.84451400  1
  C  C27  1  0.27917000  0.20259400  0.22907600  1
  C  C28  1  0.15442300  0.28896100  0.28303900  1
  C  C29  1  0.22812900  0.35689200  0.30411300  1
  C  C30  1  0.33040700  0.33954800  0.28782500  1
  C  C31  1  0.35318200  0.27068800  0.24804100  1
  C  C32  1  0.19467300  0.42922100  0.34495600  1
  C  C33  1  0.21134900  0.05248300  0.16580900  1
  C  C34  1  0.25427100  0.00854700  0.11928500  1
  C  C35  1  0.37974100  0.12715300  0.15991500  1
  C  C36  1  0.28638800  0.13030900  0.18630800  1
  C  C37  1  0.11561200  0.01062300  0.18093800  1
  C  C38  1  0.02082400  0.97398800  0.15392500  1
  C  C39  1  0.94265500  0.90939000  0.17914200  1
  C  C40  1  0.95364600  0.88477300  0.23226600  1
  C  C41  1  0.04104100  0.92310100  0.25909200  1
  C  C42  1  0.11721400  0.98595900  0.23318200  1
  C  C43  1  0.05304500  0.91244800  0.31691700  1
  C  C44  1  0.01272700  0.01366000  0.34451400  1
  C  C45  1  0.65934100  0.45815200  0.97292600  1
  C  C46  1  0.68648000  0.56607700  0.04756600  1
  C  C47  1  0.58632800  0.60822600  0.04552500  1
  C  C48  1  0.52627000  0.57565000  0.00323200  1
  C  C49  1  0.55885800  0.49608200  0.97083400  1
  C  C50  1  0.55884000  0.68991200  0.08292500  1
  C  C51  1  0.81344300  0.33161700  0.94383200  1
  C  C52  1  0.81415900  0.23856900  0.91312300  1
  C  C53  1  0.64157200  0.31983000  0.91069700  1
  C  C54  1  0.70535000  0.37261600  0.94481800  1
  C  C55  1  0.91073900  0.36187600  0.96288100  1
  C  C56  1  0.00366800  0.30785000  0.98344100  1
  C  C57  1  0.10462000  0.35828400  0.98823900  1
  C  C58  1  0.11425500  0.46453200  0.97565000  1
  C  C59  1  0.02535500  0.51818400  0.95830200  1
  C  C60  1  0.92704600  0.46636300  0.95359400  1
  C  C61  1  0.02440000  0.63383400  0.95029100  1
  C  C62  1  0.98134200  0.68902700  0.00033000  1
  C  C63  1  0.54184800  0.65934100  0.47292600  1
  C  C64  1  0.43392300  0.68648000  0.54756600  1
  C  C65  1  0.39177400  0.58632800  0.54552500  1
  C  C66  1  0.42435000  0.52627000  0.50323200  1
  C  C67  1  0.50391800  0.55885800  0.47083400  1
  C  C68  1  0.31008800  0.55884000  0.58292500  1
  C  C69  1  0.66838300  0.81344300  0.44383200  1
  C  C70  1  0.76143100  0.81415900  0.41312300  1
  C  C71  1  0.68017000  0.64157200  0.41069700  1
  C  C72  1  0.62738400  0.70535000  0.44481800  1
  C  C73  1  0.63812400  0.91073900  0.46288100  1
  C  C74  1  0.69215000  0.00366800  0.48344100  1
  C  C75  1  0.64171600  0.10462000  0.48823900  1
  C  C76  1  0.53546800  0.11425500  0.47565000  1
  C  C77  1  0.48181600  0.02535500  0.45830200  1
  C  C78  1  0.53363700  0.92704600  0.45359400  1
  C  C79  1  0.36616600  0.02440000  0.45029100  1
  C  C80  1  0.31097300  0.98134200  0.50033000  1
  S  S1  1  0.05730200  0.62808100  0.60144300  1
  S  S2  1  0.37191900  0.05730200  0.10144300  1
  S  S3  1  0.69649500  0.20288600  0.88876600  1
  S  S4  1  0.79711400  0.69649500  0.38876600  1
  N  N1  1  0.21347900  0.82094900  0.74778900  1
  N  N2  1  0.17905100  0.21347900  0.24778900  1
  N  N3  1  0.72244000  0.49557800  0.01217200  1
  N  N4  1  0.50442200  0.72244000  0.51217200  1
  O  O1  1  0.08217700  0.00000000  0.92564500  1
  O  O2  1  0.91782300  0.00000000  0.92564500  1
  O  O3  1  0.08217700  0.85129100  0.00000000  1
  O  O4  1  0.91782300  0.85129100  0.00000000  1
  O  O5  1  0.08217700  0.00000000  0.07435500  1
  O  O6  1  0.91782300  0.00000000  0.07435500  1
  O  O7  1  0.08217700  0.14870900  0.00000000  1
  O  O8  1  0.91782300  0.14870900  0.00000000  1
  O  O9  1  0.00000000  0.08217700  0.42564500  1
  O  O10  1  0.00000000  0.91782300  0.42564500  1
  O  O11  1  0.14870900  0.08217700  0.50000000  1
  O  O12  1  0.14870900  0.91782300  0.50000000  1
  O  O13  1  0.00000000  0.08217700  0.57435500  1
  O  O14  1  0.00000000  0.91782300  0.57435500  1
  O  O15  1  0.85129100  0.08217700  0.50000000  1
  O  O16  1  0.85129100  0.91782300  0.50000000  1
