# generated using pymatgen
data_H10PdC14(NO3)2
_symmetry_space_group_name_H-M   'P 1'
_cell_length_a   17.68110000
_cell_length_b   17.68110000
_cell_length_c   14.43660000
_cell_angle_alpha   90.00000000
_cell_angle_beta   90.00000000
_cell_angle_gamma   120.00000000
_symmetry_Int_Tables_number   1
_chemical_formula_structural   H10PdC14(NO3)2
_chemical_formula_sum   'H60 Pd6 C84 N12 O36'
_cell_volume   3908.53599639
_cell_formula_units_Z   6
loop_
 _symmetry_equiv_pos_site_id
 _symmetry_equiv_pos_as_xyz
  1  'x, y, z'
loop_
 _atom_site_type_symbol
 _atom_site_label
 _atom_site_symmetry_multiplicity
 _atom_site_fract_x
 _atom_site_fract_y
 _atom_site_fract_z
 _atom_site_occupancy
  H  H1  1  0.90298700  0.70146600  0.19755200  1
  H  H2  1  0.00236800  0.70473200  0.16265500  1
  H  H3  1  0.90544200  0.59874900  0.18502000  1
  H  H4  1  0.79415400  0.68586900  0.91613900  1
  H  H5  1  0.85568800  0.57832300  0.86153100  1
  H  H6  1  0.97663100  0.39386800  0.88323300  1
  H  H7  1  0.04471400  0.64020900  0.09419100  1
  H  H8  1  0.19899500  0.36655000  0.98499300  1
  H  H9  1  0.16582600  0.32694200  0.09927600  1
  H  H10  1  0.10469500  0.26096000  0.99789600  1
  H  H11  1  0.29853400  0.20152100  0.19755200  1
  H  H12  1  0.29526800  0.29763600  0.16265500  1
  H  H13  1  0.40125100  0.30669300  0.18502000  1
  H  H14  1  0.31413100  0.10828500  0.91613900  1
  H  H15  1  0.42167700  0.27736500  0.86153100  1
  H  H16  1  0.60613200  0.58276300  0.88323300  1
  H  H17  1  0.35979100  0.40450500  0.09419100  1
  H  H18  1  0.63345000  0.83244500  0.98499300  1
  H  H19  1  0.67305800  0.83888400  0.09927600  1
  H  H20  1  0.73904000  0.84373600  0.99789600  1
  H  H21  1  0.79847900  0.09701300  0.19755200  1
  H  H22  1  0.70236400  0.99763200  0.16265500  1
  H  H23  1  0.69330700  0.09455800  0.18502000  1
  H  H24  1  0.89171500  0.20584600  0.91613900  1
  H  H25  1  0.72263500  0.14431200  0.86153100  1
  H  H26  1  0.41723700  0.02336900  0.88323300  1
  H  H27  1  0.59549500  0.95528600  0.09419100  1
  H  H28  1  0.16755500  0.80100500  0.98499300  1
  H  H29  1  0.16111600  0.83417400  0.09927600  1
  H  H30  1  0.15626400  0.89530500  0.99789600  1
  H  H31  1  0.09701300  0.29853400  0.69755200  1
  H  H32  1  0.99763200  0.29526800  0.66265500  1
  H  H33  1  0.09455800  0.40125100  0.68502000  1
  H  H34  1  0.20584600  0.31413100  0.41613900  1
  H  H35  1  0.14431200  0.42167700  0.36153100  1
  H  H36  1  0.02336900  0.60613200  0.38323300  1
  H  H37  1  0.95528600  0.35979100  0.59419100  1
  H  H38  1  0.80100500  0.63345000  0.48499300  1
  H  H39  1  0.83417400  0.67305800  0.59927600  1
  H  H40  1  0.89530500  0.73904000  0.49789600  1
  H  H41  1  0.70146600  0.79847900  0.69755200  1
  H  H42  1  0.70473200  0.70236400  0.66265500  1
  H  H43  1  0.59874900  0.69330700  0.68502000  1
  H  H44  1  0.68586900  0.89171500  0.41613900  1
  H  H45  1  0.57832300  0.72263500  0.36153100  1
  H  H46  1  0.39386800  0.41723700  0.38323300  1
  H  H47  1  0.64020900  0.59549500  0.59419100  1
  H  H48  1  0.36655000  0.16755500  0.48499300  1
  H  H49  1  0.32694200  0.16111600  0.59927600  1
  H  H50  1  0.26096000  0.15626400  0.49789600  1
  H  H51  1  0.20152100  0.90298700  0.69755200  1
  H  H52  1  0.29763600  0.00236800  0.66265500  1
  H  H53  1  0.30669300  0.90544200  0.68502000  1
  H  H54  1  0.10828500  0.79415400  0.41613900  1
  H  H55  1  0.27736500  0.85568800  0.36153100  1
  H  H56  1  0.58276300  0.97663100  0.38323300  1
  H  H57  1  0.40450500  0.04471400  0.59419100  1
  H  H58  1  0.83244500  0.19899500  0.48499300  1
  H  H59  1  0.83888400  0.16582600  0.59927600  1
  H  H60  1  0.84373600  0.10469500  0.49789600  1
  Pd  Pd1  1  0.45299000  0.72503100  0.24920200  1
  Pd  Pd2  1  0.27203100  0.72503100  0.24920200  1
  Pd  Pd3  1  0.27384500  0.54770000  0.24535200  1
  Pd  Pd4  1  0.54701000  0.27496900  0.74920200  1
  Pd  Pd5  1  0.72796900  0.27496900  0.74920200  1
  Pd  Pd6  1  0.72615500  0.45230000  0.74535200  1
  C  C1  1  0.15976000  0.57987700  0.12214500  1
  C  C2  1  0.42010700  0.57987700  0.12214500  1
  C  C3  1  0.41597200  0.58087100  0.37774400  1
  C  C4  1  0.16488900  0.58087100  0.37774400  1
  C  C5  1  0.41924000  0.83848900  0.37320200  1
  C  C6  1  0.42001200  0.84003300  0.12702000  1
  C  C7  1  0.84024000  0.42012300  0.62214500  1
  C  C8  1  0.57989300  0.42012300  0.62214500  1
  C  C9  1  0.58402800  0.41912900  0.87774400  1
  C  C10  1  0.83511100  0.41912900  0.87774400  1
  C  C11  1  0.58076000  0.16151100  0.87320200  1
  C  C12  1  0.57998800  0.15996700  0.62702000  1
  C  C13  1  0.93092700  0.66885400  0.15808900  1
  C  C14  1  0.82848000  0.66234100  0.95381100  1
  C  C15  1  0.86063200  0.60935700  0.92468800  1
  C  C16  1  0.90717000  0.60283200  0.99894500  1
  C  C17  1  0.94697300  0.55094100  0.99679700  1
  C  C18  1  0.92810500  0.48050400  0.93467400  1
  C  C19  1  0.98524800  0.44608300  0.93097200  1
  C  C20  1  0.05389900  0.47629400  0.99636700  1
  C  C21  1  0.07529300  0.54292000  0.06003200  1
  C  C22  1  0.02107800  0.57842700  0.05742600  1
  C  C23  1  0.07826400  0.36129900  0.04088700  1
  C  C24  1  0.14375300  0.32925400  0.02884400  1
  C  C25  1  0.33114600  0.26207200  0.15808900  1
  C  C26  1  0.33765900  0.16613900  0.95381100  1
  C  C27  1  0.39064300  0.25127500  0.92468800  1
  C  C28  1  0.39716800  0.30433800  0.99894500  1
  C  C29  1  0.44905900  0.39603100  0.99679700  1
  C  C30  1  0.51949600  0.44760100  0.93467400  1
  C  C31  1  0.55391700  0.53916600  0.93097200  1
  C  C32  1  0.52370600  0.57760600  0.99636700  1
  C  C33  1  0.45708000  0.53237300  0.06003200  1
  C  C34  1  0.42157300  0.44265100  0.05742600  1
  C  C35  1  0.63870100  0.71696500  0.04088700  1
  C  C36  1  0.67074600  0.81449900  0.02884400  1
  C  C37  1  0.73792800  0.06907300  0.15808900  1
  C  C38  1  0.83386100  0.17152000  0.95381100  1
  C  C39  1  0.74872500  0.13936800  0.92468800  1
  C  C40  1  0.69566200  0.09283000  0.99894500  1
  C  C41  1  0.60396900  0.05302700  0.99679700  1
  C  C42  1  0.55239900  0.07189500  0.93467400  1
  C  C43  1  0.46083400  0.01475200  0.93097200  1
  C  C44  1  0.42239400  0.94610100  0.99636700  1
  C  C45  1  0.46762700  0.92470700  0.06003200  1
  C  C46  1  0.55734900  0.97892200  0.05742600  1
  C  C47  1  0.28303500  0.92173600  0.04088700  1
  C  C48  1  0.18550100  0.85624700  0.02884400  1
  C  C49  1  0.06907300  0.33114600  0.65808900  1
  C  C50  1  0.17152000  0.33765900  0.45381100  1
  C  C51  1  0.13936800  0.39064300  0.42468800  1
  C  C52  1  0.09283000  0.39716800  0.49894500  1
  C  C53  1  0.05302700  0.44905900  0.49679700  1
  C  C54  1  0.07189500  0.51949600  0.43467400  1
  C  C55  1  0.01475200  0.55391700  0.43097200  1
  C  C56  1  0.94610100  0.52370600  0.49636700  1
  C  C57  1  0.92470700  0.45708000  0.56003200  1
  C  C58  1  0.97892200  0.42157300  0.55742600  1
  C  C59  1  0.92173600  0.63870100  0.54088700  1
  C  C60  1  0.85624700  0.67074600  0.52884400  1
  C  C61  1  0.66885400  0.73792800  0.65808900  1
  C  C62  1  0.66234100  0.83386100  0.45381100  1
  C  C63  1  0.60935700  0.74872500  0.42468800  1
  C  C64  1  0.60283200  0.69566200  0.49894500  1
  C  C65  1  0.55094100  0.60396900  0.49679700  1
  C  C66  1  0.48050400  0.55239900  0.43467400  1
  C  C67  1  0.44608300  0.46083400  0.43097200  1
  C  C68  1  0.47629400  0.42239400  0.49636700  1
  C  C69  1  0.54292000  0.46762700  0.56003200  1
  C  C70  1  0.57842700  0.55734900  0.55742600  1
  C  C71  1  0.36129900  0.28303500  0.54088700  1
  C  C72  1  0.32925400  0.18550100  0.52884400  1
  C  C73  1  0.26207200  0.93092700  0.65808900  1
  C  C74  1  0.16613900  0.82848000  0.45381100  1
  C  C75  1  0.25127500  0.86063200  0.42468800  1
  C  C76  1  0.30433800  0.90717000  0.49894500  1
  C  C77  1  0.39603100  0.94697300  0.49679700  1
  C  C78  1  0.44760100  0.92810500  0.43467400  1
  C  C79  1  0.53916600  0.98524800  0.43097200  1
  C  C80  1  0.57760600  0.05389900  0.49636700  1
  C  C81  1  0.53237300  0.07529300  0.56003200  1
  C  C82  1  0.44265100  0.02107800  0.55742600  1
  C  C83  1  0.71696500  0.07826400  0.54088700  1
  C  C84  1  0.81449900  0.14375300  0.52884400  1
  N  N1  1  0.90677500  0.66142200  0.06424600  1
  N  N2  1  0.85762100  0.69769900  0.03749200  1
  N  N3  1  0.33857800  0.24535200  0.06424600  1
  N  N4  1  0.30230100  0.15992200  0.03749200  1
  N  N5  1  0.75464800  0.09322500  0.06424600  1
  N  N6  1  0.84007800  0.14237900  0.03749200  1
  N  N7  1  0.09322500  0.33857800  0.56424600  1
  N  N8  1  0.14237900  0.30230100  0.53749200  1
  N  N9  1  0.66142200  0.75464800  0.56424600  1
  N  N10  1  0.69769900  0.84007800  0.53749200  1
  N  N11  1  0.24535200  0.90677500  0.56424600  1
  N  N12  1  0.15992200  0.85762100  0.53749200  1
  O  O1  1  0.18810100  0.53120900  0.14594800  1
  O  O2  1  0.18520900  0.65567700  0.15083800  1
  O  O3  1  0.34309800  0.53120900  0.14594800  1
  O  O4  1  0.47045800  0.65567700  0.15083800  1
  O  O5  1  0.46856400  0.65582900  0.34911600  1
  O  O6  1  0.34163600  0.53254100  0.34623400  1
  O  O7  1  0.18725500  0.65582900  0.34911600  1
  O  O8  1  0.19089500  0.53254100  0.34623400  1
  O  O9  1  0.46820500  0.81079900  0.34715300  1
  O  O10  1  0.34258400  0.81079900  0.34715300  1
  O  O11  1  0.46863200  0.81177200  0.15193700  1
  O  O12  1  0.34313000  0.81177200  0.15193700  1
  O  O13  1  0.81189900  0.46879100  0.64594800  1
  O  O14  1  0.81479100  0.34432300  0.65083800  1
  O  O15  1  0.65690200  0.46879100  0.64594800  1
  O  O16  1  0.52954200  0.34432300  0.65083800  1
  O  O17  1  0.53143600  0.34417100  0.84911600  1
  O  O18  1  0.65836400  0.46745900  0.84623400  1
  O  O19  1  0.81274500  0.34417100  0.84911600  1
  O  O20  1  0.80910500  0.46745900  0.84623400  1
  O  O21  1  0.53179500  0.18920100  0.84715300  1
  O  O22  1  0.65741600  0.18920100  0.84715300  1
  O  O23  1  0.53136800  0.18822800  0.65193700  1
  O  O24  1  0.65687000  0.18822800  0.65193700  1
  O  O25  1  0.11019700  0.43969200  0.99160100  1
  O  O26  1  0.01625600  0.32827800  0.09252600  1
  O  O27  1  0.56030800  0.67050500  0.99160100  1
  O  O28  1  0.67172200  0.68797800  0.09252600  1
  O  O29  1  0.32949500  0.88980300  0.99160100  1
  O  O30  1  0.31202200  0.98374400  0.09252600  1
  O  O31  1  0.88980300  0.56030800  0.49160100  1
  O  O32  1  0.98374400  0.67172200  0.59252600  1
  O  O33  1  0.43969200  0.32949500  0.49160100  1
  O  O34  1  0.32827800  0.31202200  0.59252600  1
  O  O35  1  0.67050500  0.11019700  0.49160100  1
  O  O36  1  0.68797800  0.01625600  0.59252600  1
