# generated using pymatgen
data_H10PdC17(NO3)2
_symmetry_space_group_name_H-M   'P 1'
_cell_length_a   17.56600000
_cell_length_b   17.56600000
_cell_length_c   14.34270000
_cell_angle_alpha   90.00000000
_cell_angle_beta   90.00000000
_cell_angle_gamma   120.00000000
_symmetry_Int_Tables_number   1
_chemical_formula_structural   H10PdC17(NO3)2
_chemical_formula_sum   'H60 Pd6 C102 N12 O36'
_cell_volume   3832.72185446
_cell_formula_units_Z   6
loop_
 _symmetry_equiv_pos_site_id
 _symmetry_equiv_pos_as_xyz
  1  'x, y, z'
loop_
 _atom_site_type_symbol
 _atom_site_label
 _atom_site_symmetry_multiplicity
 _atom_site_fract_x
 _atom_site_fract_y
 _atom_site_fract_z
 _atom_site_occupancy
  H  H1  1  0.86454000  0.60710200  0.82869700  1
  H  H2  1  0.78732200  0.74999000  0.06310200  1
  H  H3  1  0.81694700  0.75553900  0.23801200  1
  H  H4  1  0.89095000  0.68408200  0.29751600  1
  H  H5  1  0.94294100  0.61019900  0.19201500  1
  H  H6  1  0.95804600  0.37011700  0.91028600  1
  H  H7  1  0.04865800  0.64053500  0.08532300  1
  H  H8  1  0.11462200  0.28253200  0.99574200  1
  H  H9  1  0.18975400  0.36280000  0.07794100  1
  H  H10  1  0.10514100  0.25496400  0.11989600  1
  H  H11  1  0.39289800  0.25743800  0.82869700  1
  H  H12  1  0.25001000  0.03733200  0.06310200  1
  H  H13  1  0.24446100  0.06140800  0.23801200  1
  H  H14  1  0.31591800  0.20686800  0.29751600  1
  H  H15  1  0.38980100  0.33274200  0.19201500  1
  H  H16  1  0.62988300  0.58792900  0.91028600  1
  H  H17  1  0.35946500  0.40812300  0.08532300  1
  H  H18  1  0.71746800  0.83209000  0.99574200  1
  H  H19  1  0.63720000  0.82695500  0.07794100  1
  H  H20  1  0.74503600  0.85017700  0.11989600  1
  H  H21  1  0.74256200  0.13546000  0.82869700  1
  H  H22  1  0.96266800  0.21267800  0.06310200  1
  H  H23  1  0.93859200  0.18305300  0.23801200  1
  H  H24  1  0.79313200  0.10905000  0.29751600  1
  H  H25  1  0.66725800  0.05705900  0.19201500  1
  H  H26  1  0.41207100  0.04195400  0.91028600  1
  H  H27  1  0.59187700  0.95134200  0.08532300  1
  H  H28  1  0.16791000  0.88537800  0.99574200  1
  H  H29  1  0.17304500  0.81024600  0.07794100  1
  H  H30  1  0.14982300  0.89485900  0.11989600  1
  H  H31  1  0.13546000  0.39289800  0.32869700  1
  H  H32  1  0.21267800  0.25001000  0.56310200  1
  H  H33  1  0.18305300  0.24446100  0.73801200  1
  H  H34  1  0.10905000  0.31591800  0.79751600  1
  H  H35  1  0.05705900  0.38980100  0.69201500  1
  H  H36  1  0.04195400  0.62988300  0.41028600  1
  H  H37  1  0.95134200  0.35946500  0.58532300  1
  H  H38  1  0.88537800  0.71746800  0.49574200  1
  H  H39  1  0.81024600  0.63720000  0.57794100  1
  H  H40  1  0.89485900  0.74503600  0.61989600  1
  H  H41  1  0.60710200  0.74256200  0.32869700  1
  H  H42  1  0.74999000  0.96266800  0.56310200  1
  H  H43  1  0.75553900  0.93859200  0.73801200  1
  H  H44  1  0.68408200  0.79313200  0.79751600  1
  H  H45  1  0.61019900  0.66725800  0.69201500  1
  H  H46  1  0.37011700  0.41207100  0.41028600  1
  H  H47  1  0.64053500  0.59187700  0.58532300  1
  H  H48  1  0.28253200  0.16791000  0.49574200  1
  H  H49  1  0.36280000  0.17304500  0.57794100  1
  H  H50  1  0.25496400  0.14982300  0.61989600  1
  H  H51  1  0.25743800  0.86454000  0.32869700  1
  H  H52  1  0.03733200  0.78732200  0.56310200  1
  H  H53  1  0.06140800  0.81694700  0.73801200  1
  H  H54  1  0.20686800  0.89095000  0.79751600  1
  H  H55  1  0.33274200  0.94294100  0.69201500  1
  H  H56  1  0.58792900  0.95804600  0.41028600  1
  H  H57  1  0.40812300  0.04865800  0.58532300  1
  H  H58  1  0.83209000  0.11462200  0.49574200  1
  H  H59  1  0.82695500  0.18975400  0.57794100  1
  H  H60  1  0.85017700  0.10514100  0.61989600  1
  Pd  Pd1  1  0.45377400  0.72541300  0.24919700  1
  Pd  Pd2  1  0.27162900  0.72541300  0.24919700  1
  Pd  Pd3  1  0.27345500  0.54692100  0.24532100  1
  Pd  Pd4  1  0.54622600  0.27458700  0.74919700  1
  Pd  Pd5  1  0.72837100  0.27458700  0.74919700  1
  Pd  Pd6  1  0.72654500  0.45307900  0.74532100  1
  C  C1  1  0.15862400  0.57930900  0.12130800  1
  C  C2  1  0.42067500  0.57930900  0.12130800  1
  C  C3  1  0.41651300  0.58030900  0.37858100  1
  C  C4  1  0.16378600  0.58030900  0.37858100  1
  C  C5  1  0.41980200  0.83961500  0.37400900  1
  C  C6  1  0.42057900  0.84116900  0.12621400  1
  C  C7  1  0.84137600  0.42069100  0.62130800  1
  C  C8  1  0.57932500  0.42069100  0.62130800  1
  C  C9  1  0.58348700  0.41969100  0.87858100  1
  C  C10  1  0.83621400  0.41969100  0.87858100  1
  C  C11  1  0.58019800  0.16038500  0.87400900  1
  C  C12  1  0.57942100  0.15883100  0.62621400  1
  C  C13  1  0.90878700  0.59977300  0.98333200  1
  C  C14  1  0.89145400  0.63803700  0.05797400  1
  C  C15  1  0.86756400  0.62196300  0.90527500  1
  C  C16  1  0.81924800  0.71978200  0.09467100  1
  C  C17  1  0.83406700  0.71790800  0.19035500  1
  C  C18  1  0.87702500  0.67804800  0.22141900  1
  C  C19  1  0.90912900  0.64051400  0.16375900  1
  C  C20  1  0.94937900  0.54733900  0.99217200  1
  C  C21  1  0.92541800  0.47112600  0.94238700  1
  C  C22  1  0.97830000  0.43199000  0.94778800  1
  C  C23  1  0.05313800  0.46370200  0.00716500  1
  C  C24  1  0.07772700  0.53882000  0.05768700  1
  C  C25  1  0.02670400  0.57954400  0.04830700  1
  C  C26  1  0.06955700  0.35511100  0.07551200  1
  C  C27  1  0.12040900  0.30635600  0.06981900  1
  C  C28  1  0.40022700  0.30901400  0.98333200  1
  C  C29  1  0.36196300  0.25341700  0.05797400  1
  C  C30  1  0.37803700  0.24560100  0.90527500  1
  C  C31  1  0.28021800  0.09946600  0.09467100  1
  C  C32  1  0.28209200  0.11615900  0.19035500  1
  C  C33  1  0.32195200  0.19897800  0.22141900  1
  C  C34  1  0.35948600  0.26861500  0.16375900  1
  C  C35  1  0.45266100  0.40204000  0.99217200  1
  C  C36  1  0.52887400  0.45429200  0.94238700  1
  C  C37  1  0.56801000  0.54631000  0.94778800  1
  C  C38  1  0.53629800  0.58943700  0.00716500  1
  C  C39  1  0.46118000  0.53890600  0.05768700  1
  C  C40  1  0.42045600  0.44716000  0.04830700  1
  C  C41  1  0.64488900  0.71444600  0.07551200  1
  C  C42  1  0.69364400  0.81405300  0.06981900  1
  C  C43  1  0.69098600  0.09121300  0.98333200  1
  C  C44  1  0.74658300  0.10854600  0.05797400  1
  C  C45  1  0.75439900  0.13243600  0.90527500  1
  C  C46  1  0.90053400  0.18075200  0.09467100  1
  C  C47  1  0.88384100  0.16593300  0.19035500  1
  C  C48  1  0.80102200  0.12297500  0.22141900  1
  C  C49  1  0.73138500  0.09087100  0.16375900  1
  C  C50  1  0.59796000  0.05062100  0.99217200  1
  C  C51  1  0.54570800  0.07458200  0.94238700  1
  C  C52  1  0.45369000  0.02170000  0.94778800  1
  C  C53  1  0.41056300  0.94686200  0.00716500  1
  C  C54  1  0.46109400  0.92227300  0.05768700  1
  C  C55  1  0.55284000  0.97329600  0.04830700  1
  C  C56  1  0.28555400  0.93044300  0.07551200  1
  C  C57  1  0.18594700  0.87959100  0.06981900  1
  C  C58  1  0.09121300  0.40022700  0.48333200  1
  C  C59  1  0.10854600  0.36196300  0.55797400  1
  C  C60  1  0.13243600  0.37803700  0.40527500  1
  C  C61  1  0.18075200  0.28021800  0.59467100  1
  C  C62  1  0.16593300  0.28209200  0.69035500  1
  C  C63  1  0.12297500  0.32195200  0.72141900  1
  C  C64  1  0.09087100  0.35948600  0.66375900  1
  C  C65  1  0.05062100  0.45266100  0.49217200  1
  C  C66  1  0.07458200  0.52887400  0.44238700  1
  C  C67  1  0.02170000  0.56801000  0.44778800  1
  C  C68  1  0.94686200  0.53629800  0.50716500  1
  C  C69  1  0.92227300  0.46118000  0.55768700  1
  C  C70  1  0.97329600  0.42045600  0.54830700  1
  C  C71  1  0.93044300  0.64488900  0.57551200  1
  C  C72  1  0.87959100  0.69364400  0.56981900  1
  C  C73  1  0.59977300  0.69098600  0.48333200  1
  C  C74  1  0.63803700  0.74658300  0.55797400  1
  C  C75  1  0.62196300  0.75439900  0.40527500  1
  C  C76  1  0.71978200  0.90053400  0.59467100  1
  C  C77  1  0.71790800  0.88384100  0.69035500  1
  C  C78  1  0.67804800  0.80102200  0.72141900  1
  C  C79  1  0.64051400  0.73138500  0.66375900  1
  C  C80  1  0.54733900  0.59796000  0.49217200  1
  C  C81  1  0.47112600  0.54570800  0.44238700  1
  C  C82  1  0.43199000  0.45369000  0.44778800  1
  C  C83  1  0.46370200  0.41056300  0.50716500  1
  C  C84  1  0.53882000  0.46109400  0.55768700  1
  C  C85  1  0.57954400  0.55284000  0.54830700  1
  C  C86  1  0.35511100  0.28555400  0.57551200  1
  C  C87  1  0.30635600  0.18594700  0.56981900  1
  C  C88  1  0.30901400  0.90878700  0.48333200  1
  C  C89  1  0.25341700  0.89145400  0.55797400  1
  C  C90  1  0.24560100  0.86756400  0.40527500  1
  C  C91  1  0.09946600  0.81924800  0.59467100  1
  C  C92  1  0.11615900  0.83406700  0.69035500  1
  C  C93  1  0.19897800  0.87702500  0.72141900  1
  C  C94  1  0.26861500  0.90912900  0.66375900  1
  C  C95  1  0.40204000  0.94937900  0.49217200  1
  C  C96  1  0.45429200  0.92541800  0.44238700  1
  C  C97  1  0.54631000  0.97830000  0.44778800  1
  C  C98  1  0.58943700  0.05313800  0.50716500  1
  C  C99  1  0.53890600  0.07772700  0.55768700  1
  C  C100  1  0.44716000  0.02670400  0.54830700  1
  C  C101  1  0.71444600  0.06955700  0.57551200  1
  C  C102  1  0.81405300  0.12040900  0.56981900  1
  N  N1  1  0.84170000  0.67333000  0.02648300  1
  N  N2  1  0.83037800  0.66897400  0.93247400  1
  N  N3  1  0.32667000  0.16837000  0.02648300  1
  N  N4  1  0.33102600  0.16140300  0.93247400  1
  N  N5  1  0.83163000  0.15830000  0.02648300  1
  N  N6  1  0.83859700  0.16962200  0.93247400  1
  N  N7  1  0.15830000  0.32667000  0.52648300  1
  N  N8  1  0.16962200  0.33102600  0.43247400  1
  N  N9  1  0.67333000  0.83163000  0.52648300  1
  N  N10  1  0.66897400  0.83859700  0.43247400  1
  N  N11  1  0.16837000  0.84170000  0.52648300  1
  N  N12  1  0.16140300  0.83037800  0.43247400  1
  O  O1  1  0.18715000  0.53032200  0.14526600  1
  O  O2  1  0.18423900  0.65560500  0.15018800  1
  O  O3  1  0.34316200  0.53032200  0.14526600  1
  O  O4  1  0.47135600  0.65560500  0.15018800  1
  O  O5  1  0.46945000  0.65575800  0.34976500  1
  O  O6  1  0.34169100  0.53166300  0.34686400  1
  O  O7  1  0.18629800  0.65575800  0.34976500  1
  O  O8  1  0.18996200  0.53166300  0.34686400  1
  O  O9  1  0.46908800  0.81174300  0.34778900  1
  O  O10  1  0.34264500  0.81174300  0.34778900  1
  O  O11  1  0.46951800  0.81272300  0.15129500  1
  O  O12  1  0.34319500  0.81272300  0.15129500  1
  O  O13  1  0.81285000  0.46967800  0.64526600  1
  O  O14  1  0.81576100  0.34439500  0.65018800  1
  O  O15  1  0.65683800  0.46967800  0.64526600  1
  O  O16  1  0.52864400  0.34439500  0.65018800  1
  O  O17  1  0.53055000  0.34424200  0.84976500  1
  O  O18  1  0.65830900  0.46833700  0.84686400  1
  O  O19  1  0.81370200  0.34424200  0.84976500  1
  O  O20  1  0.81003800  0.46833700  0.84686400  1
  O  O21  1  0.53091200  0.18825700  0.84778900  1
  O  O22  1  0.65735500  0.18825700  0.84778900  1
  O  O23  1  0.53048200  0.18727700  0.65129500  1
  O  O24  1  0.65680500  0.18727700  0.65129500  1
  O  O25  1  0.10174200  0.41995700  0.00483000  1
  O  O26  1  0.00676000  0.33333333  0.12867800  1
  O  O27  1  0.58004300  0.68178400  0.00483000  1
  O  O28  1  0.66666667  0.67345300  0.12867800  1
  O  O29  1  0.31821600  0.89825800  0.00483000  1
  O  O30  1  0.32654700  0.99324000  0.12867800  1
  O  O31  1  0.89825800  0.58004300  0.50483000  1
  O  O32  1  0.99324000  0.66666667  0.62867800  1
  O  O33  1  0.41995700  0.31821600  0.50483000  1
  O  O34  1  0.33333333  0.32654700  0.62867800  1
  O  O35  1  0.68178400  0.10174200  0.50483000  1
  O  O36  1  0.67345300  0.00676000  0.62867800  1
