# generated using pymatgen
data_Ti2H5C8NO7
_symmetry_space_group_name_H-M   'P 1'
_cell_length_a   20.72690000
_cell_length_b   20.72690000
_cell_length_c   20.72690000
_cell_angle_alpha   90.00000000
_cell_angle_beta   90.00000000
_cell_angle_gamma   90.00000000
_symmetry_Int_Tables_number   1
_chemical_formula_structural   Ti2H5C8NO7
_chemical_formula_sum   'Ti24 H60 C96 N12 O84'
_cell_volume   8904.36709865
_cell_formula_units_Z   12
loop_
 _symmetry_equiv_pos_site_id
 _symmetry_equiv_pos_as_xyz
  1  'x, y, z'
loop_
 _atom_site_type_symbol
 _atom_site_label
 _atom_site_symmetry_multiplicity
 _atom_site_fract_x
 _atom_site_fract_y
 _atom_site_fract_z
 _atom_site_occupancy
  Ti  Ti1  1  0.99467700  0.99434500  0.11249400  1
  Ti  Ti2  1  0.00532100  0.00565600  0.88750800  1
  Ti  Ti3  1  0.88792000  0.00662200  0.00895800  1
  Ti  Ti4  1  0.11208100  0.99337700  0.99104100  1
  Ti  Ti5  1  0.00745600  0.88762600  0.00871400  1
  Ti  Ti6  1  0.99254600  0.11237300  0.99128500  1
  Ti  Ti7  1  0.50532300  0.50565500  0.11249400  1
  Ti  Ti8  1  0.49467900  0.49434400  0.88750800  1
  Ti  Ti9  1  0.61208000  0.49337800  0.00895800  1
  Ti  Ti10  1  0.38791900  0.50662300  0.99104100  1
  Ti  Ti11  1  0.49254400  0.61237400  0.00871400  1
  Ti  Ti12  1  0.50745400  0.38762700  0.99128500  1
  Ti  Ti13  1  0.50532300  0.99434500  0.38750600  1
  Ti  Ti14  1  0.49467900  0.00565600  0.61249200  1
  Ti  Ti15  1  0.61208000  0.00662200  0.49104200  1
  Ti  Ti16  1  0.38791900  0.99337700  0.50895900  1
  Ti  Ti17  1  0.49254400  0.88762600  0.49128600  1
  Ti  Ti18  1  0.50745400  0.11237300  0.50871500  1
  Ti  Ti19  1  0.99467700  0.50565500  0.38750600  1
  Ti  Ti20  1  0.00532100  0.49434400  0.61249200  1
  Ti  Ti21  1  0.88792000  0.49337800  0.49104200  1
  Ti  Ti22  1  0.11208100  0.50662300  0.50895900  1
  Ti  Ti23  1  0.00745600  0.61237400  0.49128600  1
  Ti  Ti24  1  0.99254600  0.38762700  0.50871500  1
  H  H1  1  0.78419300  0.89304900  0.19304100  1
  H  H2  1  0.64762300  0.86109900  0.26244400  1
  H  H3  1  0.73018500  0.83299700  0.26981500  1
  H  H4  1  0.69152200  0.86002300  0.33507500  1
  H  H5  1  0.74767300  0.13793600  0.22475100  1
  H  H6  1  0.71580700  0.60695100  0.19304100  1
  H  H7  1  0.85237700  0.63890100  0.26244400  1
  H  H8  1  0.76981500  0.66700300  0.26981500  1
  H  H9  1  0.80847800  0.63997700  0.33507500  1
  H  H10  1  0.75232700  0.36206400  0.22475100  1
  H  H11  1  0.19304100  0.78419300  0.89304900  1
  H  H12  1  0.26244400  0.64762300  0.86109900  1
  H  H13  1  0.26981500  0.73018500  0.83299700  1
  H  H14  1  0.33507500  0.69152200  0.86002300  1
  H  H15  1  0.22475100  0.74767300  0.13793600  1
  H  H16  1  0.19304100  0.71580700  0.60695100  1
  H  H17  1  0.26244400  0.85237700  0.63890100  1
  H  H18  1  0.26981500  0.76981500  0.66700300  1
  H  H19  1  0.33507500  0.80847800  0.63997700  1
  H  H20  1  0.22475100  0.75232700  0.36206400  1
  H  H21  1  0.89304900  0.19304100  0.78419300  1
  H  H22  1  0.86109900  0.26244400  0.64762300  1
  H  H23  1  0.83299700  0.26981500  0.73018500  1
  H  H24  1  0.86002300  0.33507500  0.69152200  1
  H  H25  1  0.13793600  0.22475100  0.74767300  1
  H  H26  1  0.60695100  0.19304100  0.71580700  1
  H  H27  1  0.63890100  0.26244400  0.85237700  1
  H  H28  1  0.66700300  0.26981500  0.76981500  1
  H  H29  1  0.63997700  0.33507500  0.80847800  1
  H  H30  1  0.36206400  0.22475100  0.75232700  1
  H  H31  1  0.21580700  0.10695100  0.80695900  1
  H  H32  1  0.35237700  0.13890100  0.73755600  1
  H  H33  1  0.26981500  0.16700300  0.73018500  1
  H  H34  1  0.30847800  0.13997700  0.66492500  1
  H  H35  1  0.25232700  0.86206400  0.77524900  1
  H  H36  1  0.28419300  0.39304900  0.80695900  1
  H  H37  1  0.14762300  0.36109900  0.73755600  1
  H  H38  1  0.23018500  0.33299700  0.73018500  1
  H  H39  1  0.19152200  0.36002300  0.66492500  1
  H  H40  1  0.24767300  0.63793600  0.77524900  1
  H  H41  1  0.80695900  0.21580700  0.10695100  1
  H  H42  1  0.73755600  0.35237700  0.13890100  1
  H  H43  1  0.73018500  0.26981500  0.16700300  1
  H  H44  1  0.66492500  0.30847800  0.13997700  1
  H  H45  1  0.77524900  0.25232700  0.86206400  1
  H  H46  1  0.80695900  0.28419300  0.39304900  1
  H  H47  1  0.73755600  0.14762300  0.36109900  1
  H  H48  1  0.73018500  0.23018500  0.33299700  1
  H  H49  1  0.66492500  0.19152200  0.36002300  1
  H  H50  1  0.77524900  0.24767300  0.63793600  1
  H  H51  1  0.10695100  0.80695900  0.21580700  1
  H  H52  1  0.13890100  0.73755600  0.35237700  1
  H  H53  1  0.16700300  0.73018500  0.26981500  1
  H  H54  1  0.13997700  0.66492500  0.30847800  1
  H  H55  1  0.86206400  0.77524900  0.25232700  1
  H  H56  1  0.39304900  0.80695900  0.28419300  1
  H  H57  1  0.36109900  0.73755600  0.14762300  1
  H  H58  1  0.33299700  0.73018500  0.23018500  1
  H  H59  1  0.36002300  0.66492500  0.19152200  1
  H  H60  1  0.63793600  0.77524900  0.24767300  1
  C  C1  1  0.85059900  0.99783000  0.14661800  1
  C  C2  1  0.14940100  0.00217000  0.85338200  1
  C  C3  1  0.00093200  0.85379300  0.15022800  1
  C  C4  1  0.99906900  0.14620600  0.84977000  1
  C  C5  1  0.85358300  0.14951800  0.00185300  1
  C  C6  1  0.14641500  0.85048300  0.99814900  1
  C  C7  1  0.64940100  0.50217000  0.14661800  1
  C  C8  1  0.35059900  0.49783000  0.85338200  1
  C  C9  1  0.49906800  0.64620700  0.15022800  1
  C  C10  1  0.50093100  0.35379400  0.84977000  1
  C  C11  1  0.64641700  0.35048200  0.00185300  1
  C  C12  1  0.35358500  0.64951700  0.99814900  1
  C  C13  1  0.64940100  0.99783000  0.35338200  1
  C  C14  1  0.35059900  0.00217000  0.64661800  1
  C  C15  1  0.49906800  0.85379300  0.34977200  1
  C  C16  1  0.50093100  0.14620600  0.65023000  1
  C  C17  1  0.64641700  0.14951800  0.49814700  1
  C  C18  1  0.35358500  0.85048300  0.50185100  1
  C  C19  1  0.85059900  0.50217000  0.35338200  1
  C  C20  1  0.14940100  0.49783000  0.64661800  1
  C  C21  1  0.00093200  0.64620700  0.34977200  1
  C  C22  1  0.99906900  0.35379400  0.65023000  1
  C  C23  1  0.85358300  0.35048200  0.49814700  1
  C  C24  1  0.14641500  0.64951700  0.50185100  1
  C  C25  1  0.77152400  0.05425600  0.22506200  1
  C  C26  1  0.79524000  0.99924000  0.19661100  1
  C  C27  1  0.76629000  0.93956200  0.21372000  1
  C  C28  1  0.72133700  0.93582000  0.26617000  1
  C  C29  1  0.70220400  0.99531100  0.29360900  1
  C  C30  1  0.69513800  0.86887300  0.28326700  1
  C  C31  1  0.72847600  0.44574400  0.22506200  1
  C  C32  1  0.70476000  0.50076000  0.19661100  1
  C  C33  1  0.73371000  0.56043800  0.21372000  1
  C  C34  1  0.77866300  0.56418000  0.26617000  1
  C  C35  1  0.79779600  0.50468900  0.29360900  1
  C  C36  1  0.80486200  0.63112700  0.28326700  1
  C  C37  1  0.22506200  0.77152400  0.05425600  1
  C  C38  1  0.19661100  0.79524000  0.99924000  1
  C  C39  1  0.21372000  0.76629000  0.93956200  1
  C  C40  1  0.26617000  0.72133700  0.93582000  1
  C  C41  1  0.29360900  0.70220400  0.99531100  1
  C  C42  1  0.28326700  0.69513800  0.86887300  1
  C  C43  1  0.22506200  0.72847600  0.44574400  1
  C  C44  1  0.19661100  0.70476000  0.50076000  1
  C  C45  1  0.21372000  0.73371000  0.56043800  1
  C  C46  1  0.26617000  0.77866300  0.56418000  1
  C  C47  1  0.29360900  0.79779600  0.50468900  1
  C  C48  1  0.28326700  0.80486200  0.63112700  1
  C  C49  1  0.05425600  0.22506200  0.77152400  1
  C  C50  1  0.99924000  0.19661100  0.79524000  1
  C  C51  1  0.93956200  0.21372000  0.76629000  1
  C  C52  1  0.93582000  0.26617000  0.72133700  1
  C  C53  1  0.99531100  0.29360900  0.70220400  1
  C  C54  1  0.86887300  0.28326700  0.69513800  1
  C  C55  1  0.44574400  0.22506200  0.72847600  1
  C  C56  1  0.50076000  0.19661100  0.70476000  1
  C  C57  1  0.56043800  0.21372000  0.73371000  1
  C  C58  1  0.56418000  0.26617000  0.77866300  1
  C  C59  1  0.50468900  0.29360900  0.79779600  1
  C  C60  1  0.63112700  0.28326700  0.80486200  1
  C  C61  1  0.22847600  0.94574400  0.77493800  1
  C  C62  1  0.20476000  0.00076000  0.80338900  1
  C  C63  1  0.23371000  0.06043800  0.78628000  1
  C  C64  1  0.27866300  0.06418000  0.73383000  1
  C  C65  1  0.29779600  0.00468900  0.70639100  1
  C  C66  1  0.30486200  0.13112700  0.71673300  1
  C  C67  1  0.27152400  0.55425600  0.77493800  1
  C  C68  1  0.29524000  0.49924000  0.80338900  1
  C  C69  1  0.26629000  0.43956200  0.78628000  1
  C  C70  1  0.22133700  0.43582000  0.73383000  1
  C  C71  1  0.20220400  0.49531100  0.70639100  1
  C  C72  1  0.19513800  0.36887300  0.71673300  1
  C  C73  1  0.77493800  0.22847600  0.94574400  1
  C  C74  1  0.80338900  0.20476000  0.00076000  1
  C  C75  1  0.78628000  0.23371000  0.06043800  1
  C  C76  1  0.73383000  0.27866300  0.06418000  1
  C  C77  1  0.70639100  0.29779600  0.00468900  1
  C  C78  1  0.71673300  0.30486200  0.13112700  1
  C  C79  1  0.77493800  0.27152400  0.55425600  1
  C  C80  1  0.80338900  0.29524000  0.49924000  1
  C  C81  1  0.78628000  0.26629000  0.43956200  1
  C  C82  1  0.73383000  0.22133700  0.43582000  1
  C  C83  1  0.70639100  0.20220400  0.49531100  1
  C  C84  1  0.71673300  0.19513800  0.36887300  1
  C  C85  1  0.94574400  0.77493800  0.22847600  1
  C  C86  1  0.00076000  0.80338900  0.20476000  1
  C  C87  1  0.06043800  0.78628000  0.23371000  1
  C  C88  1  0.06418000  0.73383000  0.27866300  1
  C  C89  1  0.00468900  0.70639100  0.29779600  1
  C  C90  1  0.13112700  0.71673300  0.30486200  1
  C  C91  1  0.55425600  0.77493800  0.27152400  1
  C  C92  1  0.49924000  0.80338900  0.29524000  1
  C  C93  1  0.43956200  0.78628000  0.26629000  1
  C  C94  1  0.43582000  0.73383000  0.22133700  1
  C  C95  1  0.49531100  0.70639100  0.20220400  1
  C  C96  1  0.36887300  0.71673300  0.19513800  1
  N  N1  1  0.72591800  0.05356400  0.27171800  1
  N  N2  1  0.77408200  0.44643600  0.27171800  1
  N  N3  1  0.27171800  0.72591800  0.05356400  1
  N  N4  1  0.27171800  0.77408200  0.44643600  1
  N  N5  1  0.05356400  0.27171800  0.72591800  1
  N  N6  1  0.44643600  0.27171800  0.77408200  1
  N  N7  1  0.27408200  0.94643600  0.72828200  1
  N  N8  1  0.22591800  0.55356400  0.72828200  1
  N  N9  1  0.72828200  0.27408200  0.94643600  1
  N  N10  1  0.72828200  0.22591800  0.55356400  1
  N  N11  1  0.94643600  0.72828200  0.27408200  1
  N  N12  1  0.55356400  0.72828200  0.22591800  1
  O  O1  1  0.94025200  0.94038800  0.04359700  1
  O  O2  1  0.05974900  0.05961100  0.95640200  1
  O  O3  1  0.96026400  0.06143500  0.05904100  1
  O  O4  1  0.03973800  0.93856400  0.94095700  1
  O  O5  1  0.06090200  0.95985800  0.06062400  1
  O  O6  1  0.93909600  0.04014200  0.93937800  1
  O  O7  1  0.90900000  0.00189200  0.16610900  1
  O  O8  1  0.83178000  0.99893100  0.08994500  1
  O  O9  1  0.09100100  0.99810700  0.83389000  1
  O  O10  1  0.16822100  0.00106900  0.91005400  1
  O  O11  1  0.99715600  0.91272200  0.16793300  1
  O  O12  1  0.00432600  0.83590000  0.09364400  1
  O  O13  1  0.00284200  0.08727900  0.83206900  1
  O  O14  1  0.99567600  0.16409900  0.90635400  1
  O  O15  1  0.83489200  0.09070000  0.00576500  1
  O  O16  1  0.91147000  0.16587200  0.99761200  1
  O  O17  1  0.16510600  0.90930100  0.99423700  1
  O  O18  1  0.08853100  0.83412700  0.00238600  1
  O  O19  1  0.55974800  0.55961200  0.04359700  1
  O  O20  1  0.44025100  0.44038900  0.95640200  1
  O  O21  1  0.53973600  0.43856500  0.05904100  1
  O  O22  1  0.46026200  0.56143600  0.94095700  1
  O  O23  1  0.43909800  0.54014200  0.06062400  1
  O  O24  1  0.56090400  0.45985800  0.93937800  1
  O  O25  1  0.59100000  0.49810800  0.16610900  1
  O  O26  1  0.66822000  0.50106900  0.08994500  1
  O  O27  1  0.40899900  0.50189300  0.83389000  1
  O  O28  1  0.33177900  0.49893100  0.91005400  1
  O  O29  1  0.50284400  0.58727800  0.16793300  1
  O  O30  1  0.49567400  0.66410000  0.09364400  1
  O  O31  1  0.49715800  0.41272100  0.83206900  1
  O  O32  1  0.50432400  0.33590100  0.90635400  1
  O  O33  1  0.66510800  0.40930000  0.00576500  1
  O  O34  1  0.58853000  0.33412800  0.99761200  1
  O  O35  1  0.33489400  0.59069900  0.99423700  1
  O  O36  1  0.41146900  0.66587300  0.00238600  1
  O  O37  1  0.55974800  0.94038800  0.45640300  1
  O  O38  1  0.44025100  0.05961100  0.54359800  1
  O  O39  1  0.53973600  0.06143500  0.44095900  1
  O  O40  1  0.46026200  0.93856400  0.55904300  1
  O  O41  1  0.43909800  0.95985800  0.43937600  1
  O  O42  1  0.56090400  0.04014200  0.56062200  1
  O  O43  1  0.59100000  0.00189200  0.33389100  1
  O  O44  1  0.66822000  0.99893100  0.41005500  1
  O  O45  1  0.40899900  0.99810700  0.66611000  1
  O  O46  1  0.33177900  0.00106900  0.58994600  1
  O  O47  1  0.50284400  0.91272200  0.33206700  1
  O  O48  1  0.49567400  0.83590000  0.40635600  1
  O  O49  1  0.49715800  0.08727900  0.66793100  1
  O  O50  1  0.50432400  0.16409900  0.59364600  1
  O  O51  1  0.66510800  0.09070000  0.49423500  1
  O  O52  1  0.58853000  0.16587200  0.50238800  1
  O  O53  1  0.33489400  0.90930100  0.50576300  1
  O  O54  1  0.41146900  0.83412700  0.49761400  1
  O  O55  1  0.94025200  0.55961200  0.45640300  1
  O  O56  1  0.05974900  0.44038900  0.54359800  1
  O  O57  1  0.96026400  0.43856500  0.44095900  1
  O  O58  1  0.03973800  0.56143600  0.55904300  1
  O  O59  1  0.06090200  0.54014200  0.43937600  1
  O  O60  1  0.93909600  0.45985800  0.56062200  1
  O  O61  1  0.90900000  0.49810800  0.33389100  1
  O  O62  1  0.83178000  0.50106900  0.41005500  1
  O  O63  1  0.09100100  0.50189300  0.66611000  1
  O  O64  1  0.16822100  0.49893100  0.58994600  1
  O  O65  1  0.99715600  0.58727800  0.33206700  1
  O  O66  1  0.00432600  0.66410000  0.40635600  1
  O  O67  1  0.00284200  0.41272100  0.66793100  1
  O  O68  1  0.99567600  0.33590100  0.59364600  1
  O  O69  1  0.83489200  0.40930000  0.49423500  1
  O  O70  1  0.91147000  0.33412800  0.50238800  1
  O  O71  1  0.16510600  0.59069900  0.50576300  1
  O  O72  1  0.08853100  0.66587300  0.49761400  1
  O  O73  1  0.78166000  0.11417700  0.20233400  1
  O  O74  1  0.71834000  0.38582300  0.20233400  1
  O  O75  1  0.20233400  0.78166000  0.11417700  1
  O  O76  1  0.20233400  0.71834000  0.38582300  1
  O  O77  1  0.11417700  0.20233400  0.78166000  1
  O  O78  1  0.38582300  0.20233400  0.71834000  1
  O  O79  1  0.21834000  0.88582300  0.79766600  1
  O  O80  1  0.28166000  0.61417700  0.79766600  1
  O  O81  1  0.79766600  0.21834000  0.88582300  1
  O  O82  1  0.79766600  0.28166000  0.61417700  1
  O  O83  1  0.88582300  0.79766600  0.21834000  1
  O  O84  1  0.61417700  0.79766600  0.28166000  1
