# generated using pymatgen
data_Er(C3O2)3
_symmetry_space_group_name_H-M   'P 1'
_cell_length_a   15.41569300
_cell_length_b   12.06274800
_cell_length_c   12.21208400
_cell_angle_alpha   94.93833300
_cell_angle_beta   96.87137500
_cell_angle_gamma   98.45372200
_symmetry_Int_Tables_number   1
_chemical_formula_structural   Er(C3O2)3
_chemical_formula_sum   'Er2 C18 O12'
_cell_volume   2217.63611048
_cell_formula_units_Z   2
loop_
 _symmetry_equiv_pos_site_id
 _symmetry_equiv_pos_as_xyz
  1  'x, y, z'
loop_
 _atom_site_type_symbol
 _atom_site_label
 _atom_site_symmetry_multiplicity
 _atom_site_fract_x
 _atom_site_fract_y
 _atom_site_fract_z
 _atom_site_occupancy
  Er  Er1  1  0.86912000  0.00550600  0.04535800  1
  Er  Er2  1  0.15191100  0.05457700  0.08426200  1
  C  C1  1  0.27261800  0.94152300  0.89269300  1
  C  C2  1  0.01761200  0.25632700  0.07001100  1
  C  C3  1  0.01612900  0.03695100  0.28851700  1
  C  C4  1  0.99061100  0.80564400  0.04596700  1
  C  C5  1  0.70628000  0.98045600  0.90202100  1
  C  C6  1  0.00801100  0.02651300  0.84027300  1
  C  C7  1  0.01636200  0.03617200  0.40751000  1
  C  C8  1  0.01293800  0.03371900  0.50626300  1
  C  C9  1  0.00779000  0.03007700  0.62206800  1
  C  C10  1  0.00531400  0.02753100  0.72099100  1
  C  C11  1  0.36287600  0.94115100  0.87290100  1
  C  C12  1  0.44010900  0.94544100  0.86241900  1
  C  C13  1  0.53243000  0.95477000  0.86040100  1
  C  C14  1  0.61211700  0.96546900  0.87092700  1
  C  C15  1  0.00278700  0.68938500  0.04922100  1
  C  C16  1  0.00891800  0.59090200  0.05391200  1
  C  C17  1  0.01303100  0.47461200  0.06039200  1
  C  C18  1  0.01525200  0.37522200  0.06555400  1
  O  O1  1  0.08582200  0.04319000  0.90188700  1
  O  O2  1  0.21195100  0.91039700  0.81777200  1
  O  O3  1  0.25675900  0.98556600  0.99236000  1
  O  O4  1  0.05889900  0.88723200  0.06096400  1
  O  O5  1  0.90978900  0.82953800  0.03685400  1
  O  O6  1  0.09034900  0.05214300  0.24478200  1
  O  O7  1  0.94002100  0.01845500  0.22397100  1
  O  O8  1  0.93469900  0.01264500  0.88686600  1
  O  O9  1  0.09405600  0.21995500  0.08197400  1
  O  O10  1  0.94363000  0.18431300  0.05706200  1
  O  O11  1  0.74756800  0.89333200  0.90346500  1
  O  O12  1  0.74720300  0.07719600  0.95209500  1
