# generated using pymatgen
data_Ce2H9C21(NO4)3
_symmetry_space_group_name_H-M   'P 1'
_cell_length_a   25.37573800
_cell_length_b   21.28687300
_cell_length_c   9.93861500
_cell_angle_alpha   103.60003500
_cell_angle_beta   92.25813600
_cell_angle_gamma   58.47452400
_symmetry_Int_Tables_number   1
_chemical_formula_structural   Ce2H9C21(NO4)3
_chemical_formula_sum   'Ce6 H27 C63 N9 O36'
_cell_volume   4425.20141031
_cell_formula_units_Z   3
loop_
 _symmetry_equiv_pos_site_id
 _symmetry_equiv_pos_as_xyz
  1  'x, y, z'
loop_
 _atom_site_type_symbol
 _atom_site_label
 _atom_site_symmetry_multiplicity
 _atom_site_fract_x
 _atom_site_fract_y
 _atom_site_fract_z
 _atom_site_occupancy
  Ce  Ce1  1  0.57647200  0.42190000  0.96802400  1
  Ce  Ce2  1  0.39839900  0.61616200  0.08198600  1
  Ce  Ce3  1  0.57528900  0.99871800  0.09910400  1
  Ce  Ce4  1  0.39148500  0.05748900  0.07432300  1
  Ce  Ce5  1  0.98025100  0.61558500  0.99881400  1
  Ce  Ce6  1  0.98634900  0.40824400  0.88586000  1
  H  H1  1  0.47148600  0.67141300  0.78770300  1
  H  H2  1  0.49630400  0.46955000  0.50901800  1
  H  H3  1  0.53627500  0.61731400  0.37128500  1
  H  H4  1  0.48255100  0.88847000  0.32499000  1
  H  H5  1  0.47759300  0.07804800  0.60460300  1
  H  H6  1  0.54276800  0.87001000  0.72005100  1
  H  H7  1  0.08858800  0.52996600  0.64216400  1
  H  H8  1  0.95463800  0.48352800  0.45151700  1
  H  H9  1  0.06731300  0.52359500  0.22514000  1
  H  H10  1  0.74773600  0.26935300  0.62699200  1
  H  H11  1  0.79224400  0.39879600  0.95481200  1
  H  H12  1  0.91611400  0.25732800  0.58515900  1
  H  H13  1  0.35982500  0.29053500  0.31011800  1
  H  H14  1  0.49049700  0.26514600  0.01380900  1
  H  H15  1  0.34557200  0.48547500  0.24518200  1
  H  H16  1  0.64405200  0.78909100  0.25677900  1
  H  H17  1  0.77508700  0.73664700  0.93204700  1
  H  H18  1  0.78204400  0.56094100  0.08295700  1
  H  H19  1  0.32251900  0.48641200  0.97921500  1
  H  H20  1  0.15470100  0.69284000  0.17120800  1
  H  H21  1  0.15543800  0.51782100  0.85367200  1
  H  H22  1  0.64612200  0.56524600  0.89847500  1
  H  H23  1  0.47787400  0.77640100  0.08100500  1
  H  H24  1  0.62891200  0.76954800  0.88773800  1
  H  H25  1  0.16027500  0.49817400  0.14302100  1
  H  H26  1  0.20090500  0.27656000  0.92685600  1
  H  H27  1  0.26311000  0.31695600  0.32326800  1
  C  C1  1  0.45628900  0.56029600  0.78375500  1
  C  C2  1  0.70116900  0.37295700  0.86585900  1
  C  C3  1  0.44480300  0.41958200  0.06424300  1
  C  C4  1  0.53052300  0.49747500  0.27660800  1
  C  C5  1  0.28074600  0.62527600  0.10279400  1
  C  C6  1  0.53370700  0.62009200  0.01852700  1
  C  C7  1  0.45093500  0.02725900  0.34152500  1
  C  C8  1  0.67798900  0.85062600  0.09848700  1
  C  C9  1  0.44950300  0.18660200  0.12050200  1
  C  C10  1  0.52227300  0.00525700  0.81929600  1
  C  C11  1  0.27990800  0.20602600  0.10523100  1
  C  C12  1  0.52087300  0.86699700  0.03426300  1
  C  C13  1  0.99178900  0.47641900  0.18627700  1
  C  C14  1  0.08023000  0.64439200  0.03109800  1
  C  C15  1  0.84955800  0.59730600  0.95120800  1
  C  C16  1  0.98618500  0.54274500  0.69838300  1
  C  C17  1  0.89971300  0.35800000  0.81911700  1
  C  C18  1  0.11697100  0.42551100  0.95711800  1
  C  C19  1  0.48655700  0.63198500  0.68624500  1
  C  C20  1  0.48413300  0.56703800  0.66424700  1
  C  C21  1  0.50083100  0.51862700  0.53100700  1
  C  C22  1  0.51951400  0.53762200  0.42459100  1
  C  C23  1  0.52228700  0.60230600  0.45397700  1
  C  C24  1  0.49130300  0.91364700  0.42416200  1
  C  C25  1  0.47828300  0.98723900  0.45142500  1
  C  C26  1  0.48866400  0.01993800  0.57993700  1
  C  C27  1  0.51201600  0.97690200  0.67737400  1
  C  C28  1  0.52476000  0.90335000  0.64406900  1
  C  C29  1  0.06859500  0.51699900  0.54973500  1
  C  C30  1  0.01934200  0.50765100  0.56120800  1
  C  C31  1  0.99382700  0.49002900  0.44399700  1
  C  C32  1  0.01463000  0.49144600  0.31932000  1
  C  C33  1  0.05686600  0.51338400  0.31751700  1
  C  C34  1  0.77935600  0.28640300  0.67082600  1
  C  C35  1  0.76376400  0.33704100  0.80017000  1
  C  C36  1  0.80482000  0.35717400  0.85617200  1
  C  C37  1  0.85916200  0.32964800  0.77638500  1
  C  C38  1  0.87320400  0.27953700  0.64731600  1
  C  C39  1  0.37548900  0.31558400  0.25208200  1
  C  C40  1  0.42553200  0.26880300  0.15290600  1
  C  C41  1  0.44999400  0.30102000  0.08893000  1
  C  C42  1  0.42023400  0.38015800  0.11947900  1
  C  C43  1  0.36837900  0.42421600  0.21589200  1
  C  C44  1  0.68401300  0.74753300  0.18261100  1
  C  C45  1  0.70778200  0.77080700  0.09577000  1
  C  C46  1  0.75584700  0.71800300  0.99757600  1
  C  C47  1  0.78420000  0.64265200  0.99615000  1
  C  C48  1  0.75893600  0.62004100  0.08061500  1
  C  C49  1  0.27283500  0.51946900  0.99892200  1
  C  C50  1  0.24330700  0.59151600  0.08818500  1
  C  C51  1  0.17909900  0.63537200  0.10573900  1
  C  C52  1  0.14730000  0.60704700  0.02343200  1
  C  C53  1  0.17952400  0.53858300  0.92400100  1
  C  C54  1  0.61826200  0.62672400  0.92665700  1
  C  C55  1  0.55902100  0.66527600  0.99369200  1
  C  C56  1  0.52399400  0.74484500  0.02684500  1
  C  C57  1  0.54994900  0.78338200  0.99289200  1
  C  C58  1  0.60868100  0.74137500  0.92138300  1
  C  C59  1  0.18412000  0.43775400  0.13132100  1
  C  C60  1  0.17425200  0.39158600  0.02362700  1
  C  C61  1  0.20585700  0.31450600  0.01263900  1
  C  C62  1  0.23935200  0.28720100  0.11926300  1
  C  C63  1  0.24004800  0.33700200  0.23533200  1
  N  N1  1  0.50589500  0.64817500  0.58283200  1
  N  N2  1  0.51435500  0.87297800  0.51939300  1
  N  N3  1  0.08525200  0.52262200  0.42967600  1
  N  N4  1  0.83366900  0.25802600  0.59732300  1
  N  N5  1  0.34785200  0.39155900  0.28172600  1
  N  N6  1  0.70913100  0.67281800  0.17209200  1
  N  N7  1  0.24120200  0.49486800  0.91630100  1
  N  N8  1  0.64145100  0.66500900  0.89038400  1
  N  N9  1  0.21472500  0.41050300  0.23728000  1
  O  O1  1  0.40349600  0.61162600  0.82948500  1
  O  O2  1  0.49144900  0.51350900  0.86436100  1
  O  O3  1  0.65785100  0.38243900  0.78336200  1
  O  O4  1  0.68750200  0.39476700  0.00158700  1
  O  O5  1  0.50443200  0.38628000  0.03343500  1
  O  O6  1  0.40843900  0.49304500  0.07551000  1
  O  O7  1  0.58084000  0.43994500  0.22800800  1
  O  O8  1  0.48846300  0.53190000  0.19057200  1
  O  O9  1  0.30627800  0.63583200  0.21733100  1
  O  O10  1  0.30312400  0.62216700  0.98415200  1
  O  O11  1  0.47382700  0.65413100  0.05405700  1
  O  O12  1  0.57012200  0.54491700  0.98839400  1
  O  O13  1  0.39752300  0.04651100  0.32049600  1
  O  O14  1  0.48771400  0.02477900  0.24386300  1
  O  O15  1  0.65186100  0.90196900  0.21643600  1
  O  O16  1  0.67184600  0.87134900  0.98148800  1
  O  O17  1  0.50933500  0.13640000  0.10616000  1
  O  O18  1  0.40946400  0.16477900  0.11917400  1
  O  O19  1  0.57380000  0.99356300  0.84369900  1
  O  O20  1  0.48044900  0.02627900  0.92543400  1
  O  O21  1  0.30429100  0.15980900  0.98136100  1
  O  O22  1  0.29919200  0.18138600  0.21710200  1
  O  O23  1  0.46036800  0.91588200  0.04610300  1
  O  O24  1  0.55905300  0.89155400  0.04795000  1
  O  O25  1  0.98997200  0.41889300  0.14343100  1
  O  O26  1  0.98422500  0.52018300  0.10119000  1
  O  O27  1  0.04927300  0.65081200  0.14190400  1
  O  O28  1  0.05759000  0.64195400  0.91113300  1
  O  O29  1  0.87718500  0.63555600  0.97035100  1
  O  O30  1  0.88091400  0.52305000  0.93023200  1
  O  O31  1  0.97408000  0.60724500  0.74813300  1
  O  O32  1  0.98310500  0.50276500  0.78078200  1
  O  O33  1  0.92936700  0.36361800  0.72246700  1
  O  O34  1  0.90608500  0.37855100  0.95086600  1
  O  O35  1  0.08988300  0.38656300  0.92977300  1
  O  O36  1  0.08445500  0.49976000  0.97669500  1
