# generated using pymatgen
data_ZnH22C34(NO)4
_symmetry_space_group_name_H-M   'P 1'
_cell_length_a   27.52847900
_cell_length_b   27.32697400
_cell_length_c   30.49461700
_cell_angle_alpha   101.16417800
_cell_angle_beta   95.90524500
_cell_angle_gamma   60.61213400
_symmetry_Int_Tables_number   1
_chemical_formula_structural   ZnH22C34(NO)4
_chemical_formula_sum   'Zn3 H66 C102 N12 O12'
_cell_volume   19609.11211911
_cell_formula_units_Z   3
loop_
 _symmetry_equiv_pos_site_id
 _symmetry_equiv_pos_as_xyz
  1  'x, y, z'
loop_
 _atom_site_type_symbol
 _atom_site_label
 _atom_site_symmetry_multiplicity
 _atom_site_fract_x
 _atom_site_fract_y
 _atom_site_fract_z
 _atom_site_occupancy
  Zn  Zn1  1  0.51661400  0.54259600  0.16127000  1
  Zn  Zn2  1  0.52922700  0.00440300  0.50380600  1
  Zn  Zn3  1  0.98727700  0.53299800  0.83128700  1
  H  H1  1  0.45049600  0.52095700  0.21737300  1
  H  H2  1  0.46126900  0.44743800  0.25751300  1
  H  H3  1  0.63011000  0.34707800  0.21375700  1
  H  H4  1  0.61658500  0.42278000  0.17441700  1
  H  H5  1  0.47327400  0.46288900  0.11503900  1
  H  H6  1  0.38664000  0.47012600  0.08089100  1
  H  H7  1  0.31393000  0.65148000  0.10760800  1
  H  H8  1  0.40227500  0.64121400  0.14100800  1
  H  H9  1  0.45861300  0.08752700  0.44461600  1
  H  H10  1  0.46572800  0.14799700  0.39965800  1
  H  H11  1  0.63686800  0.08458600  0.43936700  1
  H  H12  1  0.62610100  0.02665100  0.48508000  1
  H  H13  1  0.48420900  0.13002200  0.54290800  1
  H  H14  1  0.40088800  0.20677300  0.58097500  1
  H  H15  1  0.33792200  0.09031200  0.57537000  1
  H  H16  1  0.42151700  0.01598600  0.53535300  1
  H  H17  1  0.87808500  0.61535000  0.87281100  1
  H  H18  1  0.80398300  0.61566200  0.90927800  1
  H  H19  1  0.89512400  0.43359900  0.89033400  1
  H  H20  1  0.96614400  0.43653800  0.85096100  1
  H  H21  1  0.88334600  0.56405300  0.77375600  1
  H  H22  1  0.81734100  0.64347400  0.73695600  1
  H  H23  1  0.91469000  0.72685300  0.78143000  1
  H  H24  1  0.97967200  0.64552900  0.81712100  1
  H  H25  1  0.71981900  0.60145800  0.01841900  1
  H  H26  1  0.79018000  0.59951200  0.97625100  1
  H  H27  1  0.80416900  0.44890000  0.89126500  1
  H  H28  1  0.56318100  0.62304400  0.06159000  1
  H  H29  1  0.62782400  0.61886900  0.01158700  1
  H  H30  1  0.71943500  0.43780300  0.00132400  1
  H  H31  1  0.65386800  0.44175700  0.05190300  1
  H  H32  1  0.64256000  0.25763200  0.33008700  1
  H  H33  1  0.63449500  0.32888300  0.28873700  1
  H  H34  1  0.47387300  0.35306500  0.24150100  1
  H  H35  1  0.60913600  0.17973300  0.43457800  1
  H  H36  1  0.61365900  0.24160000  0.39030400  1
  H  H37  1  0.50994800  0.20462300  0.29034400  1
  H  H38  1  0.50624900  0.14198000  0.33434300  1
  H  H39  1  0.74631700  0.91064900  0.65534900  1
  H  H40  1  0.67955000  0.96693600  0.60257600  1
  H  H41  1  0.58069100  0.88884000  0.61404000  1
  H  H42  1  0.88152600  0.75173000  0.70818200  1
  H  H43  1  0.81498300  0.82580300  0.66791000  1
  H  H44  1  0.68195900  0.81468400  0.71892600  1
  H  H45  1  0.74896400  0.74025500  0.75861100  1
  H  H46  1  0.18813700  0.47112600  0.99607300  1
  H  H47  1  0.12080900  0.46272500  0.94268600  1
  H  H48  1  0.04728900  0.63996100  0.93614900  1
  H  H49  1  0.29402500  0.50076900  0.10301400  1
  H  H50  1  0.21316400  0.50103200  0.06388900  1
  H  H51  1  0.19443900  0.63287500  0.99632300  1
  H  H52  1  0.27530900  0.63284700  0.03614600  1
  H  H53  1  0.61086900  0.76752300  0.34059700  1
  H  H54  1  0.61249100  0.84418200  0.39372600  1
  H  H55  1  0.43865900  0.91377300  0.41662400  1
  H  H56  1  0.60652800  0.61179400  0.27348700  1
  H  H57  1  0.60946300  0.68676000  0.32754000  1
  H  H58  1  0.43434100  0.79354700  0.30805200  1
  H  H59  1  0.43143000  0.71615300  0.25520500  1
  H  H60  1  0.12442500  0.29073000  0.67583600  1
  H  H61  1  0.05119000  0.36784400  0.72426700  1
  H  H62  1  0.14175500  0.46015800  0.73939700  1
  H  H63  1  0.25534900  0.17628200  0.56968200  1
  H  H64  1  0.17479500  0.25161800  0.61139600  1
  H  H65  1  0.27956100  0.31000300  0.69090400  1
  H  H66  1  0.35968200  0.23442000  0.65004400  1
  C  C1  1  0.51895100  0.61419600  0.22518100  1
  C  C2  1  0.56876200  0.53722300  0.09556800  1
  C  C3  1  0.48998100  0.48223000  0.21639700  1
  C  C4  1  0.49601500  0.44044300  0.23880700  1
  C  C5  1  0.54645900  0.39125600  0.23834500  1
  C  C6  1  0.59011500  0.38526500  0.21522300  1
  C  C7  1  0.58236700  0.42776900  0.19265100  1
  C  C8  1  0.43782000  0.50444300  0.11351200  1
  C  C9  1  0.38865200  0.50863500  0.09461300  1
  C  C10  1  0.34330000  0.56150100  0.09228900  1
  C  C11  1  0.34866900  0.60937000  0.10864500  1
  C  C12  1  0.39841900  0.60361200  0.12781900  1
  C  C13  1  0.52761700  0.92923400  0.44305800  1
  C  C14  1  0.58727000  0.96030900  0.56918400  1
  C  C15  1  0.49780600  0.08736400  0.44351200  1
  C  C16  1  0.50215900  0.12102500  0.41761600  1
  C  C17  1  0.55210000  0.12088300  0.41572500  1
  C  C18  1  0.59670300  0.08688600  0.44058100  1
  C  C19  1  0.59076600  0.05382500  0.46629000  1
  C  C20  1  0.45143900  0.12169200  0.54972300  1
  C  C21  1  0.40449600  0.16491400  0.57182900  1
  C  C22  1  0.36270800  0.15458200  0.58135600  1
  C  C23  1  0.36897000  0.10060000  0.56768600  1
  C  C24  1  0.41643600  0.05838000  0.54534500  1
  C  C25  1  0.04313800  0.54395300  0.89889100  1
  C  C26  1  0.05146100  0.46402600  0.76862000  1
  C  C27  1  0.88104500  0.57522700  0.87581200  1
  C  C28  1  0.83950900  0.57527700  0.89727300  1
  C  C29  1  0.84374900  0.52451900  0.90324500  1
  C  C30  1  0.88935000  0.47430800  0.88564700  1
  C  C31  1  0.92982700  0.47587800  0.86361100  1
  C  C32  1  0.88996300  0.60021700  0.77539500  1
  C  C33  1  0.85242700  0.64538700  0.75500200  1
  C  C34  1  0.86049600  0.69177100  0.75705400  1
  C  C35  1  0.90715100  0.69115400  0.77898100  1
  C  C36  1  0.94361200  0.64542400  0.79949800  1
  C  C37  1  0.80170100  0.52477100  0.92956200  1
  C  C38  1  0.60425300  0.53271200  0.06075400  1
  C  C39  1  0.73739900  0.56851400  0.98967800  1
  C  C40  1  0.77742700  0.56741800  0.96561700  1
  C  C41  1  0.78612200  0.48270700  0.91939600  1
  C  C42  1  0.72182400  0.52676700  0.97807200  1
  C  C43  1  0.67911400  0.52812100  0.00398100  1
  C  C44  1  0.59694700  0.58189500  0.04836000  1
  C  C45  1  0.63417300  0.57962100  0.02026100  1
  C  C46  1  0.68452200  0.47844600  0.01392900  1
  C  C47  1  0.64747900  0.48073400  0.04263900  1
  C  C48  1  0.55315900  0.34675600  0.26244500  1
  C  C49  1  0.55729400  0.15629500  0.38783500  1
  C  C50  1  0.60485600  0.27933400  0.31120700  1
  C  C51  1  0.60084200  0.31891900  0.28707500  1
  C  C52  1  0.51098200  0.33302600  0.26149900  1
  C  C53  1  0.56125000  0.26754700  0.31033600  1
  C  C54  1  0.56279700  0.22704700  0.33654900  1
  C  C55  1  0.58842900  0.18363500  0.40236500  1
  C  C56  1  0.59114400  0.21883500  0.37695400  1
  C  C57  1  0.53215300  0.19928800  0.32191400  1
  C  C58  1  0.52972600  0.16390700  0.34715700  1
  C  C59  1  0.62544600  0.93154500  0.60409600  1
  C  C60  1  0.82005400  0.74039600  0.73599000  1
  C  C61  1  0.71018100  0.90518900  0.64591800  1
  C  C62  1  0.67194200  0.93785500  0.61649300  1
  C  C63  1  0.61699600  0.89425400  0.62279500  1
  C  C64  1  0.70167500  0.86624500  0.66250400  1
  C  C65  1  0.74302800  0.82660100  0.69074000  1
  C  C66  1  0.83760000  0.76646900  0.71165500  1
  C  C67  1  0.79941100  0.80907300  0.68888400  1
  C  C68  1  0.72564300  0.80169100  0.71643000  1
  C  C69  1  0.76379400  0.75901800  0.73886900  1
  C  C70  1  0.07884200  0.55095200  0.93566300  1
  C  C71  1  0.29106100  0.56600300  0.07174200  1
  C  C72  1  0.15591300  0.50913600  0.98446100  1
  C  C73  1  0.11804500  0.50405600  0.95356100  1
  C  C74  1  0.07736400  0.60277300  0.95007700  1
  C  C75  1  0.15462900  0.56114600  0.99728900  1
  C  C76  1  0.19881700  0.56579100  0.02605000  1
  C  C77  1  0.27254600  0.52977900  0.07944700  1
  C  C78  1  0.22656800  0.52983500  0.05696800  1
  C  C79  1  0.21531800  0.60444200  0.02037000  1
  C  C80  1  0.26126200  0.60451100  0.04305500  1
  C  C81  1  0.52570200  0.88424800  0.40941800  1
  C  C82  1  0.51892200  0.65893400  0.26023100  1
  C  C83  1  0.57296700  0.79839800  0.35815100  1
  C  C84  1  0.57386900  0.84259100  0.38787800  1
  C  C85  1  0.47692400  0.88141600  0.40010800  1
  C  C86  1  0.52410300  0.79510600  0.35092600  1
  C  C87  1  0.52242300  0.74709300  0.32054700  1
  C  C88  1  0.56843600  0.65158500  0.28087600  1
  C  C89  1  0.57012900  0.69499500  0.31125800  1
  C  C90  1  0.47235600  0.75356300  0.30115000  1
  C  C91  1  0.47058800  0.70962200  0.27117000  1
  C  C92  1  0.09105400  0.41980400  0.73530700  1
  C  C93  1  0.31351700  0.19984100  0.60661000  1
  C  C94  1  0.12751700  0.32878600  0.68878800  1
  C  C95  1  0.08611600  0.37227100  0.71647900  1
  C  C96  1  0.13672400  0.42350400  0.72512800  1
  C  C97  1  0.17366100  0.33313100  0.68045200  1
  C  C98  1  0.22123300  0.28622700  0.65459700  1
  C  C99  1  0.26121700  0.20485300  0.59683000  1
  C  C100  1  0.21529300  0.24777900  0.62067700  1
  C  C101  1  0.27347300  0.28116800  0.66414700  1
  C  C102  1  0.31922600  0.23818000  0.64063200  1
  N  N1  1  0.53263100  0.47535000  0.19332100  1
  N  N2  1  0.44190000  0.55157700  0.13034400  1
  N  N3  1  0.54168000  0.05451500  0.46754900  1
  N  N4  1  0.45678100  0.06937500  0.53667700  1
  N  N5  1  0.92546400  0.52599800  0.85926500  1
  N  N6  1  0.93418300  0.60118800  0.79800000  1
  N  N7  1  0.74691500  0.48434400  0.94366900  1
  N  N8  1  0.51579700  0.29408100  0.28510100  1
  N  N9  1  0.65497400  0.86247100  0.65103100  1
  N  N10  1  0.11548300  0.60671300  0.97985200  1
  N  N11  1  0.47708700  0.83707800  0.37153000  1
  N  N12  1  0.17692000  0.38037200  0.69863400  1
  O  O1  1  0.47226600  0.61528100  0.20999100  1
  O  O2  1  0.56620000  0.57349500  0.20765300  1
  O  O3  1  0.53075700  0.58766100  0.11373800  1
  O  O4  1  0.57634600  0.49208700  0.11049300  1
  O  O5  1  0.48181200  0.97429200  0.45902100  1
  O  O6  1  0.57589000  0.92371800  0.45825000  1
  O  O7  1  0.54840200  0.94689200  0.55407200  1
  O  O8  1  0.59293700  0.99720100  0.55143800  1
  O  O9  1  0.00363200  0.58789800  0.88250300  1
  O  O10  1  0.05257200  0.49275400  0.88063000  1
  O  O11  1  0.06049100  0.50587800  0.78817000  1
  O  O12  1  0.00874000  0.46106100  0.78064900  1
