# generated using pymatgen
data_CuH9C14NO6
_symmetry_space_group_name_H-M   'P 1'
_cell_length_a   10.18418900
_cell_length_b   9.95070300
_cell_length_c   19.86453600
_cell_angle_alpha   100.31893100
_cell_angle_beta   99.75345200
_cell_angle_gamma   88.89703600
_symmetry_Int_Tables_number   1
_chemical_formula_structural   CuH9C14NO6
_chemical_formula_sum   'Cu4 H36 C56 N4 O24'
_cell_volume   1951.75493698
_cell_formula_units_Z   4
loop_
 _symmetry_equiv_pos_site_id
 _symmetry_equiv_pos_as_xyz
  1  'x, y, z'
loop_
 _atom_site_type_symbol
 _atom_site_label
 _atom_site_symmetry_multiplicity
 _atom_site_fract_x
 _atom_site_fract_y
 _atom_site_fract_z
 _atom_site_occupancy
  Cu  Cu1  1  0.02612700  0.07561300  0.01325600  1
  Cu  Cu2  1  0.05038500  0.81010400  0.01197300  1
  Cu  Cu3  1  0.16235900  0.01708000  0.50767900  1
  Cu  Cu4  1  0.91449100  0.06425700  0.53622200  1
  H  H1  1  0.82436600  0.63750800  0.08315700  1
  H  H2  1  0.72513100  0.48660900  0.97475700  1
  H  H3  1  0.82078000  0.26082900  0.94227300  1
  H  H4  1  0.25016700  0.61519100  0.08081100  1
  H  H5  1  0.33956800  0.38781300  0.04603800  1
  H  H6  1  0.23709700  0.24236300  0.93645800  1
  H  H7  1  0.04476000  0.32786400  0.86366400  1
  H  H8  1  0.96049500  0.55751300  0.89978700  1
  H  H9  1  0.11392800  0.33419100  0.12147100  1
  H  H10  1  0.02194000  0.56081500  0.15606800  1
  H  H11  1  0.67237000  0.85846100  0.40659900  1
  H  H12  1  0.52296600  0.02139000  0.35215200  1
  H  H13  1  0.31845900  0.09366700  0.39717500  1
  H  H14  1  0.75088900  0.97133300  0.63843300  1
  H  H15  1  0.54404900  0.03755800  0.68295900  1
  H  H16  1  0.39993700  0.21093900  0.63417700  1
  H  H17  1  0.46132000  0.30843300  0.53818900  1
  H  H18  1  0.66994700  0.24020900  0.49590300  1
  H  H19  1  0.40534700  0.84376500  0.54835700  1
  H  H20  1  0.61307100  0.77078600  0.50611300  1
  H  H21  1  0.44624700  0.27603600  0.25406200  1
  H  H22  1  0.06912400  0.94608500  0.27872400  1
  H  H23  1  0.71721600  0.13675500  0.33997900  1
  H  H24  1  0.77657500  0.09388800  0.13093200  1
  H  H25  1  0.42051200  0.52576100  0.65410100  1
  H  H26  1  0.03929800  0.08495600  0.78125500  1
  H  H27  1  0.27667600  0.83428500  0.65178300  1
  H  H28  1  0.17989900  0.69715100  0.82596600  1
  H  H29  1  0.32893900  0.40215300  0.84794800  1
  H  H30  1  0.56344100  0.04501300  0.03886300  1
  H  H31  1  0.29259600  0.71489600  0.94536200  1
  H  H32  1  0.67741500  0.70496100  0.89649700  1
  H  H33  1  0.98574100  0.30652400  0.21768900  1
  H  H34  1  0.04950200  0.56399900  0.57667700  1
  H  H35  1  0.05558700  0.28055100  0.38950200  1
  H  H36  1  0.93009200  0.68760200  0.38154400  1
  C  C1  1  0.29818000  0.94713600  0.02953100  1
  C  C2  1  0.77950700  0.90590300  0.98706700  1
  C  C3  1  0.03046500  0.36956200  0.08806600  1
  C  C4  1  0.97769400  0.49622000  0.10820100  1
  C  C5  1  0.86803200  0.32934700  0.98814400  1
  C  C6  1  0.81281700  0.45530500  0.00684300  1
  C  C7  1  0.86784300  0.53941900  0.06741100  1
  C  C8  1  0.00754600  0.98094200  0.14227700  1
  C  C9  1  0.06673300  0.92204000  0.88246000  1
  C  C10  1  0.20246100  0.55053900  0.03374800  1
  C  C11  1  0.25376000  0.42292700  0.01407900  1
  C  C12  1  0.19629800  0.34130400  0.95318300  1
  C  C13  1  0.08912400  0.38927500  0.91248300  1
  C  C14  1  0.04064300  0.51755000  0.93340600  1
  C  C15  1  0.12031900  0.04210700  0.65320300  1
  C  C16  1  0.94360400  0.02989400  0.39025200  1
  C  C17  1  0.43343600  0.88537900  0.50612400  1
  C  C18  1  0.54961300  0.84349500  0.48217300  1
  C  C19  1  0.38505700  0.02451900  0.42204700  1
  C  C20  1  0.49994800  0.98386900  0.39657200  1
  C  C21  1  0.58297400  0.89261500  0.42675900  1
  C  C22  1  0.07707800  0.29589100  0.52277600  1
  C  C23  1  0.00701300  0.78007100  0.51091100  1
  C  C24  1  0.68577000  0.04409100  0.61557800  1
  C  C25  1  0.56991600  0.08158500  0.64092700  1
  C  C26  1  0.48889900  0.17757100  0.61349100  1
  C  C27  1  0.52360400  0.23252200  0.56011000  1
  C  C28  1  0.64018800  0.19320800  0.53606800  1
  C  C29  1  0.92905200  0.01243700  0.19867900  1
  C  C30  1  0.97313300  0.99190500  0.26595600  1
  C  C31  1  0.89555600  0.03610000  0.31697100  1
  C  C32  1  0.77496100  0.09814100  0.30006300  1
  C  C33  1  0.73125400  0.11867900  0.23332500  1
  C  C34  1  0.80876200  0.07609900  0.18317400  1
  C  C35  1  0.60565200  0.19032500  0.21656700  1
  C  C36  1  0.11198300  0.89910500  0.81457400  1
  C  C37  1  0.09828800  0.99460700  0.77064200  1
  C  C38  1  0.15901000  0.97144600  0.71194400  1
  C  C39  1  0.23431500  0.85590800  0.69874500  1
  C  C40  1  0.23712100  0.75577600  0.73805800  1
  C  C41  1  0.17542700  0.77693300  0.79545600  1
  C  C42  1  0.29802600  0.62400500  0.71562600  1
  C  C43  1  0.63551800  0.87856100  0.96912000  1
  C  C44  1  0.53759000  0.95182100  0.00210800  1
  C  C45  1  0.40939300  0.89516700  0.99204300  1
  C  C46  1  0.38597700  0.76675500  0.95053300  1
  C  C47  1  0.47978900  0.70051400  0.91503500  1
  C  C48  1  0.60262200  0.75870400  0.92313600  1
  C  C49  1  0.45352700  0.56361700  0.87287600  1
  C  C50  1  0.98463300  0.63771400  0.48184600  1
  C  C51  1  0.02921800  0.53923700  0.52063300  1
  C  C52  1  0.05503400  0.41093200  0.48689800  1
  C  C53  1  0.03635600  0.38201700  0.41529500  1
  C  C54  1  0.98550700  0.47865700  0.37675300  1
  C  C55  1  0.95952100  0.60664500  0.41049900  1
  C  C56  1  0.96261100  0.44696100  0.30071900  1
  N  N1  1  0.97692100  0.28900300  0.02803700  1
  N  N2  1  0.09581800  0.59541900  0.99393400  1
  N  N3  1  0.35315600  0.97479000  0.47600100  1
  N  N4  1  0.71983500  0.10093200  0.56419400  1
  O  O1  1  0.22792500  0.05523900  0.01523100  1
  O  O2  1  0.23536000  0.85002900  0.04757400  1
  O  O3  1  0.85846800  0.79983900  0.98379800  1
  O  O4  1  0.83128500  0.02940600  0.00147700  1
  O  O5  1  0.00931600  0.85560900  0.10767400  1
  O  O6  1  0.03025600  0.08306200  0.11214300  1
  O  O7  1  0.02851600  0.04174200  0.91210900  1
  O  O8  1  0.08355200  0.82277200  0.91812900  1
  O  O9  1  0.20416700  0.03796300  0.60943900  1
  O  O10  1  0.99270000  0.05497400  0.63156000  1
  O  O11  1  0.86380800  0.06242000  0.43614300  1
  O  O12  1  0.06909800  0.00470800  0.41086700  1
  O  O13  1  0.97322600  0.25382400  0.54435100  1
  O  O14  1  0.16961300  0.20954100  0.50560000  1
  O  O15  1  0.12263100  0.82874200  0.50631300  1
  O  O16  1  0.90652800  0.86185600  0.52006200  1
  O  O17  1  0.52840000  0.22843700  0.26524400  1
  O  O18  1  0.57130300  0.21711100  0.15868700  1
  O  O19  1  0.38259500  0.61319400  0.66970100  1
  O  O20  1  0.26746600  0.52228900  0.73587100  1
  O  O21  1  0.34339000  0.49319700  0.87487200  1
  O  O22  1  0.53359800  0.51107200  0.83721900  1
  O  O23  1  0.99999300  0.32592900  0.26773700  1
  O  O24  1  0.90961400  0.53023100  0.26699300  1
