# generated using pymatgen
data_MnH8C8N2ClO6
_symmetry_space_group_name_H-M   'P 1'
_cell_length_a   12.45568000
_cell_length_b   12.45495100
_cell_length_c   35.89540400
_cell_angle_alpha   90.95606200
_cell_angle_beta   90.96430400
_cell_angle_gamma   120.00193400
_symmetry_Int_Tables_number   1
_chemical_formula_structural   MnH8C8N2ClO6
_chemical_formula_sum   'Mn6 H48 C48 N12 Cl6 O36'
_cell_volume   4819.77108779
_cell_formula_units_Z   6
loop_
 _symmetry_equiv_pos_site_id
 _symmetry_equiv_pos_as_xyz
  1  'x, y, z'
loop_
 _atom_site_type_symbol
 _atom_site_label
 _atom_site_symmetry_multiplicity
 _atom_site_fract_x
 _atom_site_fract_y
 _atom_site_fract_z
 _atom_site_occupancy
  Mn  Mn1  1  0.04805400  0.87234800  0.99478800  1
  Mn  Mn2  1  0.13176600  0.16099200  0.01341700  1
  Mn  Mn3  1  0.94588000  0.93718000  0.33162900  1
  Mn  Mn4  1  0.84175000  0.12346900  0.35273400  1
  Mn  Mn5  1  0.19466800  0.02832200  0.68816600  1
  Mn  Mn6  1  0.92392200  0.94989400  0.65110700  1
  H  H1  1  0.69818600  0.86478300  0.95346200  1
  H  H2  1  0.76310800  0.01862700  0.93702200  1
  H  H3  1  0.54554700  0.80290200  0.99791900  1
  H  H4  1  0.51121700  0.88290200  0.96204200  1
  H  H5  1  0.48279600  0.16937300  0.05395300  1
  H  H6  1  0.41840100  0.01567700  0.07047900  1
  H  H7  1  0.63492100  0.23112000  0.00935100  1
  H  H8  1  0.66944200  0.15129900  0.04524000  1
  H  H9  1  0.52788500  0.71266800  0.28767300  1
  H  H10  1  0.46471600  0.79230800  0.31268500  1
  H  H11  1  0.56438700  0.55497200  0.36213100  1
  H  H12  1  0.57029100  0.57697800  0.31283500  1
  H  H13  1  0.25136100  0.31037300  0.40578400  1
  H  H14  1  0.32419700  0.26643800  0.37050100  1
  H  H15  1  0.23228700  0.49860900  0.39477100  1
  H  H16  1  0.38412900  0.51850000  0.40548400  1
  H  H17  1  0.83208200  0.55367500  0.67539500  1
  H  H18  1  0.92893700  0.60418500  0.71705400  1
  H  H19  1  0.91764000  0.50047500  0.61848400  1
  H  H20  1  0.85879900  0.39499200  0.65683900  1
  H  H21  1  0.25810800  0.42709600  0.67697500  1
  H  H22  1  0.21334200  0.39277900  0.62890600  1
  H  H23  1  0.97371000  0.36078900  0.71231300  1
  H  H24  1  0.13780600  0.43049400  0.72009200  1
  H  H25  1  0.04009900  0.26407300  0.23530300  1
  H  H26  1  0.87634700  0.18543500  0.22467500  1
  H  H27  1  0.15753900  0.16086600  0.20958600  1
  H  H28  1  0.09912400  0.23496400  0.17876200  1
  H  H29  1  0.83929500  0.85164300  0.10833300  1
  H  H30  1  0.97927600  0.85923800  0.12387500  1
  H  H31  1  0.90303200  0.14334000  0.13693500  1
  H  H32  1  0.78976500  0.98434500  0.12771900  1
  H  H33  1  0.21638100  0.91497800  0.56188300  1
  H  H34  1  0.27084700  0.07743100  0.55978700  1
  H  H35  1  0.93602700  0.80326700  0.54210000  1
  H  H36  1  0.05238800  0.77632800  0.52155800  1
  H  H37  1  0.76696300  0.92217700  0.46192000  1
  H  H38  1  0.76943100  0.78451800  0.44821700  1
  H  H39  1  0.94382900  0.09153200  0.49306700  1
  H  H40  1  0.86505100  0.95710600  0.52182700  1
  H  H41  1  0.85922300  0.89632500  0.78184400  1
  H  H42  1  0.89847600  0.05517500  0.77857200  1
  H  H43  1  0.98640500  0.84245500  0.81734200  1
  H  H44  1  0.91988700  0.90915100  0.84809800  1
  H  H45  1  0.33024900  0.22974500  0.90268000  1
  H  H46  1  0.32252100  0.08264600  0.90032400  1
  H  H47  1  0.04433700  0.13121500  0.88290900  1
  H  H48  1  0.18675000  0.26457700  0.86852400  1
  C  C1  1  0.19427900  0.09384000  0.93673600  1
  C  C2  1  0.98923900  0.94076200  0.07146500  1
  C  C3  1  0.30759000  0.04228800  0.02946800  1
  C  C4  1  0.87303200  0.99162600  0.97824800  1
  C  C5  1  0.92864700  0.12454600  0.27301900  1
  C  C6  1  0.85699700  0.93532700  0.41119000  1
  C  C7  1  0.13157600  0.19990400  0.36110300  1
  C  C8  1  0.65573600  0.85954200  0.32429200  1
  C  C9  1  0.12965600  0.98195700  0.59895500  1
  C  C10  1  0.98938900  0.99596600  0.74031700  1
  C  C11  1  0.14686200  0.23476600  0.66261000  1
  C  C12  1  0.97063500  0.74344800  0.67724600  1
  C  C13  1  0.75037900  0.96409900  0.96231000  1
  C  C14  1  0.69567500  0.10832500  0.98995200  1
  C  C15  1  0.55346200  0.89245800  0.99023700  1
  C  C16  1  0.43055600  0.06999500  0.04517700  1
  C  C17  1  0.48478600  0.92568400  0.01734400  1
  C  C18  1  0.62706700  0.14160900  0.01705700  1
  C  C19  1  0.52859900  0.75504700  0.31515000  1
  C  C20  1  0.38040300  0.63120000  0.36254800  1
  C  C21  1  0.51316700  0.56229600  0.33762800  1
  C  C22  1  0.25616200  0.29756200  0.37534100  1
  C  C23  1  0.39250200  0.44358300  0.33240200  1
  C  C24  1  0.31985200  0.51300000  0.38275700  1
  C  C25  1  0.92854800  0.61242100  0.68634800  1
  C  C26  1  0.07811700  0.55037300  0.69742300  1
  C  C27  1  0.94355700  0.46949100  0.64418300  1
  C  C28  1  0.18022000  0.36602400  0.65752800  1
  C  C29  1  0.02585000  0.41892200  0.63498800  1
  C  C30  1  0.06518500  0.42486900  0.70056500  1
  C  C31  1  0.95389200  0.17240400  0.23445300  1
  C  C32  1  0.86222500  0.02759100  0.18384100  1
  C  C33  1  0.08068600  0.14505400  0.19006400  1
  C  C34  1  0.94136500  0.91246600  0.10998400  1
  C  C35  1  0.07235900  0.06244300  0.15831600  1
  C  C36  1  0.87858000  0.04666300  0.14281800  1
  C  C37  1  0.18649300  0.98521200  0.56221100  1
  C  C38  1  0.06237900  0.04869100  0.52518800  1
  C  C39  1  0.01070700  0.83687300  0.52154500  1
  C  C40  1  0.82508500  0.88718500  0.44960000  1
  C  C41  1  0.95752600  0.83233900  0.48355000  1
  C  C42  1  0.94471900  0.00852700  0.50341600  1
  C  C43  1  0.93667300  0.99170500  0.77763000  1
  C  C44  1  0.07301300  0.14217400  0.82423900  1
  C  C45  1  0.00350400  0.92820400  0.83249300  1
  C  C46  1  0.26552400  0.12814800  0.90165000  1
  C  C47  1  0.11081600  0.96846700  0.85923600  1
  C  C48  1  0.12221800  0.16395500  0.86346600  1
  N  N1  1  0.68170100  0.98813200  0.99006800  1
  N  N2  1  0.49883500  0.04592200  0.01729000  1
  N  N3  1  0.49199000  0.66474400  0.34409100  1
  N  N4  1  0.29417500  0.41274900  0.35702600  1
  N  N5  1  0.00837600  0.57250700  0.67017000  1
  N  N6  1  0.07213200  0.37740300  0.66432600  1
  N  N7  1  0.96516600  0.08758500  0.20913400  1
  N  N8  1  0.97740800  0.02704800  0.13059900  1
  N  N9  1  0.10386800  0.96303400  0.53053800  1
  N  N10  1  0.93620000  0.92911000  0.47246400  1
  N  N11  1  0.03150800  0.02494600  0.80639800  1
  N  N12  1  0.18630300  0.09601400  0.86861300  1
  Cl  Cl1  1  0.97984800  0.66688900  0.97574700  1
  Cl  Cl2  1  0.20080300  0.36706700  0.03202200  1
  Cl  Cl3  1  0.00766500  0.79729500  0.31115200  1
  Cl  Cl4  1  0.77911600  0.26242600  0.37337900  1
  Cl  Cl5  1  0.38956100  0.06828800  0.71029100  1
  Cl  Cl6  1  0.72918100  0.90993900  0.62891600  1
  O  O1  1  0.14488500  0.98002500  0.94853600  1
  O  O2  1  0.28127600  0.13181500  0.02786600  1
  O  O3  1  0.95429900  0.10500400  0.98960300  1
  O  O4  1  0.89970900  0.90236300  0.97964000  1
  O  O5  1  0.19777000  0.18229100  0.95806700  1
  O  O6  1  0.98329100  0.85160800  0.04989900  1
  O  O7  1  0.04013900  0.05493300  0.05992600  1
  O  O8  1  0.22551300  0.92845500  0.01870000  1
  O  O9  1  0.95602700  0.04045900  0.28366900  1
  O  O10  1  0.03692500  0.21844800  0.36294700  1
  O  O11  1  0.67180200  0.96909900  0.33360400  1
  O  O12  1  0.74996900  0.84017300  0.32367500  1
  O  O13  1  0.88118400  0.17073500  0.29634400  1
  O  O14  1  0.91117000  0.89372600  0.38873300  1
  O  O15  1  0.82618000  0.01608800  0.39982900  1
  O  O16  1  0.11636400  0.09253800  0.34955300  1
  O  O17  1  0.20072400  0.01247000  0.62920100  1
  O  O18  1  0.03699800  0.14594100  0.65110900  1
  O  O19  1  0.89306200  0.76937600  0.65996200  1
  O  O20  1  0.08065700  0.83202800  0.68883300  1
  O  O21  1  0.01217100  0.94944700  0.60117500  1
  O  O22  1  0.10694900  0.02926700  0.73799500  1
  O  O23  1  0.91732300  0.96473600  0.71023100  1
  O  O24  1  0.22514600  0.20927200  0.67967900  1
  O  O25  1  0.77141600  0.18852400  0.97032800  1
  O  O26  1  0.40900500  0.84543200  0.03694600  1
  O  O27  1  0.33775100  0.70048600  0.36394500  1
  O  O28  1  0.37884200  0.37298800  0.30645500  1
  O  O29  1  0.15013000  0.63452600  0.71852300  1
  O  O30  1  0.04582700  0.40658700  0.60250100  1
  O  O31  1  0.75883400  0.96044300  0.19554500  1
  O  O32  1  0.15157300  0.03284000  0.15522700  1
  O  O33  1  0.12523200  0.15609700  0.53634400  1
  O  O34  1  0.94526000  0.75244400  0.46096200  1
  O  O35  1  0.08456400  0.22960000  0.80636200  1
  O  O36  1  0.13895500  0.89327100  0.87006100  1
