# generated using pymatgen
data_CeH9(C3O)6
_symmetry_space_group_name_H-M   'P 1'
_cell_length_a   16.90000200
_cell_length_b   13.71935200
_cell_length_c   13.12054200
_cell_angle_alpha   106.55623800
_cell_angle_beta   90.89630900
_cell_angle_gamma   115.03813300
_symmetry_Int_Tables_number   1
_chemical_formula_structural   CeH9(C3O)6
_chemical_formula_sum   'Ce2 H18 C36 O12'
_cell_volume   2609.23033762
_cell_formula_units_Z   2
loop_
 _symmetry_equiv_pos_site_id
 _symmetry_equiv_pos_as_xyz
  1  'x, y, z'
loop_
 _atom_site_type_symbol
 _atom_site_label
 _atom_site_symmetry_multiplicity
 _atom_site_fract_x
 _atom_site_fract_y
 _atom_site_fract_z
 _atom_site_occupancy
  Ce  Ce1  1  0.13732600  0.09387100  0.03393000  1
  Ce  Ce2  1  0.86286900  0.90632400  0.96626600  1
  H  H1  1  0.85811100  0.90532800  0.34160800  1
  H  H2  1  0.17454400  0.12140700  0.48882600  1
  H  H3  1  0.14208300  0.09487300  0.65859000  1
  H  H4  1  0.82564900  0.87879500  0.51137200  1
  H  H5  1  0.12549900  0.09153800  0.30145200  1
  H  H6  1  0.87469500  0.90866300  0.69874500  1
  H  H7  1  0.36673000  0.99164800  0.87444400  1
  H  H8  1  0.52559500  0.04656500  0.21871600  1
  H  H9  1  0.63347300  0.00856300  0.12576500  1
  H  H10  1  0.47460800  0.95364800  0.78149500  1
  H  H11  1  0.38946600  0.06791500  0.21665700  1
  H  H12  1  0.61073600  0.93229600  0.78355300  1
  H  H13  1  0.88410300  0.58436300  0.97236100  1
  H  H14  1  0.18041700  0.60474500  0.01855700  1
  H  H15  1  0.11608800  0.41582800  0.02783300  1
  H  H16  1  0.81977500  0.39544800  0.98163800  1
  H  H17  1  0.16485600  0.76786700  0.00006200  1
  H  H18  1  0.83533500  0.23232700  0.00013400  1
  C  C1  1  0.95683200  0.97567000  0.19407000  1
  C  C2  1  0.28953500  0.04745000  0.04193200  1
  C  C3  1  0.98678300  0.21179100  0.01973700  1
  C  C4  1  0.04336100  0.02453000  0.80612700  1
  C  C5  1  0.71066500  0.95275600  0.95827500  1
  C  C6  1  0.01340600  0.78839900  0.98045700  1
  C  C7  1  0.07711800  0.05709300  0.35046200  1
  C  C8  1  0.98831800  0.99648200  0.30773700  1
  C  C9  1  0.92790800  0.95316700  0.37302800  1
  C  C10  1  0.95583800  0.96993400  0.47915800  1
  C  C11  1  0.04435600  0.03026800  0.52104000  1
  C  C12  1  0.10485600  0.07388300  0.45657000  1
  C  C13  1  0.07228600  0.04703500  0.62717000  1
  C  C14  1  0.01187600  0.00371900  0.69246000  1
  C  C15  1  0.92307600  0.94310800  0.64973500  1
  C  C16  1  0.89533700  0.92631900  0.54362800  1
  C  C17  1  0.41356600  0.04606300  0.14182600  1
  C  C18  1  0.36881900  0.03081200  0.04540100  1
  C  C19  1  0.40081000  0.00344000  0.95057200  1
  C  C20  1  0.47769800  0.99229600  0.95200400  1
  C  C21  1  0.52250600  0.00791800  0.04820600  1
  C  C22  1  0.49045200  0.03432500  0.14305300  1
  C  C23  1  0.59939300  0.99677200  0.04963800  1
  C  C24  1  0.63138300  0.96939900  0.95480800  1
  C  C25  1  0.58663600  0.95415000  0.85838400  1
  C  C26  1  0.50975100  0.96588800  0.85715700  1
  C  C27  1  0.10620900  0.69213400  0.99714900  1
  C  C28  1  0.02328200  0.68771000  0.98406500  1
  C  C29  1  0.94950700  0.58943900  0.98155200  1
  C  C30  1  0.95868800  0.49748600  0.99332700  1
  C  C31  1  0.04150400  0.50270700  0.00686700  1
  C  C32  1  0.11513600  0.59988900  0.00806200  1
  C  C33  1  0.05068500  0.41075300  0.01864300  1
  C  C34  1  0.97690900  0.31248200  0.01613000  1
  C  C35  1  0.89398300  0.30805900  0.00304600  1
  C  C36  1  0.88505500  0.40030400  0.99213300  1
  O  O1  1  0.87798900  0.92032600  0.16023900  1
  O  O2  1  0.01249700  0.01298900  0.12589000  1
  O  O3  1  0.25876600  0.07869900  0.13028700  1
  O  O4  1  0.25034900  0.03327200  0.94860600  1
  O  O5  1  0.06631500  0.21831400  0.02974500  1
  O  O6  1  0.91667000  0.11372900  0.00182900  1
  O  O7  1  0.12220300  0.07987300  0.83996000  1
  O  O8  1  0.98769700  0.98720800  0.87430600  1
  O  O9  1  0.74143200  0.92150800  0.86991900  1
  O  O10  1  0.74985000  0.96693000  0.05159900  1
  O  O11  1  0.93387300  0.78187400  0.97044800  1
  O  O12  1  0.08351700  0.88646500  0.99836800  1
