# generated using pymatgen
data_ZnH16C28(NO2)2
_symmetry_space_group_name_H-M   'P 1'
_cell_length_a   23.76270200
_cell_length_b   26.00956100
_cell_length_c   46.63000800
_cell_angle_alpha   91.04194100
_cell_angle_beta   90.00000000
_cell_angle_gamma   117.18174900
_symmetry_Int_Tables_number   1
_chemical_formula_structural   ZnH16C28(NO2)2
_chemical_formula_sum   'Zn4 H64 C112 N8 O16'
_cell_volume   25631.83891213
_cell_formula_units_Z   4
loop_
 _symmetry_equiv_pos_site_id
 _symmetry_equiv_pos_as_xyz
  1  'x, y, z'
loop_
 _atom_site_type_symbol
 _atom_site_label
 _atom_site_symmetry_multiplicity
 _atom_site_fract_x
 _atom_site_fract_y
 _atom_site_fract_z
 _atom_site_occupancy
  Zn  Zn1  1  0.32184400  0.61842300  0.05103200  1
  Zn  Zn2  1  0.65984800  0.28799900  0.55010700  1
  Zn  Zn3  1  0.37321700  0.71485200  0.44899600  1
  Zn  Zn4  1  0.70478100  0.38448100  0.94805900  1
  H  H1  1  0.30153300  0.70365400  0.09554600  1
  H  H2  1  0.30566000  0.72141900  0.14718700  1
  H  H3  1  0.33761500  0.57454900  0.15926400  1
  H  H4  1  0.33470000  0.56030100  0.10769700  1
  H  H5  1  0.43224800  0.73613400  0.07910400  1
  H  H6  1  0.48934200  0.83825200  0.06585300  1
  H  H7  1  0.39084300  0.79599900  0.98593200  1
  H  H8  1  0.33507100  0.69479400  0.00005300  1
  H  H9  1  0.58013300  0.31753000  0.59737600  1
  H  H10  1  0.57774500  0.32686800  0.64931100  1
  H  H11  1  0.71493800  0.26447400  0.65602700  1
  H  H12  1  0.71420100  0.25526700  0.60417700  1
  H  H13  1  0.68298200  0.41542500  0.56528800  1
  H  H14  1  0.64208900  0.48241500  0.55246100  1
  H  H15  1  0.50264300  0.34985600  0.49947600  1
  H  H16  1  0.54685800  0.28591000  0.51242000  1
  H  H17  1  0.26462100  0.68973900  0.40184700  1
  H  H18  1  0.25269300  0.67955400  0.34948300  1
  H  H19  1  0.45002700  0.73396800  0.34251700  1
  H  H20  1  0.45957100  0.74310500  0.39486700  1
  H  H21  1  0.26692500  0.58950600  0.43146000  1
  H  H22  1  0.15833600  0.52297700  0.44353300  1
  H  H23  1  0.15689000  0.64993500  0.50243200  1
  H  H24  1  0.26458600  0.71455100  0.48899600  1
  H  H25  1  0.59803100  0.30039800  0.90391100  1
  H  H26  1  0.58340000  0.28263000  0.85185800  1
  H  H27  1  0.76453900  0.42433900  0.83909800  1
  H  H28  1  0.77703000  0.44038200  0.89108000  1
  H  H29  1  0.69490300  0.26555100  0.92020700  1
  H  H30  1  0.64912800  0.16427900  0.93350300  1
  H  H31  1  0.59823400  0.20975000  0.01442000  1
  H  H32  1  0.64296600  0.30941000  0.99951200  1
  H  H33  1  0.27171600  0.71561400  0.24463100  1
  H  H34  1  0.26387000  0.69900200  0.19280300  1
  H  H35  1  0.39206400  0.62589000  0.19883900  1
  H  H36  1  0.39779500  0.64144100  0.25055100  1
  H  H37  1  0.63355100  0.39187700  0.74257300  1
  H  H38  1  0.62770600  0.37747500  0.69065900  1
  H  H39  1  0.67095700  0.23611000  0.70020900  1
  H  H40  1  0.67820000  0.25229300  0.75194800  1
  H  H41  1  0.54512700  0.50964700  0.03768300  1
  H  H42  1  0.47465900  0.54737100  0.05617500  1
  H  H43  1  0.40810000  0.54690700  0.97116800  1
  H  H44  1  0.47891200  0.50907400  0.95285400  1
  H  H45  1  0.98092000  0.39496100  0.49012700  1
  H  H46  1  0.08856700  0.46069300  0.47613400  1
  H  H47  1  0.05037800  0.60416900  0.49199400  1
  H  H48  1  0.94356000  0.53773600  0.50661700  1
  H  H49  1  0.60404900  0.99176900  0.97563400  1
  H  H50  1  0.65361800  0.09262700  0.96130100  1
  H  H51  1  0.51466500  0.11914300  0.00876200  1
  H  H52  1  0.46715900  0.01888000  0.02342900  1
  H  H53  1  0.47030100  0.49310300  0.45977200  1
  H  H54  1  0.51207400  0.42731700  0.47357500  1
  H  H55  1  0.56541100  0.51342300  0.55544700  1
  H  H56  1  0.52483400  0.57984800  0.54083800  1
  H  H57  1  0.00024700  0.41382600  0.01576000  1
  H  H58  1  0.10981100  0.45353200  0.03322500  1
  H  H59  1  0.13873400  0.62298700  0.01273600  1
  H  H60  1  0.02957100  0.58300100  0.99540700  1
  H  H61  1  0.43797700  0.01480100  0.48990500  1
  H  H62  1  0.48788500  0.11444900  0.50871100  1
  H  H63  1  0.65339600  0.09823900  0.53012800  1
  H  H64  1  0.60314400  0.99866200  0.51127900  1
  C  C1  1  0.20253400  0.56761400  0.03499800  1
  C  C2  1  0.39154300  0.57434400  0.02704800  1
  C  C3  1  0.30914500  0.67472700  0.10956600  1
  C  C4  1  0.31125300  0.68471900  0.13933600  1
  C  C5  1  0.32264300  0.64994500  0.15849400  1
  C  C6  1  0.33029400  0.60461900  0.14601600  1
  C  C7  1  0.32783100  0.59588800  0.11626400  1
  C  C8  1  0.42313900  0.74905200  0.05842400  1
  C  C9  1  0.45560600  0.80711400  0.05094200  1
  C  C10  1  0.44450200  0.82536900  0.02477400  1
  C  C11  1  0.40095100  0.78371000  0.00658200  1
  C  C12  1  0.36933000  0.72621700  0.01467900  1
  C  C13  1  0.60705700  0.17832100  0.53268200  1
  C  C14  1  0.77060500  0.35004800  0.52734300  1
  C  C15  1  0.60922600  0.30468700  0.61022400  1
  C  C16  1  0.60859400  0.31082500  0.64017200  1
  C  C17  1  0.64637000  0.29672300  0.65797400  1
  C  C18  1  0.68309000  0.27521800  0.64397600  1
  C  C19  1  0.68275300  0.26988500  0.61405400  1
  C  C20  1  0.64271000  0.40059200  0.55089400  1
  C  C21  1  0.61886500  0.43894400  0.54361700  1
  C  C22  1  0.56814100  0.42272100  0.52464300  1
  C  C23  1  0.54286700  0.36627900  0.51391300  1
  C  C24  1  0.56774200  0.32902400  0.52169900  1
  C  C25  1  0.42992500  0.82443800  0.46644800  1
  C  C26  1  0.42196000  0.65281600  0.47174300  1
  C  C27  1  0.30616500  0.70068700  0.38894500  1
  C  C28  1  0.29916100  0.69454000  0.35899400  1
  C  C29  1  0.35048800  0.70589800  0.34140100  1
  C  C30  1  0.40841300  0.72470500  0.35511400  1
  C  C31  1  0.41380000  0.73033000  0.38502100  1
  C  C32  1  0.24248700  0.60327100  0.44696200  1
  C  C33  1  0.18029400  0.56483700  0.45419200  1
  C  C34  1  0.14672300  0.57997300  0.47420300  1
  C  C35  1  0.17896200  0.63531000  0.48618000  1
  C  C36  1  0.24119400  0.67257600  0.47852500  1
  C  C37  1  0.63717000  0.43629800  0.96374800  1
  C  C38  1  0.81831900  0.42822800  0.97219600  1
  C  C39  1  0.63492500  0.32835500  0.88975000  1
  C  C40  1  0.62654700  0.31802300  0.86001900  1
  C  C41  1  0.67291500  0.35199300  0.84090900  1
  C  C42  1  0.72683200  0.39645300  0.85293400  1
  C  C43  1  0.73376600  0.40556100  0.88266700  1
  C  C44  1  0.67364600  0.25327400  0.94107400  1
  C  C45  1  0.64779300  0.19534100  0.94882300  1
  C  C46  1  0.61873700  0.17735700  0.97519400  1
  C  C47  1  0.61831800  0.22012000  0.99326100  1
  C  C48  1  0.64458700  0.27743400  0.98487400  1
  C  C49  1  0.33522300  0.67970100  0.25186000  1
  C  C50  1  0.29826400  0.69573800  0.23471300  1
  C  C51  1  0.29429800  0.68654000  0.20488300  1
  C  C52  1  0.32702900  0.66062100  0.19086800  1
  C  C53  1  0.36419300  0.64484400  0.20826800  1
  C  C54  1  0.36815200  0.65421400  0.23802800  1
  C  C55  1  0.33969700  0.68931200  0.28347000  1
  C  C56  1  0.34409600  0.69700000  0.30976100  1
  C  C57  1  0.65640800  0.32332400  0.75152500  1
  C  C58  1  0.64173300  0.35741800  0.73342500  1
  C  C59  1  0.63787400  0.34864700  0.70358500  1
  C  C60  1  0.64876900  0.30537700  0.69046200  1
  C  C61  1  0.66322200  0.27115700  0.70881900  1
  C  C62  1  0.66688200  0.27995300  0.73863400  1
  C  C63  1  0.66136600  0.33309500  0.78312500  1
  C  C64  1  0.66608000  0.34141000  0.80937500  1
  C  C65  1  0.51815500  0.50629500  0.99371500  1
  C  C66  1  0.51530200  0.51768700  0.02279900  1
  C  C67  1  0.47473300  0.53927200  0.03336500  1
  C  C68  1  0.43494300  0.55044600  0.01533200  1
  C  C69  1  0.43780400  0.53900000  0.98617500  1
  C  C70  1  0.47846700  0.51737400  0.97563000  1
  C  C71  1  0.56101200  0.48277500  0.98269000  1
  C  C72  1  0.59615600  0.46251900  0.97387100  1
  C  C73  1  0.95357300  0.46104000  0.49946400  1
  C  C74  1  0.99582300  0.44094300  0.49053100  1
  C  C75  1  0.05746000  0.47885600  0.48228400  1
  C  C76  1  0.07955000  0.53863700  0.48273500  1
  C  C77  1  0.03675600  0.55846600  0.49169200  1
  C  C78  1  0.97513400  0.52043700  0.49984700  1
  C  C79  1  0.88864100  0.42106500  0.50863800  1
  C  C80  1  0.83480900  0.38833800  0.51671000  1
  C  C81  1  0.53207300  0.99778900  0.00074600  1
  C  C82  1  0.58437200  0.01973000  0.98303900  1
  C  C83  1  0.61222100  0.07730300  0.97467700  1
  C  C84  1  0.58869900  0.11493400  0.98386200  1
  C  C85  1  0.53600700  0.09243400  0.00155900  1
  C  C86  1  0.50825000  0.03490500  0.00980800  1
  C  C87  1  0.50219700  0.93705800  0.00942500  1
  C  C88  1  0.47650100  0.88637200  0.01657900  1
  C  C89  1  0.49418400  0.54173200  0.49916000  1
  C  C90  1  0.49113500  0.49784300  0.48087400  1
  C  C91  1  0.51466700  0.45978400  0.48901500  1
  C  C92  1  0.54245400  0.46404600  0.51588100  1
  C  C93  1  0.54551400  0.50837000  0.53414500  1
  C  C94  1  0.52177700  0.54631800  0.52594200  1
  C  C95  1  0.46910500  0.58179200  0.49028600  1
  C  C96  1  0.44793000  0.61454200  0.48233400  1
  C  C97  1  0.00560200  0.49509700  0.00413700  1
  C  C98  1  0.03023800  0.45994600  0.01503900  1
  C  C99  1  0.09308000  0.48276400  0.02505300  1
  C  C100  1  0.13410000  0.54185100  0.02458800  1
  C  C101  1  0.10918100  0.57683700  0.01368600  1
  C  C102  1  0.04649700  0.55400500  0.00371300  1
  C  C103  1  0.93911700  0.47119500  0.99321000  1
  C  C104  1  0.88416700  0.45173800  0.98389200  1
  C  C105  1  0.51609600  0.99782600  0.49889500  1
  C  C106  1  0.48537200  0.03247200  0.49870800  1
  C  C107  1  0.51415500  0.08981800  0.50957200  1
  C  C108  1  0.57527900  0.11563500  0.52124800  1
  C  C109  1  0.60592900  0.08083700  0.52144600  1
  C  C110  1  0.57709100  0.02351000  0.51057700  1
  C  C111  1  0.48544600  0.93663300  0.48726500  1
  C  C112  1  0.46019800  0.88589100  0.47772400  1
  N  N1  1  0.31794600  0.63082200  0.09793500  1
  N  N2  1  0.37984000  0.70902900  0.04047500  1
  N  N3  1  0.64658500  0.28484900  0.59706500  1
  N  N4  1  0.61740800  0.34585000  0.54009400  1
  N  N5  1  0.36313500  0.71798600  0.40203700  1
  N  N6  1  0.27295500  0.65693800  0.45895900  1
  N  N7  1  0.68849800  0.37166500  0.90115900  1
  N  N8  1  0.67145200  0.29391000  0.95890600  1
  O  O1  1  0.23939700  0.62352700  0.03387700  1
  O  O2  1  0.22783900  0.53594300  0.04537400  1
  O  O3  1  0.35379800  0.58531200  0.01029000  1
  O  O4  1  0.39023200  0.58498800  0.05463200  1
  O  O5  1  0.57808500  0.21105500  0.53228000  1
  O  O6  1  0.66492900  0.20244900  0.54340400  1
  O  O7  1  0.72384100  0.31699700  0.50990600  1
  O  O8  1  0.75859500  0.34835200  0.55486000  1
  O  O9  1  0.36822100  0.79171100  0.46685800  1
  O  O10  1  0.46380200  0.80045200  0.45573300  1
  O  O11  1  0.40819300  0.68580700  0.48919600  1
  O  O12  1  0.41167700  0.65456600  0.44422800  1
  O  O13  1  0.61738600  0.38030700  0.96508100  1
  O  O14  1  0.69422000  0.46743800  0.95334500  1
  O  O15  1  0.76959600  0.41772600  0.98885000  1
  O  O16  1  0.80666600  0.41725300  0.94461400  1
