# generated using pymatgen
data_CeH3C12(O2F)3
_symmetry_space_group_name_H-M   'P 1'
_cell_length_a   26.83989200
_cell_length_b   22.95365400
_cell_length_c   10.62248900
_cell_angle_alpha   103.88291400
_cell_angle_beta   92.31130300
_cell_angle_gamma   58.89738600
_symmetry_Int_Tables_number   1
_chemical_formula_structural   CeH3C12(O2F)3
_chemical_formula_sum   'Ce6 H18 C72 O36 F18'
_cell_volume   5412.17813251
_cell_formula_units_Z   6
loop_
 _symmetry_equiv_pos_site_id
 _symmetry_equiv_pos_as_xyz
  1  'x, y, z'
loop_
 _atom_site_type_symbol
 _atom_site_label
 _atom_site_symmetry_multiplicity
 _atom_site_fract_x
 _atom_site_fract_y
 _atom_site_fract_z
 _atom_site_occupancy
  Ce  Ce1  1  0.58993300  0.43606500  0.95324700  1
  Ce  Ce2  1  0.41034400  0.57686500  0.04700600  1
  Ce  Ce3  1  0.59069900  0.95524800  0.00627900  1
  Ce  Ce4  1  0.40936300  0.05831200  0.00021000  1
  Ce  Ce5  1  0.98880100  0.60604100  0.07095000  1
  Ce  Ce6  1  0.01036400  0.40630800  0.92883700  1
  H  H1  1  0.39786700  0.59103400  0.58567500  1
  H  H2  1  0.42996200  0.57523400  0.36330000  1
  H  H3  1  0.39690000  0.05609300  0.46756200  1
  H  H4  1  0.42859600  0.03429600  0.67733700  1
  H  H5  1  0.97512200  0.62554700  0.60920000  1
  H  H6  1  0.98430300  0.58896900  0.37315300  1
  H  H7  1  0.75287000  0.43596300  0.70888700  1
  H  H8  1  0.85558100  0.40058000  0.68657800  1
  H  H9  1  0.40554200  0.25256600  0.96743100  1
  H  H10  1  0.40034200  0.36156900  0.96347700  1
  H  H11  1  0.73669400  0.70136200  0.78556100  1
  H  H12  1  0.82252000  0.58937100  0.79034400  1
  H  H13  1  0.22185800  0.64323500  0.94172000  1
  H  H14  1  0.12043400  0.68131700  0.96419300  1
  H  H15  1  0.59979300  0.65163200  0.04107900  1
  H  H16  1  0.59434700  0.76105200  0.03933500  1
  H  H17  1  0.17584200  0.42369400  0.21120000  1
  H  H18  1  0.26194300  0.31228600  0.21806500  1
  C  C1  1  0.46281800  0.52621600  0.76500100  1
  C  C2  1  0.69912200  0.42665000  0.90581300  1
  C  C3  1  0.48772400  0.38847100  0.01088300  1
  C  C4  1  0.53778400  0.48546700  0.23545500  1
  C  C5  1  0.30175800  0.58462800  0.09511600  1
  C  C6  1  0.51271900  0.62434600  0.99089200  1
  C  C7  1  0.46294000  0.03217000  0.25437600  1
  C  C8  1  0.67676800  0.80943400  0.99452900  1
  C  C9  1  0.49676800  0.13796600  0.02468700  1
  C  C10  1  0.53747000  0.98257200  0.75264200  1
  C  C11  1  0.32296700  0.20378300  0.01035600  1
  C  C12  1  0.50329000  0.87563100  0.98168000  1
  C  C13  1  0.00953200  0.46295000  0.22006400  1
  C  C14  1  0.07066600  0.65259800  0.12992200  1
  C  C15  1  0.87383700  0.57296400  0.00623200  1
  C  C16  1  0.99037700  0.54845200  0.77944600  1
  C  C17  1  0.92943400  0.35823400  0.86883300  1
  C  C18  1  0.12533500  0.43933500  0.99418400  1
  C  C19  1  0.48197000  0.51353000  0.62746000  1
  C  C20  1  0.44302100  0.55262900  0.54885300  1
  C  C21  1  0.46136600  0.54398500  0.42236500  1
  C  C22  1  0.51906400  0.49647300  0.37241800  1
  C  C23  1  0.55798000  0.45685600  0.45081000  1
  C  C24  1  0.53953400  0.46512500  0.57671500  1
  C  C25  1  0.48223600  0.02075400  0.38319700  1
  C  C26  1  0.44250200  0.03530500  0.48243500  1
  C  C27  1  0.46057500  0.02272100  0.60189700  1
  C  C28  1  0.51872200  0.99509400  0.62414700  1
  C  C29  1  0.55844900  0.98112000  0.52514100  1
  C  C30  1  0.54033000  0.99408900  0.40617700  1
  C  C31  1  0.99485400  0.52621500  0.63560600  1
  C  C32  1  0.98629100  0.57242300  0.56228600  1
  C  C33  1  0.99176500  0.55148900  0.42767400  1
  C  C34  1  0.00597100  0.48395500  0.36382200  1
  C  C35  1  0.01490100  0.43751100  0.43720900  1
  C  C36  1  0.00954000  0.45837000  0.57155300  1
  C  C37  1  0.76076000  0.39994600  0.88082000  1
  C  C38  1  0.78213600  0.40824500  0.77499500  1
  C  C39  1  0.84033900  0.38694000  0.76102000  1
  C  C40  1  0.87671100  0.35580200  0.85105900  1
  C  C41  1  0.85642200  0.33951300  0.94641400  1
  C  C42  1  0.79840700  0.36234300  0.96214600  1
  C  C43  1  0.49136300  0.20543700  0.03243400  1
  C  C44  1  0.44142700  0.25937400  0.99839500  1
  C  C45  1  0.43822500  0.32119500  0.99641100  1
  C  C46  1  0.48503700  0.32901700  0.02882500  1
  C  C47  1  0.53331100  0.27665000  0.07066800  1
  C  C48  1  0.53657000  0.21525600  0.07180800  1
  C  C49  1  0.71683700  0.73597100  0.99352300  1
  C  C50  1  0.74627500  0.68718900  0.87732000  1
  C  C51  1  0.79389200  0.62264700  0.87906500  1
  C  C52  1  0.81190700  0.60780900  0.99653600  1
  C  C53  1  0.77690800  0.65170000  0.11020900  1
  C  C54  1  0.72899300  0.71592800  0.10925800  1
  C  C55  1  0.24033100  0.60975600  0.11868700  1
  C  C56  1  0.20465200  0.63887600  0.02693500  1
  C  C57  1  0.14665600  0.66173200  0.04109300  1
  C  C58  1  0.12414000  0.65365800  0.14537100  1
  C  C59  1  0.15865300  0.62996600  0.24374100  1
  C  C60  1  0.21690100  0.60889600  0.23102900  1
  C  C61  1  0.51540400  0.68398400  0.97405200  1
  C  C62  1  0.56199600  0.69202800  0.00797300  1
  C  C63  1  0.55865000  0.75408300  0.00727500  1
  C  C64  1  0.50877800  0.80804600  0.97312000  1
  C  C65  1  0.46379300  0.79805800  0.93236900  1
  C  C66  1  0.46721200  0.73641800  0.93213100  1
  C  C67  1  0.18719300  0.40452700  0.00495100  1
  C  C68  1  0.20480800  0.39025800  0.12299200  1
  C  C69  1  0.25260900  0.32606100  0.12592700  1
  C  C70  1  0.28261800  0.27703800  0.01033100  1
  C  C71  1  0.27072600  0.29655600  0.89406300  1
  C  C72  1  0.22260900  0.36040700  0.89190900  1
  O  O1  1  0.41139100  0.56618100  0.80661800  1
  O  O2  1  0.50212400  0.49746900  0.84764600  1
  O  O3  1  0.66779300  0.42431500  0.80935100  1
  O  O4  1  0.67620900  0.44822800  0.02651100  1
  O  O5  1  0.53984900  0.37674800  0.98753600  1
  O  O6  1  0.44115600  0.45202500  0.02692000  1
  O  O7  1  0.58918000  0.44630300  0.19333900  1
  O  O8  1  0.49819000  0.51505000  0.15371700  1
  O  O9  1  0.33263000  0.58852300  0.19176100  1
  O  O10  1  0.32441000  0.56414300  0.97445500  1
  O  O11  1  0.46056900  0.63599800  0.01346200  1
  O  O12  1  0.55930600  0.56079900  0.97494100  1
  O  O13  1  0.41107000  0.06081100  0.23797100  1
  O  O14  1  0.50242900  0.00890300  0.15278000  1
  O  O15  1  0.65668900  0.85750300  0.10572800  1
  O  O16  1  0.66463700  0.82803600  0.88449500  1
  O  O17  1  0.54866200  0.08108100  0.01467300  1
  O  O18  1  0.44949800  0.13479500  0.02324400  1
  O  O19  1  0.58925000  0.95330200  0.76962900  1
  O  O20  1  0.49762900  0.00523000  0.85334100  1
  O  O21  1  0.34344500  0.15543800  0.89952200  1
  O  O22  1  0.33495300  0.18558900  0.12081300  1
  O  O23  1  0.45139500  0.93253000  0.99212800  1
  O  O24  1  0.55052600  0.87882400  0.98282200  1
  O  O25  1  0.01774000  0.40524800  0.16408300  1
  O  O26  1  0.00289000  0.50747600  0.14946600  1
  O  O27  1  0.04579700  0.64470700  0.22299700  1
  O  O28  1  0.05339700  0.64813100  0.01294100  1
  O  O29  1  0.89499000  0.61394000  0.03830100  1
  O  O30  1  0.90777400  0.50440700  0.96958800  1
  O  O31  1  0.98190100  0.60643200  0.83445000  1
  O  O32  1  0.99643800  0.50472600  0.85110900  1
  O  O33  1  0.95351800  0.36751800  0.77650100  1
  O  O34  1  0.94590000  0.36388200  0.98648000  1
  O  O35  1  0.10419600  0.39836000  0.96165500  1
  O  O36  1  0.09137400  0.50788700  0.03097300  1
  F  F1  1  0.61463800  0.40826300  0.40546000  1
  F  F2  1  0.57883200  0.42416600  0.64854900  1
  F  F3  1  0.61566500  0.95552300  0.54302600  1
  F  F4  1  0.58051900  0.98113800  0.31354500  1
  F  F5  1  0.02934200  0.37060500  0.37939100  1
  F  F6  1  0.01967200  0.41063400  0.63868700  1
  F  F7  1  0.89215000  0.30498500  0.03086400  1
  F  F8  1  0.77875800  0.34792000  0.05915600  1
  F  F9  1  0.57828600  0.28469400  0.11281100  1
  F  F10  1  0.58455900  0.16531100  0.11319400  1
  F  F11  1  0.79567600  0.63771900  0.22579000  1
  F  F12  1  0.69874500  0.76112400  0.22463500  1
  F  F13  1  0.13758300  0.62135400  0.34721500  1
  F  F14  1  0.25147100  0.58203100  0.32370500  1
  F  F15  1  0.41590700  0.84805800  0.89082400  1
  F  F16  1  0.42247600  0.72819800  0.88857700  1
  F  F17  1  0.30150400  0.25115100  0.77927000  1
  F  F18  1  0.20422900  0.37380800  0.77576700  1
