# generated using pymatgen
data_MnH4C10ClO4
_symmetry_space_group_name_H-M   'P 1'
_cell_length_a   13.89293700
_cell_length_b   13.80794800
_cell_length_c   54.92020900
_cell_angle_alpha   91.23988800
_cell_angle_beta   91.18946500
_cell_angle_gamma   89.92955000
_symmetry_Int_Tables_number   1
_chemical_formula_structural   MnH4C10ClO4
_chemical_formula_sum   'Mn8 H32 C80 Cl8 O32'
_cell_volume   10530.76613395
_cell_formula_units_Z   8
loop_
 _symmetry_equiv_pos_site_id
 _symmetry_equiv_pos_as_xyz
  1  'x, y, z'
loop_
 _atom_site_type_symbol
 _atom_site_label
 _atom_site_symmetry_multiplicity
 _atom_site_fract_x
 _atom_site_fract_y
 _atom_site_fract_z
 _atom_site_occupancy
  Mn  Mn1  1  0.90182800  0.01004200  0.09626900  1
  Mn  Mn2  1  0.13599400  0.01136300  0.09737600  1
  Mn  Mn3  1  0.01250800  0.90029200  0.59587400  1
  Mn  Mn4  1  0.01035000  0.13535200  0.59775300  1
  Mn  Mn5  1  0.12863500  0.01677800  0.84728600  1
  Mn  Mn6  1  0.89462000  0.01553400  0.84636900  1
  Mn  Mn7  1  0.01650100  0.89850400  0.34680600  1
  Mn  Mn8  1  0.01821900  0.13336800  0.34684300  1
  H  H1  1  0.17210800  0.51048100  0.09923200  1
  H  H2  1  0.17919400  0.33377000  0.09931000  1
  H  H3  1  0.87162700  0.32248900  0.09447700  1
  H  H4  1  0.86613600  0.49943100  0.09442300  1
  H  H5  1  0.49984800  0.17153300  0.59638700  1
  H  H6  1  0.32383700  0.16645300  0.59632800  1
  H  H7  1  0.33460000  0.85707500  0.59717200  1
  H  H8  1  0.51029200  0.86356500  0.59722900  1
  H  H9  1  0.16487700  0.51591500  0.84901000  1
  H  H10  1  0.17198200  0.33919000  0.84891600  1
  H  H11  1  0.86435600  0.32794800  0.84447600  1
  H  H12  1  0.85884400  0.50490500  0.84459200  1
  H  H13  1  0.50606900  0.86218300  0.34511900  1
  H  H14  1  0.33005000  0.86725800  0.34510600  1
  H  H15  1  0.34025700  0.17672100  0.34852000  1
  H  H16  1  0.51596200  0.17023800  0.34851700  1
  H  H17  1  0.16884400  0.02166600  0.97260100  1
  H  H18  1  0.17526500  0.02239600  0.92820800  1
  H  H19  1  0.86756200  0.00715600  0.92404100  1
  H  H20  1  0.86293000  0.00651400  0.96846200  1
  H  H21  1  0.02189400  0.18380200  0.47178700  1
  H  H22  1  0.02271300  0.18626300  0.42738000  1
  H  H23  1  0.00761400  0.87652300  0.42487800  1
  H  H24  1  0.00687600  0.87585900  0.46936700  1
  H  H25  1  0.03133200  0.15793300  0.22465500  1
  H  H26  1  0.02833800  0.15597500  0.26908000  1
  H  H27  1  0.01283700  0.84628800  0.26599100  1
  H  H28  1  0.01591900  0.85004200  0.22157900  1
  H  H29  1  0.99768200  0.16491200  0.72023100  1
  H  H30  1  0.00035600  0.16124700  0.67576800  1
  H  H31  1  0.01649700  0.85163300  0.67623900  1
  H  H32  1  0.01373300  0.85709200  0.72068300  1
  C  C1  1  0.02994600  0.20776400  0.09697500  1
  C  C2  1  0.00786600  0.81390200  0.09669100  1
  C  C3  1  0.00592500  0.01224400  0.04754900  1
  C  C4  1  0.03188500  0.00892800  0.14610300  1
  C  C5  1  0.01268000  0.03248800  0.54769600  1
  C  C6  1  0.01003300  0.00328800  0.64601000  1
  C  C7  1  0.20836300  0.00733800  0.59676100  1
  C  C8  1  0.81472300  0.02824700  0.59688100  1
  C  C9  1  0.99806900  0.01619600  0.79753000  1
  C  C10  1  0.02514800  0.01548600  0.89616400  1
  C  C11  1  0.02270700  0.21321000  0.84674200  1
  C  C12  1  0.00057300  0.81936300  0.84690500  1
  C  C13  1  0.01606400  0.03275000  0.39614500  1
  C  C14  1  0.01883500  0.99921700  0.29750700  1
  C  C15  1  0.82069000  0.00551900  0.34679700  1
  C  C16  1  0.21429200  0.02641400  0.34686200  1
  C  C17  1  0.01872700  0.51662200  0.09682700  1
  C  C18  1  0.10608200  0.46912800  0.09818600  1
  C  C19  1  0.10976800  0.36894800  0.09822400  1
  C  C20  1  0.02586900  0.31474400  0.09689900  1
  C  C21  1  0.93832000  0.36269000  0.09553000  1
  C  C22  1  0.93492100  0.46293000  0.09549600  1
  C  C23  1  0.01511800  0.62139400  0.09679400  1
  C  C24  1  0.01202200  0.70914700  0.09675800  1
  C  C25  1  0.51738900  0.01792400  0.59681700  1
  C  C26  1  0.46362800  0.10231800  0.59655800  1
  C  C27  1  0.36366200  0.09919000  0.59652200  1
  C  C28  1  0.31538400  0.01133400  0.59674400  1
  C  C29  1  0.36961300  0.92688200  0.59699300  1
  C  C30  1  0.46949200  0.93026100  0.59702800  1
  C  C31  1  0.62224800  0.02119400  0.59685900  1
  C  C32  1  0.70989600  0.02405900  0.59688300  1
  C  C33  1  0.01146300  0.52207400  0.84682000  1
  C  C34  1  0.09884300  0.47456700  0.84800800  1
  C  C35  1  0.10254100  0.37438100  0.84794400  1
  C  C36  1  0.01862800  0.32018800  0.84668200  1
  C  C37  1  0.93105800  0.36814500  0.84546800  1
  C  C38  1  0.92764700  0.46839100  0.84553600  1
  C  C39  1  0.00783800  0.62685100  0.84690000  1
  C  C40  1  0.00473000  0.71460800  0.84693600  1
  C  C41  1  0.52333500  0.01583700  0.34682300  1
  C  C42  1  0.46972600  0.93141500  0.34586500  1
  C  C43  1  0.36975400  0.93454100  0.34585800  1
  C  C44  1  0.32131900  0.02242000  0.34681100  1
  C  C45  1  0.37539700  0.10689700  0.34776000  1
  C  C46  1  0.47528100  0.10352100  0.34776400  1
  C  C47  1  0.62820100  0.01257500  0.34683600  1
  C  C48  1  0.71585400  0.00971600  0.34683400  1
  C  C49  1  0.01554200  0.01409000  0.97329300  1
  C  C50  1  0.10277600  0.01848900  0.96186700  1
  C  C51  1  0.10606100  0.01886400  0.93676500  1
  C  C52  1  0.02181500  0.01481700  0.92288400  1
  C  C53  1  0.93440300  0.01036200  0.93444100  1
  C  C54  1  0.93144300  0.01000300  0.95954800  1
  C  C55  1  0.01227500  0.01362700  0.99945000  1
  C  C56  1  0.00944900  0.01310800  0.02139800  1
  C  C57  1  0.01439200  0.02977100  0.47334200  1
  C  C58  1  0.01875900  0.11639600  0.46142000  1
  C  C59  1  0.01918100  0.11742900  0.43630700  1
  C  C60  1  0.01521000  0.03149700  0.42288600  1
  C  C61  1  0.01075400  0.94463400  0.43492600  1
  C  C62  1  0.01034700  0.94392600  0.46006700  1
  C  C63  1  0.01394000  0.02936600  0.49952600  1
  C  C64  1  0.01346900  0.03017300  0.52150400  1
  C  C65  1  0.02373100  0.00417200  0.22035300  1
  C  C66  1  0.02716400  0.08958100  0.23380300  1
  C  C67  1  0.02548500  0.08812500  0.25891500  1
  C  C68  1  0.02037200  0.00092000  0.27077600  1
  C  C69  1  0.01683700  0.91535900  0.25719100  1
  C  C70  1  0.01853200  0.91714000  0.23208100  1
  C  C71  1  0.02613000  0.00584300  0.19419600  1
  C  C72  1  0.02850900  0.00725500  0.17225000  1
  C  C73  1  0.00563100  0.01127900  0.72322200  1
  C  C74  1  0.00191700  0.09620400  0.71049800  1
  C  C75  1  0.00341200  0.09378400  0.68536400  1
  C  C76  1  0.00861500  0.00610500  0.67276000  1
  C  C77  1  0.01241600  0.92105800  0.68562300  1
  C  C78  1  0.01090700  0.92380300  0.71074900  1
  C  C79  1  0.00343600  0.01373900  0.74940100  1
  C  C80  1  0.00123700  0.01523100  0.77136400  1
  Cl  Cl1  1  0.73404600  0.02122700  0.09863400  1
  Cl  Cl2  1  0.30378600  0.00035300  0.09501600  1
  Cl  Cl3  1  0.00248100  0.73151500  0.59141300  1
  Cl  Cl4  1  0.02046300  0.30403100  0.60225300  1
  Cl  Cl5  1  0.29639200  0.00564400  0.84482600  1
  Cl  Cl6  1  0.72695800  0.02677500  0.84886500  1
  Cl  Cl7  1  0.02693400  0.72991500  0.34993500  1
  Cl  Cl8  1  0.00791700  0.30189000  0.34371500  1
  O  O1  1  0.95003800  0.15680200  0.09581200  1
  O  O2  1  0.08630200  0.01524300  0.06051000  1
  O  O3  1  0.11544700  0.01400200  0.13549600  1
  O  O4  1  0.95149700  0.00594900  0.13314200  1
  O  O5  1  0.11374800  0.16367700  0.09838600  1
  O  O6  1  0.92393700  0.85767400  0.09526300  1
  O  O7  1  0.08785900  0.86464600  0.09784900  1
  O  O8  1  0.92235300  0.00730300  0.05815800  1
  O  O9  1  0.01599900  0.95120300  0.55961500  1
  O  O10  1  0.15713500  0.08762800  0.59663800  1
  O  O11  1  0.85840500  0.11271300  0.59653100  1
  O  O12  1  0.86577200  0.94789700  0.59699600  1
  O  O13  1  0.00757300  0.11611500  0.55939900  1
  O  O14  1  0.01522500  0.91970700  0.63426100  1
  O  O15  1  0.00669800  0.08434200  0.63398600  1
  O  O16  1  0.16437700  0.92300600  0.59710100  1
  O  O17  1  0.07859400  0.01963700  0.81043100  1
  O  O18  1  0.94280400  0.16224600  0.84571300  1
  O  O19  1  0.91665300  0.86314700  0.84549200  1
  O  O20  1  0.08057500  0.87008900  0.84796300  1
  O  O21  1  0.91462500  0.01148200  0.80820700  1
  O  O22  1  0.10847900  0.02029400  0.88541400  1
  O  O23  1  0.94478400  0.01217800  0.88318400  1
  O  O24  1  0.10650300  0.16911100  0.84810000  1
  O  O25  1  0.01288400  0.95107100  0.38348700  1
  O  O26  1  0.87162000  0.08586600  0.34756800  1
  O  O27  1  0.17014000  0.11076100  0.34790200  1
  O  O28  1  0.16321100  0.94611100  0.34607300  1
  O  O29  1  0.02099000  0.11575700  0.38504300  1
  O  O30  1  0.01377900  0.91614200  0.30858100  1
  O  O31  1  0.02200300  0.08080300  0.31019100  1
  O  O32  1  0.86451700  0.92103200  0.34576200  1
