# generated using pymatgen
data_Zr3H50C105O16
_symmetry_space_group_name_H-M   'P 1'
_cell_length_a   28.33000000
_cell_length_b   28.33000000
_cell_length_c   28.33000000
_cell_angle_alpha   90.00000000
_cell_angle_beta   90.00000000
_cell_angle_gamma   90.00000000
_symmetry_Int_Tables_number   1
_chemical_formula_structural   Zr3H50C105O16
_chemical_formula_sum   'Zr6 H100 C210 O32'
_cell_volume   22737.34353700
_cell_formula_units_Z   2
loop_
 _symmetry_equiv_pos_site_id
 _symmetry_equiv_pos_as_xyz
  1  'x, y, z'
loop_
 _atom_site_type_symbol
 _atom_site_label
 _atom_site_symmetry_multiplicity
 _atom_site_fract_x
 _atom_site_fract_y
 _atom_site_fract_z
 _atom_site_occupancy
  Zr  Zr1  1  0.99752000  0.99535000  0.91748000  1
  Zr  Zr2  1  0.00046000  0.91293000  0.00438000  1
  Zr  Zr3  1  0.91325000  0.99520000  0.00283000  1
  Zr  Zr4  1  0.99552000  0.08293000  0.99928000  1
  Zr  Zr5  1  0.99760000  0.00004000  0.08694000  1
  Zr  Zr6  1  0.08247000  0.00006000  0.00172000  1
  H  H1  1  0.58442000  0.06959000  0.52570000  1
  H  H2  1  0.63723000  0.07132000  0.59436000  1
  H  H3  1  0.57474000  0.94259000  0.64595000  1
  H  H4  1  0.52181000  0.94057000  0.57685000  1
  H  H5  1  0.58648000  0.93731000  0.47899000  1
  H  H6  1  0.63940000  0.93683000  0.41042000  1
  H  H7  1  0.57354000  0.06371000  0.35838000  1
  H  H8  1  0.52046000  0.06445000  0.42740000  1
  H  H9  1  0.47139000  0.06885000  0.57154000  1
  H  H10  1  0.41843000  0.07127000  0.64063000  1
  H  H11  1  0.35715000  0.93863000  0.59824000  1
  H  H12  1  0.40996000  0.93598000  0.52965000  1
  H  H13  1  0.40731000  0.06413000  0.47312000  1
  H  H14  1  0.35520000  0.05916000  0.40412000  1
  H  H15  1  0.42265000  0.92943000  0.36217000  1
  H  H16  1  0.47491000  0.93416000  0.43168000  1
  H  H17  1  0.24412000  0.93598000  0.30812000  1
  H  H18  1  0.18021000  0.93861000  0.24910000  1
  H  H19  1  0.25773000  0.04291000  0.16992000  1
  H  H20  1  0.32160000  0.04028000  0.22891000  1
  H  H21  1  0.72940000  0.07318000  0.28549000  1
  H  H22  1  0.79409000  0.07073000  0.22736000  1
  H  H23  1  0.76395000  0.92409000  0.19996000  1
  H  H24  1  0.69926000  0.92654000  0.25809000  1
  H  H25  1  0.24777000  0.06768000  0.70012000  1
  H  H26  1  0.18327000  0.06407000  0.75843000  1
  H  H27  1  0.24882000  0.94303000  0.82336000  1
  H  H28  1  0.31328000  0.94665000  0.76507000  1
  H  H29  1  0.69381000  0.93741000  0.75497000  1
  H  H30  1  0.75794000  0.93726000  0.81374000  1
  H  H31  1  0.79814000  0.07748000  0.77040000  1
  H  H32  1  0.73396000  0.07763000  0.71160000  1
  H  H33  1  0.58614000  0.52095000  0.93679000  1
  H  H34  1  0.64128000  0.58768000  0.94004000  1
  H  H35  1  0.57904000  0.63308000  0.07119000  1
  H  H36  1  0.52379000  0.56590000  0.06823000  1
  H  H37  1  0.59040000  0.46585000  0.06110000  1
  H  H38  1  0.64182000  0.39664000  0.05291000  1
  H  H39  1  0.56600000  0.35474000  0.92788000  1
  H  H40  1  0.51443000  0.42442000  0.93582000  1
  H  H41  1  0.47485000  0.56755000  0.93850000  1
  H  H42  1  0.42329000  0.63761000  0.93593000  1
  H  H43  1  0.35822000  0.59453000  0.06648000  1
  H  H44  1  0.40970000  0.52491000  0.06935000  1
  H  H45  1  0.40270000  0.47099000  0.94528000  1
  H  H46  1  0.34873000  0.40362000  0.95247000  1
  H  H47  1  0.42339000  0.35665000  0.07639000  1
  H  H48  1  0.47747000  0.42450000  0.06952000  1
  H  H49  1  0.22785000  0.32127000  0.04715000  1
  H  H50  1  0.16401000  0.26216000  0.04585000  1
  H  H51  1  0.26371000  0.15558000  0.00277000  1
  H  H52  1  0.32753000  0.21468000  0.00405000  1
  H  H53  1  0.75556000  0.31110000  0.94104000  1
  H  H54  1  0.81942000  0.25200000  0.94067000  1
  H  H55  1  0.72816000  0.15309000  0.01169000  1
  H  H56  1  0.66432000  0.21219000  0.01208000  1
  H  H57  1  0.25727000  0.70231000  0.93128000  1
  H  H58  1  0.19368000  0.76173000  0.93204000  1
  H  H59  1  0.24938000  0.81961000  0.06128000  1
  H  H60  1  0.31294000  0.76022000  0.06052000  1
  H  H61  1  0.74839000  0.69133000  0.94602000  1
  H  H62  1  0.81286000  0.74966000  0.94683000  1
  H  H63  1  0.75934000  0.80702000  0.07722000  1
  H  H64  1  0.69477000  0.74859000  0.07641000  1
  H  H65  1  0.94523000  0.52421000  0.41367000  1
  H  H66  1  0.94585000  0.59443000  0.36301000  1
  H  H67  1  0.07410000  0.64179000  0.42974000  1
  H  H68  1  0.07371000  0.57106000  0.48061000  1
  H  H69  1  0.07831000  0.47418000  0.41626000  1
  H  H70  1  0.08004000  0.40683000  0.36179000  1
  H  H71  1  0.94791000  0.35724000  0.41859000  1
  H  H72  1  0.94590000  0.42505000  0.47316000  1
  H  H73  1  0.94362000  0.56918000  0.52663000  1
  H  H74  1  0.94193000  0.63718000  0.58103000  1
  H  H75  1  0.07025000  0.58807000  0.64635000  1
  H  H76  1  0.07218000  0.52055000  0.59212000  1
  H  H77  1  0.93917000  0.47003000  0.58576000  1
  H  H78  1  0.93673000  0.40006000  0.63672000  1
  H  H79  1  0.06953000  0.35320000  0.57917000  1
  H  H80  1  0.07221000  0.42368000  0.52803000  1
  H  H81  1  0.92265000  0.27093000  0.71691000  1
  H  H82  1  0.91846000  0.21232000  0.78108000  1
  H  H83  1  0.06939000  0.19410000  0.77418000  1
  H  H84  1  0.07358000  0.25272000  0.71002000  1
  H  H85  1  0.96699000  0.22767000  0.32041000  1
  H  H86  1  0.96668000  0.16899000  0.25622000  1
  H  H87  1  0.06325000  0.25546000  0.17647000  1
  H  H88  1  0.06357000  0.31418000  0.24072000  1
  H  H89  1  0.07744000  0.73618000  0.71119000  1
  H  H90  1  0.07818000  0.79432000  0.77590000  1
  H  H91  1  0.92980000  0.77000000  0.79943000  1
  H  H92  1  0.92906000  0.71184000  0.73470000  1
  H  H93  1  0.93606000  0.74660000  0.30784000  1
  H  H94  1  0.93223000  0.80534000  0.24379000  1
  H  H95  1  0.07877000  0.77979000  0.21163000  1
  H  H96  1  0.08260000  0.72102000  0.27570000  1
  H  H97  1  0.05886000  0.06119000  0.93611000  1
  H  H98  1  0.93580000  0.93096000  0.94099000  1
  H  H99  1  0.06246000  0.93784000  0.06751000  1
  H  H100  1  0.93287000  0.06175000  0.06346000  1
  C  C1  1  0.47309000  0.00148000  0.50171000  1
  C  C2  1  0.52106000  0.00248000  0.50204000  1
  C  C3  1  0.54882000  0.00529000  0.54648000  1
  C  C4  1  0.54925000  0.00059000  0.45795000  1
  C  C5  1  0.44491000  0.00192000  0.54586000  1
  C  C6  1  0.44535000  0.99985000  0.45719000  1
  C  C7  1  0.58158000  0.04207000  0.55210000  1
  C  C8  1  0.61163000  0.04308000  0.59114000  1
  C  C9  1  0.60956000  0.00720000  0.62500000  1
  C  C10  1  0.57643000  0.97074000  0.62013000  1
  C  C11  1  0.54618000  0.96973000  0.58099000  1
  C  C12  1  0.58299000  0.96471000  0.45254000  1
  C  C13  1  0.61308000  0.96440000  0.41357000  1
  C  C14  1  0.61002000  0.00011000  0.37961000  1
  C  C15  1  0.57597000  0.03571000  0.38431000  1
  C  C16  1  0.54569000  0.03601000  0.42340000  1
  C  C17  1  0.44720000  0.03991000  0.57770000  1
  C  C18  1  0.41697000  0.04139000  0.61681000  1
  C  C19  1  0.38424000  0.00502000  0.62423000  1
  C  C20  1  0.38244000  0.96685000  0.59298000  1
  C  C21  1  0.41246000  0.96536000  0.55399000  1
  C  C22  1  0.41133000  0.03490000  0.44879000  1
  C  C23  1  0.38166000  0.03209000  0.40956000  1
  C  C24  1  0.38536000  0.99406000  0.37828000  1
  C  C25  1  0.41965000  0.95920000  0.38598000  1
  C  C26  1  0.44952000  0.96202000  0.42534000  1
  C  C27  1  0.70931000  0.00758000  0.72932000  1
  C  C28  1  0.70970000  0.00010000  0.27559000  1
  C  C29  1  0.28512000  0.00759000  0.72876000  1
  C  C30  1  0.28744000  0.98775000  0.27248000  1
  C  C31  1  0.24749000  0.95902000  0.27779000  1
  C  C32  1  0.21115000  0.96059000  0.24433000  1
  C  C33  1  0.21453000  0.99094000  0.20541000  1
  C  C34  1  0.25474000  0.01923000  0.19980000  1
  C  C35  1  0.29106000  0.01767000  0.23325000  1
  C  C36  1  0.73663000  0.04063000  0.26675000  1
  C  C37  1  0.77346000  0.03919000  0.23388000  1
  C  C38  1  0.78358000  0.99719000  0.20980000  1
  C  C39  1  0.75650000  0.95672000  0.21847000  1
  C  C40  1  0.71969000  0.95816000  0.25134000  1
  C  C41  1  0.71629000  0.96816000  0.75834000  1
  C  C42  1  0.75277000  0.96806000  0.79165000  1
  C  C43  1  0.78253000  0.00735000  0.79612000  1
  C  C44  1  0.77539000  0.04691000  0.76730000  1
  C  C45  1  0.73889000  0.04701000  0.73397000  1
  C  C46  1  0.24835000  0.04064000  0.72716000  1
  C  C47  1  0.21167000  0.03850000  0.76016000  1
  C  C48  1  0.21156000  0.00323000  0.79483000  1
  C  C49  1  0.24853000  0.97043000  0.79667000  1
  C  C50  1  0.28520000  0.97257000  0.76368000  1
  C  C51  1  0.82133000  0.99582000  0.17582000  1
  C  C52  1  0.17638000  0.99404000  0.17186000  1
  C  C53  1  0.17353000  0.00051000  0.82843000  1
  C  C54  1  0.82043000  0.00667000  0.83008000  1
  C  C55  1  0.14462000  0.99740000  0.14366000  1
  C  C56  1  0.32332000  0.98852000  0.30857000  1
  C  C57  1  0.14204000  0.99806000  0.85695000  1
  C  C58  1  0.32138000  0.00806000  0.69317000  1
  C  C59  1  0.85174000  0.00486000  0.85892000  1
  C  C60  1  0.67291000  0.00706000  0.69376000  1
  C  C61  1  0.85250000  0.99508000  0.14687000  1
  C  C62  1  0.67321000  0.00096000  0.31093000  1
  C  C63  1  0.64366000  0.00104000  0.34155000  1
  C  C64  1  0.88868000  0.99493000  0.11146000  1
  C  C65  1  0.64334000  0.00684000  0.66307000  1
  C  C66  1  0.88811000  0.00086000  0.89401000  1
  C  C67  1  0.35077000  0.00737000  0.66238000  1
  C  C68  1  0.10535000  0.99517000  0.89170000  1
  C  C69  1  0.35234000  0.99033000  0.33973000  1
  C  C70  1  0.10730000  0.00223000  0.10967000  1
  C  C71  1  0.47342000  0.49622000  0.00425000  1
  C  C72  1  0.52140000  0.49506000  0.00199000  1
  C  C73  1  0.55048000  0.53877000  0.00195000  1
  C  C74  1  0.54823000  0.44999000  0.99942000  1
  C  C75  1  0.44652000  0.54133000  0.00447000  1
  C  C76  1  0.44447000  0.45246000  0.00650000  1
  C  C77  1  0.58385000  0.54562000  0.96592000  1
  C  C78  1  0.61526000  0.58355000  0.96776000  1
  C  C79  1  0.61396000  0.61507000  0.00576000  1
  C  C80  1  0.58020000  0.60908000  0.04145000  1
  C  C81  1  0.54860000  0.57105000  0.03961000  1
  C  C82  1  0.58433000  0.44144000  0.03230000  1
  C  C83  1  0.61363000  0.40209000  0.02764000  1
  C  C84  1  0.60747000  0.37083000  0.98991000  1
  C  C85  1  0.57095000  0.37853000  0.95740000  1
  C  C86  1  0.54145000  0.41800000  0.96208000  1
  C  C87  1  0.45024000  0.57377000  0.96708000  1
  C  C88  1  0.42074000  0.61346000  0.96546000  1
  C  C89  1  0.38723000  0.62098000  0.00110000  1
  C  C90  1  0.38409000  0.58924000  0.03881000  1
  C  C91  1  0.41341000  0.54965000  0.04043000  1
  C  C92  1  0.40789000  0.44591000  0.97368000  1
  C  C93  1  0.37714000  0.40761000  0.97776000  1
  C  C94  1  0.38232000  0.37541000  0.01485000  1
  C  C95  1  0.41918000  0.38120000  0.04738000  1
  C  C96  1  0.45010000  0.41961000  0.04329000  1
  C  C97  1  0.71702000  0.71598000  0.01109000  1
  C  C98  1  0.70541000  0.26568000  0.97639000  1
  C  C99  1  0.28968000  0.72727000  0.99573000  1
  C  C100  1  0.28218000  0.27205000  0.02586000  1
  C  C101  1  0.23598000  0.28504000  0.03798000  1
  C  C102  1  0.19971000  0.25148000  0.03724000  1
  C  C103  1  0.20944000  0.20472000  0.02437000  1
  C  C104  1  0.25578000  0.19156000  0.01302000  1
  C  C105  1  0.29204000  0.22512000  0.01374000  1
  C  C106  1  0.74919000  0.27648000  0.95598000  1
  C  C107  1  0.78548000  0.24293000  0.95579000  1
  C  C108  1  0.77820000  0.19838000  0.97603000  1
  C  C109  1  0.73416000  0.18732000  0.99572000  1
  C  C110  1  0.69788000  0.22087000  0.99592000  1
  C  C111  1  0.75061000  0.71646000  0.97476000  1
  C  C112  1  0.78730000  0.74952000  0.97527000  1
  C  C113  1  0.79070000  0.78228000  0.01216000  1
  C  C114  1  0.75718000  0.78175000  0.04859000  1
  C  C115  1  0.72045000  0.74866000  0.04808000  1
  C  C116  1  0.25594000  0.72806000  0.95953000  1
  C  C117  1  0.21977000  0.76174000  0.96001000  1
  C  C118  1  0.21709000  0.79479000  0.99673000  1
  C  C119  1  0.25109000  0.79428000  0.03268000  1
  C  C120  1  0.28725000  0.76061000  0.03220000  1
  C  C121  1  0.81641000  0.16486000  0.97882000  1
  C  C122  1  0.17170000  0.17080000  0.02033000  1
  C  C123  1  0.17916000  0.82873000  0.99803000  1
  C  C124  1  0.82779000  0.81713000  0.01189000  1
  C  C125  1  0.14061000  0.14209000  0.01532000  1
  C  C126  1  0.31873000  0.30740000  0.02338000  1
  C  C127  1  0.14750000  0.85723000  0.99964000  1
  C  C128  1  0.32537000  0.69097000  0.99666000  1
  C  C129  1  0.85826000  0.84690000  0.01103000  1
  C  C130  1  0.67952000  0.68157000  0.01035000  1
  C  C131  1  0.84816000  0.13670000  0.98271000  1
  C  C132  1  0.88532000  0.10283000  0.98938000  1
  C  C133  1  0.64897000  0.65189000  0.00881000  1
  C  C134  1  0.89341000  0.88342000  0.00931000  1
  C  C135  1  0.35427000  0.65968000  0.99822000  1
  C  C136  1  0.11019000  0.89150000  0.00217000  1
  C  C137  1  0.34841000  0.33782000  0.02012000  1
  C  C138  1  0.10459000  0.10731000  0.00725000  1
  C  C139  1  0.00816000  0.49665000  0.52599000  1
  C  C140  1  0.00996000  0.49781000  0.47809000  1
  C  C141  1  0.00912000  0.54274000  0.45119000  1
  C  C142  1  0.01231000  0.45423000  0.44911000  1
  C  C143  1  0.00839000  0.54023000  0.55504000  1
  C  C144  1  0.00558000  0.45173000  0.55281000  1
  C  C145  1  0.97320000  0.54996000  0.41783000  1
  C  C146  1  0.97352000  0.58988000  0.38903000  1
  C  C147  1  0.00989000  0.62303000  0.39296000  1
  C  C148  1  0.04559000  0.61650000  0.42662000  1
  C  C149  1  0.04527000  0.57643000  0.45565000  1
  C  C150  1  0.05001000  0.44849000  0.41746000  1
  C  C151  1  0.05102000  0.41021000  0.38648000  1
  C  C152  1  0.01423000  0.37730000  0.38654000  1
  C  C153  1  0.97676000  0.38233000  0.41850000  1
  C  C154  1  0.97574000  0.42072000  0.44965000  1
  C  C155  1  0.97183000  0.57363000  0.55204000  1
  C  C156  1  0.97074000  0.61213000  0.58309000  1
  C  C157  1  0.00608000  0.61735000  0.61736000  1
  C  C158  1  0.04286000  0.58452000  0.61989000  1
  C  C159  1  0.04394000  0.54615000  0.58904000  1
  C  C160  1  0.96749000  0.44442000  0.58364000  1
  C  C161  1  0.96606000  0.40464000  0.61260000  1
  C  C162  1  0.00283000  0.37172000  0.61136000  1
  C  C163  1  0.04071000  0.37830000  0.58017000  1
  C  C164  1  0.04213000  0.41822000  0.55098000  1
  C  C165  1  0.00967000  0.72997000  0.29638000  1
  C  C166  1  0.01534000  0.27493000  0.28503000  1
  C  C167  1  0.00314000  0.72019000  0.71831000  1
  C  C168  1  0.99839000  0.26570000  0.70888000  1
  C  C169  1  0.95473000  0.25403000  0.72905000  1
  C  C170  1  0.95235000  0.22084000  0.76556000  1
  C  C171  1  0.99364000  0.19923000  0.78210000  1
  C  C172  1  0.03724000  0.21061000  0.76167000  1
  C  C173  1  0.03962000  0.24380000  0.72517000  1
  C  C174  1  0.98822000  0.23381000  0.28920000  1
  C  C175  1  0.98806000  0.20052000  0.25274000  1
  C  C176  1  0.01499000  0.20816000  0.21194000  1
  C  C177  1  0.04237000  0.24913000  0.20788000  1
  C  C178  1  0.04254000  0.28244000  0.24436000  1
  C  C179  1  0.96741000  0.75399000  0.28721000  1
  C  C180  1  0.96519000  0.78722000  0.25075000  1
  C  C181  1  0.00520000  0.79653000  0.22322000  1
  C  C182  1  0.04760000  0.77285000  0.23267000  1
  C  C183  1  0.04982000  0.73960000  0.26914000  1
  C  C184  1  0.04509000  0.74356000  0.73022000  1
  C  C185  1  0.04555000  0.77643000  0.76706000  1
  C  C186  1  0.00409000  0.78602000  0.79226000  1
  C  C187  1  0.96211000  0.76275000  0.78028000  1
  C  C188  1  0.96164000  0.72986000  0.74343000  1
  C  C189  1  0.01353000  0.17425000  0.17410000  1
  C  C190  1  0.99147000  0.16566000  0.82021000  1
  C  C191  1  0.00440000  0.82037000  0.82972000  1
  C  C192  1  0.00271000  0.83015000  0.18517000  1
  C  C193  1  0.99053000  0.13736000  0.85199000  1
  C  C194  1  0.00094000  0.30164000  0.67302000  1
  C  C195  1  0.00429000  0.84981000  0.86047000  1
  C  C196  1  0.00316000  0.68514000  0.68151000  1
  C  C197  1  0.00085000  0.85846000  0.15344000  1
  C  C198  1  0.01077000  0.14513000  0.14318000  1
  C  C199  1  0.01457000  0.30991000  0.32190000  1
  C  C200  1  0.01411000  0.34002000  0.35199000  1
  C  C201  1  0.00527000  0.10933000  0.10780000  1
  C  C202  1  0.99921000  0.89268000  0.11615000  1
  C  C203  1  0.00395000  0.65487000  0.65157000  1
  C  C204  1  0.00344000  0.88598000  0.89591000  1
  C  C205  1  0.00237000  0.33286000  0.64411000  1
  C  C206  1  0.99084000  0.10313000  0.88932000  1
  C  C207  1  0.01103000  0.69371000  0.33198000  1
  C  C208  1  0.01118000  0.66221000  0.36062000  1
  C  C209  1  0.66939000  0.30151000  0.97978000  1
  C  C210  1  0.64036000  0.33246000  0.98377000  1
  O  O1  1  0.95608000  0.95258000  0.96086000  1
  O  O2  1  0.04082000  0.95589000  0.96116000  1
  O  O3  1  0.00251000  0.93020000  0.87907000  1
  O  O4  1  0.00203000  0.87103000  0.94089000  1
  O  O5  1  0.95455000  0.03725000  0.95932000  1
  O  O6  1  0.87104000  0.99132000  0.94006000  1
  O  O7  1  0.93389000  0.99093000  0.87620000  1
  O  O8  1  0.03932000  0.04066000  0.95776000  1
  O  O9  1  0.99222000  0.05801000  0.87510000  1
  O  O10  1  0.99212000  0.12068000  0.93334000  1
  O  O11  1  0.12104000  0.98540000  0.93823000  1
  O  O12  1  0.06093000  0.99815000  0.87555000  1
  O  O13  1  0.95713000  0.95535000  0.04557000  1
  O  O14  1  0.87495000  0.93000000  0.00764000  1
  O  O15  1  0.93849000  0.86901000  0.00763000  1
  O  O16  1  0.04175000  0.95738000  0.04610000  1
  O  O17  1  0.12512000  0.93835000  0.01208000  1
  O  O18  1  0.06605000  0.87420000  0.00069000  1
  O  O19  1  0.00179000  0.87402000  0.06959000  1
  O  O20  1  0.99812000  0.93781000  0.13032000  1
  O  O21  1  0.95404000  0.04092000  0.04366000  1
  O  O22  1  0.86936000  0.05693000  0.00134000  1
  O  O23  1  0.93064000  0.12246000  0.99792000  1
  O  O24  1  0.93324000  0.99716000  0.12730000  1
  O  O25  1  0.87292000  0.99422000  0.06690000  1
  O  O26  1  0.03818000  0.04173000  0.04245000  1
  O  O27  1  0.12185000  0.06364000  0.99017000  1
  O  O28  1  0.05868000  0.12565000  0.99869000  1
  O  O29  1  0.99536000  0.12630000  0.06169000  1
  O  O30  1  0.99345000  0.06447000  0.12640000  1
  O  O31  1  0.06104000  0.00604000  0.12858000  1
  O  O32  1  0.12188000  0.01693000  0.06424000  1
