# generated using pymatgen
data_Zn4H40C52N12O13
_symmetry_space_group_name_H-M   'P 1'
_cell_length_a   18.21540500
_cell_length_b   21.39536400
_cell_length_c   21.39535500
_cell_angle_alpha   90.02567700
_cell_angle_beta   89.98014900
_cell_angle_gamma   89.98108300
_symmetry_Int_Tables_number   1
_chemical_formula_structural   Zn4H40C52N12O13
_chemical_formula_sum   'Zn4 H40 C52 N12 O13'
_cell_volume   8338.30764986
_cell_formula_units_Z   1
loop_
 _symmetry_equiv_pos_site_id
 _symmetry_equiv_pos_as_xyz
  1  'x, y, z'
loop_
 _atom_site_type_symbol
 _atom_site_label
 _atom_site_symmetry_multiplicity
 _atom_site_fract_x
 _atom_site_fract_y
 _atom_site_fract_z
 _atom_site_occupancy
  Zn  Zn1  1  0.70681300  0.04211600  0.64572600  1
  Zn  Zn2  1  0.58376500  0.04220300  0.75050600  1
  Zn  Zn3  1  0.70682600  0.14690100  0.75049100  1
  Zn  Zn4  1  0.58379700  0.14692100  0.64576700  1
  H  H1  1  0.73055900  0.85533400  0.62529100  1
  H  H2  1  0.71321400  0.98211800  0.49474100  1
  H  H3  1  0.77294900  0.98578300  0.43689800  1
  H  H4  1  0.65567000  0.65351900  0.59569000  1
  H  H5  1  0.65568000  0.53480700  0.59569700  1
  H  H6  1  0.73074400  0.02172300  0.34023800  1
  H  H7  1  0.76570000  0.08543300  0.25715600  1
  H  H8  1  0.49499300  0.85273300  0.77189400  1
  H  H9  1  0.55916000  0.85273000  0.82627600  1
  H  H10  1  0.56011200  0.16718900  0.05537000  1
  H  H11  1  0.55995700  0.16720900  0.45901000  1
  H  H12  1  0.67829200  0.49911800  0.82129900  1
  H  H13  1  0.62979600  0.55698200  0.85121500  1
  H  H14  1  0.63432700  0.70869600  0.80691700  1
  H  H15  1  0.58587800  0.65087300  0.83686200  1
  H  H16  1  0.55476500  0.50687700  0.77548100  1
  H  H17  1  0.49506400  0.44903500  0.77190500  1
  H  H18  1  0.77278900  0.42966800  0.58927300  1
  H  H19  1  0.71300800  0.48748600  0.58575300  1
  H  H20  1  0.76574700  0.08543300  0.13844400  1
  H  H21  1  0.10183000  0.98575200  0.80665600  1
  H  H22  1  0.03388700  0.03661300  0.81030400  1
  H  H23  1  0.25738300  0.20688700  0.64040200  1
  H  H24  1  0.25741800  0.15237600  0.58585700  1
  H  H25  1  0.77276100  0.75859900  0.58925900  1
  H  H26  1  0.77708500  0.70082300  0.64014900  1
  H  H27  1  0.73085800  0.02171200  0.05530800  1
  H  H28  1  0.77315500  0.98573300  0.95858800  1
  H  H29  1  0.71341500  0.98214800  0.90077600  1
  H  H30  1  0.07593600  0.16720200  0.62546000  1
  H  H31  1  0.56017000  0.16719200  0.93666000  1
  H  H32  1  0.77278900  0.35496600  0.58927300  1
  H  H33  1  0.77711400  0.29718400  0.64015500  1
  H  H34  1  0.52515000  0.10346500  0.13845900  1
  H  H35  1  0.52511800  0.10363900  0.25716300  1
  H  H36  1  0.56000400  0.16719600  0.34029700  1
  H  H37  1  0.56002700  0.73673300  0.77094100  1
  H  H38  1  0.55476900  0.27804100  0.77548600  1
  H  H39  1  0.55916200  0.33591900  0.82630400  1
  H  H40  1  0.21540600  0.02178400  0.77074300  1
  C  C1  1  0.64533400  0.25732200  0.69814300  1
  C  C2  1  0.64533100  0.32696400  0.69813700  1
  C  C3  1  0.45409400  0.09460100  0.69815300  1
  C  C4  1  0.37229500  0.09457200  0.69814400  1
  C  C5  1  0.69228800  0.82872700  0.65797900  1
  C  C6  1  0.69229100  0.76329200  0.65797800  1
  C  C7  1  0.64530000  0.73060200  0.69812100  1
  C  C8  1  0.59828900  0.76335300  0.73825700  1
  C  C9  1  0.59828200  0.82878700  0.73825300  1
  C  C10  1  0.63959800  0.62696500  0.75458600  1
  C  C11  1  0.63961000  0.56153200  0.75459200  1
  C  C12  1  0.64531800  0.52878100  0.69813400  1
  C  C13  1  0.65102900  0.56147200  0.64167000  1
  C  C14  1  0.65102200  0.62690600  0.64166500  1
  C  C15  1  0.64530200  0.65965000  0.69813000  1
  C  C16  1  0.69232500  0.42508600  0.65799600  1
  C  C17  1  0.69232300  0.35964900  0.65799400  1
  C  C18  1  0.59832500  0.35971100  0.73827900  1
  C  C19  1  0.59832400  0.42514700  0.73827600  1
  C  C20  1  0.64532700  0.45783000  0.69813500  1
  C  C21  1  0.18411300  0.05441700  0.73813900  1
  C  C22  1  0.10725500  0.05438900  0.73812400  1
  C  C23  1  0.10723900  0.13457200  0.65806100  1
  C  C24  1  0.18409600  0.13459700  0.65807300  1
  C  C25  1  0.22253200  0.09452000  0.69811600  1
  C  C26  1  0.06881600  0.09446800  0.69808800  1
  C  C27  1  0.98548200  0.09443800  0.69807200  1
  C  C28  1  0.30587100  0.09454900  0.69813200  1
  C  C29  1  0.83725300  0.09445100  0.69807800  1
  C  C30  1  0.91905200  0.09441600  0.69806000  1
  C  C31  1  0.64531500  0.09448300  0.53469900  1
  C  C32  1  0.64532200  0.09446100  0.46505800  1
  C  C33  1  0.64527500  0.93111200  0.69810600  1
  C  C34  1  0.64528600  0.86147000  0.69811200  1
  C  C35  1  0.69238400  0.05436900  0.43232800  1
  C  C36  1  0.69241600  0.05436900  0.36689200  1
  C  C37  1  0.64537200  0.09445600  0.33418900  1
  C  C38  1  0.59830600  0.13455600  0.36692700  1
  C  C39  1  0.59828100  0.13455800  0.43236200  1
  C  C40  1  0.57910800  0.09942600  0.23052500  1
  C  C41  1  0.57913200  0.09941900  0.16509200  1
  C  C42  1  0.64544900  0.09445200  0.13236900  1
  C  C43  1  0.71174500  0.08947800  0.16508600  1
  C  C44  1  0.71172000  0.08948100  0.23052000  1
  C  C45  1  0.64539400  0.09445800  0.26323700  1
  C  C46  1  0.69255000  0.05435900  0.02868600  1
  C  C47  1  0.69258300  0.05436400  0.96324900  1
  C  C48  1  0.59846700  0.13454700  0.96328600  1
  C  C49  1  0.59844000  0.13454500  0.02872100  1
  C  C50  1  0.64548100  0.09444700  0.06141700  1
  C  C51  1  0.64533900  0.09455100  0.86091000  1
  C  C52  1  0.64553900  0.09445100  0.93055100  1
  N  N1  1  0.74313200  0.01113900  0.46759900  1
  N  N2  1  0.54759100  0.86411100  0.78154300  1
  N  N3  1  0.63344700  0.52627100  0.81548600  1
  N  N4  1  0.63346200  0.66228400  0.81548600  1
  N  N5  1  0.54763900  0.46046500  0.78157400  1
  N  N6  1  0.74301600  0.46034300  0.61470200  1
  N  N7  1  0.06581700  0.01113400  0.78129000  1
  N  N8  1  0.22553400  0.17785700  0.61490400  1
  N  N9  1  0.74298700  0.72796500  0.61468900  1
  N  N10  1  0.74336000  0.01113100  0.92794400  1
  N  N11  1  0.74301500  0.32433000  0.61470000  1
  N  N12  1  0.54763500  0.32446300  0.78157300  1
  O  O1  1  0.64530000  0.09453500  0.69812200  1
  O  O2  1  0.69047200  0.95444900  0.65961400  1
  O  O3  1  0.60008100  0.05611900  0.83818200  1
  O  O4  1  0.80980900  0.13295600  0.73657000  1
  O  O5  1  0.60006900  0.95451300  0.73659500  1
  O  O6  1  0.80979900  0.05597100  0.65959900  1
  O  O7  1  0.69049400  0.13304000  0.83817100  1
  O  O8  1  0.69052400  0.23458100  0.73661100  1
  O  O9  1  0.60012300  0.13299000  0.55808400  1
  O  O10  1  0.60013500  0.23459600  0.65967100  1
  O  O11  1  0.69050300  0.05599000  0.55805300  1
  O  O12  1  0.48078500  0.05613800  0.73663500  1
  O  O13  1  0.48080800  0.13307500  0.65968500  1
