# generated using pymatgen
data_ZnH6C19N5O4
_symmetry_space_group_name_H-M   'P 1'
_cell_length_a   14.97148600
_cell_length_b   11.02660700
_cell_length_c   14.04822600
_cell_angle_alpha   89.99621000
_cell_angle_beta   89.99849900
_cell_angle_gamma   96.10007300
_symmetry_Int_Tables_number   1
_chemical_formula_structural   ZnH6C19N5O4
_chemical_formula_sum   'Zn2 H12 C38 N10 O8'
_cell_volume   2306.01560638
_cell_formula_units_Z   2
loop_
 _symmetry_equiv_pos_site_id
 _symmetry_equiv_pos_as_xyz
  1  'x, y, z'
loop_
 _atom_site_type_symbol
 _atom_site_label
 _atom_site_symmetry_multiplicity
 _atom_site_fract_x
 _atom_site_fract_y
 _atom_site_fract_z
 _atom_site_occupancy
  Zn  Zn1  1  0.08358800  0.16763900  0.10439900  1
  Zn  Zn2  1  0.08361200  0.16765300  0.89580400  1
  H  H1  1  0.82599400  0.37409600  0.00007000  1
  H  H2  1  0.20967700  0.56429100  0.00003500  1
  H  H3  1  0.16987100  0.01813900  0.43680900  1
  H  H4  1  0.16989500  0.01815000  0.56338400  1
  H  H5  1  0.99734700  0.31714800  0.74418700  1
  H  H6  1  0.99732000  0.31713800  0.56339300  1
  H  H7  1  0.99728800  0.31712000  0.25602100  1
  H  H8  1  0.63014100  0.96858300  0.00011900  1
  H  H9  1  0.53705500  0.36671900  0.00008900  1
  H  H10  1  0.36709600  0.36237800  0.00011500  1
  H  H11  1  0.51115900  0.96553300  0.00011500  1
  H  H12  1  0.34120200  0.96119900  0.00012600  1
  C  C1  1  0.92145700  0.17627000  0.00008600  1
  C  C2  1  0.82175300  0.17373200  0.00007600  1
  C  C3  1  0.05440000  0.94574000  0.00010100  1
  C  C4  1  0.03093900  0.81099200  0.00009600  1
  C  C5  1  0.78205100  0.28309300  0.00007700  1
  C  C6  1  0.68836800  0.28070000  0.00009100  1
  C  C7  1  0.63438900  0.16894500  0.00009800  1
  C  C8  1  0.67409800  0.05957600  0.00010000  1
  C  C9  1  0.76777900  0.06196900  0.00009300  1
  C  C10  1  0.47883700  0.05459400  0.00011300  1
  C  C11  1  0.38515000  0.05220000  0.00011900  1
  C  C12  1  0.39942600  0.27332500  0.00011100  1
  C  C13  1  0.49310700  0.27571800  0.00010400  1
  C  C14  1  0.53280900  0.16634800  0.00010500  1
  C  C15  1  0.09571900  0.73728000  0.00010100  1
  C  C16  1  0.07147200  0.59801100  0.00009500  1
  C  C17  1  0.24574300  0.15902200  0.00011600  1
  C  C18  1  0.34544700  0.16156100  0.00011900  1
  C  C19  1  0.11280000  0.38955200  0.00010000  1
  C  C20  1  0.13626100  0.52430000  0.00010000  1
  C  C21  1  0.13113800  0.08523300  0.29658400  1
  C  C22  1  0.13114400  0.08523200  0.39624200  1
  C  C23  1  0.08359500  0.16763400  0.44607400  1
  C  C24  1  0.03602900  0.25003300  0.39624200  1
  C  C25  1  0.03601800  0.25002700  0.29658700  1
  C  C26  1  0.03605600  0.25004200  0.60395700  1
  C  C27  1  0.03606800  0.25005000  0.70361900  1
  C  C28  1  0.13118200  0.08524700  0.70361200  1
  C  C29  1  0.13117100  0.08524100  0.60395600  1
  C  C30  1  0.08360700  0.16764200  0.55413200  1
  C  C31  1  0.64470000  0.40100600  0.00010800  1
  C  C32  1  0.97229000  0.54398700  0.00008600  1
  C  C33  1  0.93176200  0.75696300  0.00008700  1
  C  C34  1  0.18344700  0.99458200  0.24177900  1
  C  C35  1  0.19489600  0.79130900  0.00011700  1
  C  C36  1  0.18350000  0.99460000  0.75842100  1
  C  C37  1  0.98371300  0.34066400  0.45106100  1
  C  C38  1  0.81145100  0.94166400  0.00008900  1
  N  N1  1  0.08357800  0.16762800  0.24676000  1
  N  N2  1  0.08362800  0.16765400  0.75344400  1
  N  N3  1  0.61181000  0.49162700  0.00012900  1
  N  N4  1  0.89758800  0.50329500  0.00008300  1
  N  N5  1  0.85706000  0.71627000  0.00008400  1
  N  N6  1  0.22284400  0.92629800  0.20050200  1
  N  N7  1  0.26959800  0.83200200  0.00013400  1
  N  N8  1  0.22290600  0.92633000  0.79970700  1
  N  N9  1  0.94430800  0.40893000  0.49234900  1
  N  N10  1  0.84434300  0.85104500  0.00008900  1
  O  O1  1  0.21229200  0.15818000  0.92095400  1
  O  O2  1  0.95492700  0.17712300  0.92092900  1
  O  O3  1  0.06227900  0.99096800  0.92094300  1
  O  O4  1  0.10493900  0.34433600  0.92094000  1
  O  O5  1  0.06226100  0.99095700  0.07926400  1
  O  O6  1  0.95490800  0.17711200  0.07925000  1
  O  O7  1  0.21227400  0.15816900  0.07927500  1
  O  O8  1  0.10492100  0.34432500  0.07926100  1
