# generated using pymatgen
data_Zn4H12C18O13
_symmetry_space_group_name_H-M   'P 1'
_cell_length_a   12.82789200
_cell_length_b   12.82789300
_cell_length_c   12.82788500
_cell_angle_alpha   90.02137900
_cell_angle_beta   89.97021400
_cell_angle_gamma   89.98658900
_symmetry_Int_Tables_number   1
_chemical_formula_structural   Zn4H12C18O13
_chemical_formula_sum   'Zn4 H12 C18 O13'
_cell_volume   2110.88989390
_cell_formula_units_Z   1
loop_
 _symmetry_equiv_pos_site_id
 _symmetry_equiv_pos_as_xyz
  1  'x, y, z'
loop_
 _atom_site_type_symbol
 _atom_site_label
 _atom_site_symmetry_multiplicity
 _atom_site_fract_x
 _atom_site_fract_y
 _atom_site_fract_z
 _atom_site_occupancy
  Zn  Zn1  1  0.58396200  0.40232800  0.40909800  1
  Zn  Zn2  1  0.40918500  0.40243500  0.58383800  1
  Zn  Zn3  1  0.58391700  0.57708800  0.58383000  1
  Zn  Zn4  1  0.40926900  0.57710200  0.40914300  1
  H  H1  1  0.37858100  0.88460200  0.37880700  1
  H  H2  1  0.44241600  0.43522800  0.92866900  1
  H  H3  1  0.89255900  0.37166200  0.61419800  1
  H  H4  1  0.37854900  0.09372800  0.37878900  1
  H  H5  1  0.55101600  0.05650700  0.55076100  1
  H  H6  1  0.61462100  0.60748000  0.10050600  1
  H  H7  1  0.55103600  0.92196200  0.55076500  1
  H  H8  1  0.92982900  0.54404100  0.44210600  1
  H  H9  1  0.06437500  0.54410800  0.44213200  1
  H  H10  1  0.10168300  0.37177900  0.61423800  1
  H  H11  1  0.61470900  0.60741900  0.89138000  1
  H  H12  1  0.44236300  0.43527100  0.06321400  1
  C  C1  1  0.49661300  0.76124800  0.49650600  1
  C  C2  1  0.49660000  0.87740100  0.49649400  1
  C  C3  1  0.22507300  0.48980400  0.49649600  1
  C  C4  1  0.10892000  0.48973600  0.49646900  1
  C  C5  1  0.43300900  0.92916300  0.43308600  1
  C  C6  1  0.43299500  0.04921400  0.43307200  1
  C  C7  1  0.05714000  0.42616000  0.55990800  1
  C  C8  1  0.93709000  0.42608900  0.55988200  1
  C  C9  1  0.76915400  0.48964400  0.49643600  1
  C  C10  1  0.88530700  0.48960400  0.49641800  1
  C  C11  1  0.49668400  0.48966600  0.22390700  1
  C  C12  1  0.49672600  0.48963500  0.10775400  1
  C  C13  1  0.49656200  0.21716800  0.49645600  1
  C  C14  1  0.49657400  0.10101500  0.49646800  1
  C  C15  1  0.56026300  0.55311000  0.05596600  1
  C  C16  1  0.56030900  0.55308000  0.93591600  1
  C  C17  1  0.49655900  0.48975000  0.76798700  1
  C  C18  1  0.49681000  0.48957800  0.88414000  1
  O  O1  1  0.49658300  0.48973800  0.49647700  1
  O  O2  1  0.56076200  0.25610700  0.43226200  1
  O  O3  1  0.43231000  0.42564200  0.73007300  1
  O  O4  1  0.73015900  0.55385500  0.56062900  1
  O  O5  1  0.43235300  0.25618500  0.56064200  1
  O  O6  1  0.73019200  0.42546000  0.43225400  1
  O  O7  1  0.56068500  0.55395800  0.73006700  1
  O  O8  1  0.56076600  0.72332600  0.56067300  1
  O  O9  1  0.43249600  0.55387900  0.26290100  1
  O  O10  1  0.43245200  0.72333600  0.43233200  1
  O  O11  1  0.56084300  0.42547400  0.26286800  1
  O  O12  1  0.26296000  0.42565500  0.56068600  1
  O  O13  1  0.26302200  0.55398200  0.43233900  1
