# generated using pymatgen
data_ZnH11C12(NO)4
_symmetry_space_group_name_H-M   'P 1'
_cell_length_a   11.02660700
_cell_length_b   13.18540700
_cell_length_c   10.06587500
_cell_angle_alpha   95.78354900
_cell_angle_beta   79.30233800
_cell_angle_gamma   80.27975000
_symmetry_Int_Tables_number   1
_chemical_formula_structural   ZnH11C12(NO)4
_chemical_formula_sum   'Zn2 H22 C24 N8 O8'
_cell_volume   1404.15257389
_cell_formula_units_Z   2
loop_
 _symmetry_equiv_pos_site_id
 _symmetry_equiv_pos_as_xyz
  1  'x, y, z'
loop_
 _atom_site_type_symbol
 _atom_site_label
 _atom_site_symmetry_multiplicity
 _atom_site_fract_x
 _atom_site_fract_y
 _atom_site_fract_z
 _atom_site_occupancy
  Zn  Zn1  1  0.27285600  0.42023200  0.14953400  1
  Zn  Zn2  1  0.32980600  0.38917900  0.85046800  1
  H  H1  1  0.72383600  0.30671400  0.99996300  1
  H  H2  1  0.74529600  0.58047800  0.00000400  1
  H  H3  1  0.63078100  0.60291400  0.91585200  1
  H  H4  1  0.46126000  0.31746400  0.58804500  1
  H  H5  1  0.95203100  0.26029000  0.99996700  1
  H  H6  1  0.19379100  0.46337200  0.63690500  1
  H  H7  1  0.21308200  0.07994700  0.99998400  1
  H  H8  1  0.10460200  0.00663100  0.99997700  1
  H  H9  1  0.48799700  0.37247200  0.28484000  1
  H  H10  1  0.48961100  0.30191000  0.41105000  1
  H  H11  1  0.87884300  0.50267700  0.00000100  1
  H  H12  1  0.60453100  0.10963900  0.99994000  1
  H  H13  1  0.85283300  0.85100500  0.99995800  1
  H  H14  1  0.87147200  0.95936400  0.08410400  1
  H  H15  1  0.89027600  0.72850000  0.99998100  1
  H  H16  1  0.99892500  0.62980300  0.91583400  1
  H  H17  1  0.37123300  0.57299700  0.00004100  1
  H  H18  1  0.51435500  0.57396800  0.91589300  1
  H  H19  1  0.10737800  0.51049600  0.53220500  1
  H  H20  1  0.10573800  0.58103300  0.40597200  1
  H  H21  1  0.60534600  0.74582400  0.00000600  1
  H  H22  1  0.66401600  0.91495300  0.00002500  1
  C  C1  1  0.09039100  0.37125700  0.00000000  1
  C  C2  1  0.96445400  0.34438300  0.99999900  1
  C  C3  1  0.86641500  0.41858600  0.99999600  1
  C  C4  1  0.73625200  0.39081200  0.99999500  1
  C  C5  1  0.37084700  0.21897500  0.00000500  1
  C  C6  1  0.40575200  0.10476600  0.00000000  1
  C  C7  1  0.07263400  0.75011500  0.99998600  1
  C  C8  1  0.03983800  0.85741800  0.99997600  1
  C  C9  1  0.13131300  0.91926100  0.99998300  1
  C  C10  1  0.25559200  0.87378900  0.99999700  1
  C  C11  1  0.28839400  0.76647500  0.99999600  1
  C  C12  1  0.34707300  0.93562000  0.99999300  1
  C  C13  1  0.47135100  0.89014900  0.00000800  1
  C  C14  1  0.50414700  0.78284500  0.00000700  1
  C  C15  1  0.41267200  0.72100200  0.00000100  1
  C  C16  1  0.31427100  0.04293500  0.99999500  1
  C  C17  1  0.53003000  0.05929400  0.00000500  1
  C  C18  1  0.56282700  0.95199100  0.00001400  1
  C  C19  1  0.51227200  0.43815300  0.00000000  1
  C  C20  1  0.63821100  0.46502600  0.99999100  1
  C  C21  1  0.23181600  0.59043500  0.99999500  1
  C  C22  1  0.19691200  0.70464300  0.99999100  1
  C  C23  1  0.31628100  0.39654500  0.42142000  1
  C  C24  1  0.28638100  0.41286600  0.57858600  1
  N  N1  1  0.23399800  0.44142600  0.35363900  1
  N  N2  1  0.36867600  0.36797900  0.64636400  1
  N  N3  1  0.65464400  0.57642400  0.00000100  1
  N  N4  1  0.43889700  0.32962100  0.34415500  1
  N  N5  1  0.90580700  0.90646100  0.99995800  1
  N  N6  1  0.97398500  0.68341500  0.99998400  1
  N  N7  1  0.44804500  0.60526800  0.00003400  1
  N  N8  1  0.11135500  0.50832200  0.43087900  1
  O  O1  1  0.49161700  0.41735400  0.88650900  1
  O  O2  1  0.15427000  0.36848800  0.88650600  1
  O  O3  1  0.38074000  0.24551900  0.88651300  1
  O  O4  1  0.26514700  0.54032300  0.88650200  1
  O  O5  1  0.33751600  0.26908800  0.11350000  1
  O  O6  1  0.11104600  0.39205600  0.11349400  1
  O  O7  1  0.44839300  0.44092300  0.11349600  1
  O  O8  1  0.22192300  0.56389200  0.11349000  1
