# generated using pymatgen
data_ZnH10C18NO5
_symmetry_space_group_name_H-M   'P 1'
_cell_length_a   12.83794300
_cell_length_b   13.33907000
_cell_length_c   11.89209500
_cell_angle_alpha   94.95012100
_cell_angle_beta   85.68943800
_cell_angle_gamma   105.22911700
_symmetry_Int_Tables_number   1
_chemical_formula_structural   ZnH10C18NO5
_chemical_formula_sum   'Zn2 H20 C36 N2 O10'
_cell_volume   1954.71139522
_cell_formula_units_Z   2
loop_
 _symmetry_equiv_pos_site_id
 _symmetry_equiv_pos_as_xyz
  1  'x, y, z'
loop_
 _atom_site_type_symbol
 _atom_site_label
 _atom_site_symmetry_multiplicity
 _atom_site_fract_x
 _atom_site_fract_y
 _atom_site_fract_z
 _atom_site_occupancy
  Zn  Zn1  1  0.29394600  0.27169700  0.12387900  1
  Zn  Zn2  1  0.30688900  0.25590900  0.87617200  1
  H  H1  1  0.85166600  0.48231900  0.00003300  1
  H  H2  1  0.42210300  0.11513600  0.48139800  1
  H  H3  1  0.61571400  0.77079200  0.00005300  1
  H  H4  1  0.41091600  0.12880500  0.69608400  1
  H  H5  1  0.74915400  0.04529500  0.00002700  1
  H  H6  1  0.59606400  0.11989600  0.00011100  1
  H  H7  1  0.00474800  0.40772500  0.00002500  1
  H  H8  1  0.92151100  0.76065700  0.92336600  1
  H  H9  1  0.16852700  0.48654000  0.99999500  1
  H  H10  1  0.18992300  0.39878800  0.30395200  1
  H  H11  1  0.64891600  0.45938100  0.00003700  1
  H  H12  1  0.53424000  0.47417600  0.00004000  1
  H  H13  1  0.38482300  0.94299600  0.00003800  1
  H  H14  1  0.95193500  0.06822900  0.00000700  1
  H  H15  1  0.47609200  0.87494200  0.00004400  1
  H  H16  1  0.02888600  0.59069100  0.99999900  1
  H  H17  1  0.04533600  0.95404200  0.00001500  1
  H  H18  1  0.37918700  0.16755500  0.30390500  1
  H  H19  1  0.22165300  0.36003500  0.69616200  1
  H  H20  1  0.17874100  0.41245700  0.51866800  1
  C  C1  1  0.10767500  0.25260800  0.00002100  1
  C  C2  1  0.98872600  0.23914600  0.00001800  1
  C  C3  1  0.79431500  0.40098600  0.00003200  1
  C  C4  1  0.68255300  0.38834200  0.00003000  1
  C  C5  1  0.65343600  0.20121500  0.00002100  1
  C  C6  1  0.76519900  0.21385900  0.00002300  1
  C  C7  1  0.83563500  0.31374800  0.00002600  1
  C  C8  1  0.94740000  0.32639000  0.00002000  1
  C  C9  1  0.91828100  0.13926500  0.00001900  1
  C  C10  1  0.80651900  0.12662100  0.00001700  1
  C  C11  1  0.25348800  0.07432700  0.00002600  1
  C  C12  1  0.21816400  0.95861900  0.00002100  1
  C  C13  1  0.49283000  0.62030400  0.00002800  1
  C  C14  1  0.52602200  0.72901700  0.00003900  1
  C  C15  1  0.44906000  0.78642300  0.00003400  1
  C  C16  1  0.33890100  0.73510500  0.00001800  1
  C  C17  1  0.30570500  0.62638200  0.00001600  1
  C  C18  1  0.26193500  0.79250100  0.00002200  1
  C  C19  1  0.15177600  0.74118300  0.00000700  1
  C  C20  1  0.11858500  0.63247000  0.00000300  1
  C  C21  1  0.19554700  0.57506400  0.00000800  1
  C  C22  1  0.29513100  0.90122400  0.00002500  1
  C  C23  1  0.10800600  0.90730200  0.00001300  1
  C  C24  1  0.07481400  0.79858900  0.00000200  1
  C  C25  1  0.49316100  0.27499800  0.00002700  1
  C  C26  1  0.61211000  0.28846000  0.00002300  1
  C  C27  1  0.34734700  0.45328000  0.00002200  1
  C  C28  1  0.38267200  0.56898600  0.00002000  1
  C  C29  1  0.37711400  0.17008900  0.52958500  1
  C  C30  1  0.37095500  0.17762900  0.64792700  1
  C  C31  1  0.26663800  0.30508600  0.64795900  1
  C  C32  1  0.27279700  0.29754600  0.52961800  1
  C  C33  1  0.32803800  0.23004700  0.47043500  1
  C  C34  1  0.33420300  0.22251300  0.35209100  1
  C  C35  1  0.22988000  0.34996300  0.35212600  1
  C  C36  1  0.22372100  0.35750300  0.47046800  1
  N  N1  1  0.28512100  0.28247200  0.29293300  1
  N  N2  1  0.31572000  0.24512700  0.70711800  1
  O  O1  1  0.45815300  0.26449300  0.90602500  1
  O  O2  1  0.15250500  0.25113100  0.90601800  1
  O  O3  1  0.27025100  0.10716700  0.90602400  1
  O  O4  1  0.34040800  0.40845700  0.90601900  1
  O  O5  1  0.26042700  0.11915000  0.09403100  1
  O  O6  1  0.14268200  0.26311400  0.09402500  1
  O  O7  1  0.44833000  0.27647600  0.09403200  1
  O  O8  1  0.33058500  0.42043900  0.09402600  1
  O  O9  1  0.95600200  0.74322700  0.00000000  1
  O  O10  1  0.57583200  0.55839400  0.00004600  1
