# generated using pymatgen
data_Zn4H28C26O17
_symmetry_space_group_name_H-M   'P 1'
_cell_length_a   12.82789300
_cell_length_b   12.82789200
_cell_length_c   12.82788500
_cell_angle_alpha   89.96983400
_cell_angle_beta   89.98053800
_cell_angle_gamma   90.01555200
_symmetry_Int_Tables_number   1
_chemical_formula_structural   Zn4H28C26O17
_chemical_formula_sum   'Zn4 H28 C26 O17'
_cell_volume   2110.88989181
_cell_formula_units_Z   1
loop_
 _symmetry_equiv_pos_site_id
 _symmetry_equiv_pos_as_xyz
  1  'x, y, z'
loop_
 _atom_site_type_symbol
 _atom_site_label
 _atom_site_symmetry_multiplicity
 _atom_site_fract_x
 _atom_site_fract_y
 _atom_site_fract_z
 _atom_site_occupancy
  Zn  Zn1  1  0.59767200  0.58402400  0.40915300  1
  Zn  Zn2  1  0.59756500  0.40924600  0.58389300  1
  Zn  Zn3  1  0.42291200  0.58397200  0.58387900  1
  Zn  Zn4  1  0.42289800  0.40932400  0.40919300  1
  H  H1  1  0.62808300  0.10192300  0.37852700  1
  H  H2  1  0.94347900  0.44230100  0.55097000  1
  H  H3  1  0.67072100  0.87227700  0.10578500  1
  H  H4  1  0.77351100  0.87234400  0.20820600  1
  H  H5  1  0.67772600  0.76350200  0.20164000  1
  H  H6  1  0.62715900  0.99825000  0.25207600  1
  H  H7  1  0.53149300  0.88930800  0.24545100  1
  H  H8  1  0.45602300  0.44247800  0.92874600  1
  H  H9  1  0.41332100  0.95014200  0.82358200  1
  H  H10  1  0.40646800  0.05908000  0.72788300  1
  H  H11  1  0.31069400  0.95024800  0.72101700  1
  H  H12  1  0.55268900  0.93302000  0.68401700  1
  H  H13  1  0.45679600  0.82428900  0.67721100  1
  H  H14  1  0.62834800  0.61473500  0.89140800  1
  H  H15  1  0.45594300  0.06434900  0.55092800  1
  H  H16  1  0.62828600  0.61466800  0.10053400  1
  H  H17  1  0.45597400  0.44243700  0.06329200  1
  H  H18  1  0.11542700  0.61439000  0.37845200  1
  H  H19  1  0.96696700  0.80517300  0.18722800  1
  H  H20  1  0.85819700  0.70930700  0.18044000  1
  H  H21  1  0.85809900  0.81195300  0.28297200  1
  H  H22  1  0.02051200  0.62936500  0.26082200  1
  H  H23  1  0.02029200  0.73209000  0.36327300  1
  H  H24  1  0.89480800  0.23621900  0.52755900  1
  H  H25  1  0.00353700  0.24296400  0.62341300  1
  H  H26  1  0.89487800  0.33889800  0.63005200  1
  H  H27  1  0.05724100  0.31620900  0.44740000  1
  H  H28  1  0.94852400  0.41206600  0.45417600  1
  C  C1  1  0.23875200  0.49666100  0.49654900  1
  C  C2  1  0.12259900  0.49664400  0.49653300  1
  C  C3  1  0.07085300  0.56007200  0.43290700  1
  C  C4  1  0.95080200  0.56005600  0.43288900  1
  C  C5  1  0.51019600  0.22513200  0.49654900  1
  C  C6  1  0.51026400  0.10897800  0.49652200  1
  C  C7  1  0.57377000  0.05729600  0.43294300  1
  C  C8  1  0.57384100  0.93724600  0.43291400  1
  C  C9  1  0.78283200  0.49662100  0.49650900  1
  C  C10  1  0.89898500  0.49661300  0.49650000  1
  C  C11  1  0.51033400  0.49674300  0.22395900  1
  C  C12  1  0.51036500  0.49678600  0.10780600  1
  C  C13  1  0.51035600  0.76921200  0.49648700  1
  C  C14  1  0.51039600  0.88536500  0.49646900  1
  C  C15  1  0.57394100  0.56035400  0.93596200  1
  C  C16  1  0.57391000  0.56031100  0.05601300  1
  C  C17  1  0.51025000  0.49661600  0.76803900  1
  C  C18  1  0.51042200  0.49686700  0.88419200  1
  C  C19  1  0.68921100  0.85087000  0.19003700  1
  C  C20  1  0.61576700  0.91086900  0.26363700  1
  C  C21  1  0.39496600  0.97169400  0.73933800  1
  C  C22  1  0.46838900  0.91166100  0.66574300  1
  C  C23  1  0.90924700  0.75735300  0.23503300  1
  C  C24  1  0.96930800  0.68397900  0.30867700  1
  C  C25  1  0.94595200  0.29079500  0.57552400  1
  C  C26  1  0.00616500  0.36423100  0.50199200  1
  O  O1  1  0.51026200  0.49664100  0.49652900  1
  O  O2  1  0.74389300  0.56082900  0.43232100  1
  O  O3  1  0.57435800  0.43237000  0.73012700  1
  O  O4  1  0.44614500  0.73021500  0.56067900  1
  O  O5  1  0.74381500  0.43242000  0.56070200  1
  O  O6  1  0.57454000  0.73025300  0.43230800  1
  O  O7  1  0.44604200  0.56074000  0.73011700  1
  O  O8  1  0.27667400  0.56081500  0.56071800  1
  O  O9  1  0.44612100  0.43255200  0.26295200  1
  O  O10  1  0.27666400  0.43250200  0.43237700  1
  O  O11  1  0.57452600  0.56090400  0.26292200  1
  O  O12  1  0.57434500  0.26302000  0.56074100  1
  O  O13  1  0.44601800  0.26307700  0.43239000  1
  O  O14  1  0.63865100  0.88434300  0.36782500  1
  O  O15  1  0.44563600  0.93832500  0.56156100  1
  O  O16  1  0.89788400  0.62487500  0.36780000  1
  O  O17  1  0.06938500  0.43173000  0.56135600  1
