# generated using pymatgen
data_ZnH4C8NO4
_symmetry_space_group_name_H-M   'P 1'
_cell_length_a   9.06521800
_cell_length_b   10.65455000
_cell_length_c   9.73022300
_cell_angle_alpha   89.99897800
_cell_angle_beta   89.98634300
_cell_angle_gamma   84.75044100
_symmetry_Int_Tables_number   1
_chemical_formula_structural   ZnH4C8NO4
_chemical_formula_sum   'Zn2 H8 C16 N2 O8'
_cell_volume   935.85965176
_cell_formula_units_Z   2
loop_
 _symmetry_equiv_pos_site_id
 _symmetry_equiv_pos_as_xyz
  1  'x, y, z'
loop_
 _atom_site_type_symbol
 _atom_site_label
 _atom_site_symmetry_multiplicity
 _atom_site_fract_x
 _atom_site_fract_y
 _atom_site_fract_z
 _atom_site_occupancy
  Zn  Zn1  1  0.78290500  0.51405700  0.84935400  1
  Zn  Zn2  1  0.78288700  0.51403600  0.15051800  1
  H  H1  1  0.53560500  0.91958600  0.00000800  1
  H  H2  1  0.03018500  0.10851800  0.99985400  1
  H  H3  1  0.54301800  0.15729600  0.99996700  1
  H  H4  1  0.02279300  0.87078100  0.99989700  1
  H  H5  1  0.94675200  0.65406600  0.36934200  1
  H  H6  1  0.94679000  0.65409100  0.63035500  1
  H  H7  1  0.61905700  0.37401700  0.63054300  1
  H  H8  1  0.61901800  0.37396800  0.36950200  1
  C  C1  1  0.05255900  0.50794600  0.99989500  1
  C  C2  1  0.21637800  0.51228600  0.99987700  1
  C  C3  1  0.77447400  0.74355000  0.99995300  1
  C  C4  1  0.77881200  0.88301100  0.99996200  1
  C  C5  1  0.79131900  0.28454300  0.99992300  1
  C  C6  1  0.78698100  0.14508200  0.99992300  1
  C  C7  1  0.51323400  0.52014700  0.99994300  1
  C  C8  1  0.34941500  0.51580700  0.99985700  1
  C  C9  1  0.64659700  0.96197300  0.99998000  1
  C  C10  1  0.65068100  0.09301000  0.99995500  1
  C  C11  1  0.91920600  0.06611000  0.99990100  1
  C  C12  1  0.91512100  0.93507600  0.99991500  1
  C  C13  1  0.87321400  0.59121600  0.42794500  1
  C  C14  1  0.87323500  0.59123300  0.57182800  1
  C  C15  1  0.69258700  0.43685800  0.57191700  1
  C  C16  1  0.69257500  0.43683500  0.42803700  1
  N  N1  1  0.78291900  0.51406100  0.64381800  1
  N  N2  1  0.78288600  0.51402200  0.35605500  1
  O  O1  1  0.79276200  0.33133900  0.11421200  1
  O  O2  1  0.77301800  0.69673900  0.11424000  1
  O  O3  1  0.99757300  0.50648600  0.11419100  1
  O  O4  1  0.56820600  0.52159100  0.11426200  1
  O  O5  1  0.99758700  0.50650100  0.88561100  1
  O  O6  1  0.77303100  0.69675400  0.88566000  1
  O  O7  1  0.79277500  0.33135400  0.88563300  1
  O  O8  1  0.56822000  0.52160700  0.88568200  1
