# generated using pymatgen
data_ZnH4C12N(ClO2)2
_symmetry_space_group_name_H-M   'P 1'
_cell_length_a   10.65455000
_cell_length_b   15.18622900
_cell_length_c   10.65455000
_cell_angle_alpha   90.00082200
_cell_angle_beta   84.48492900
_cell_angle_gamma   90.00011600
_symmetry_Int_Tables_number   1
_chemical_formula_structural   ZnH4C12N(ClO2)2
_chemical_formula_sum   'Zn4 H16 C48 N4 Cl8 O16'
_cell_volume   1715.95198308
_cell_formula_units_Z   4
loop_
 _symmetry_equiv_pos_site_id
 _symmetry_equiv_pos_as_xyz
  1  'x, y, z'
loop_
 _atom_site_type_symbol
 _atom_site_label
 _atom_site_symmetry_multiplicity
 _atom_site_fract_x
 _atom_site_fract_y
 _atom_site_fract_z
 _atom_site_occupancy
  Zn  Zn1  1  0.48508500  0.90345400  0.18479700  1
  Zn  Zn2  1  0.98508500  0.40345400  0.68479700  1
  Zn  Zn3  1  0.48510200  0.09641800  0.18480100  1
  Zn  Zn4  1  0.98510200  0.59641800  0.68480100  1
  H  H1  1  0.07857400  0.99995500  0.39529400  1
  H  H2  1  0.57857400  0.49995500  0.89529400  1
  H  H3  1  0.33150900  0.41630400  0.33829600  1
  H  H4  1  0.83150900  0.91630400  0.83829600  1
  H  H5  1  0.48194000  0.85508000  0.56595800  1
  H  H6  1  0.98194000  0.35508000  0.06595800  1
  H  H7  1  0.48194200  0.14478100  0.56594500  1
  H  H8  1  0.98194200  0.64478100  0.06594500  1
  H  H9  1  0.12930900  0.99993600  0.98059900  1
  H  H10  1  0.62930900  0.49993600  0.48059900  1
  H  H11  1  0.33148500  0.58356000  0.33830200  1
  H  H12  1  0.83148500  0.08356000  0.83830200  1
  H  H13  1  0.48826500  0.14478800  0.80362400  1
  H  H14  1  0.98826500  0.64478800  0.30362400  1
  H  H15  1  0.89160200  0.99991000  0.97430700  1
  H  H16  1  0.39160200  0.49991000  0.47430700  1
  C  C1  1  0.25555600  0.99994600  0.19196800  1
  C  C2  1  0.75555600  0.49994600  0.69196800  1
  C  C3  1  0.11611300  0.99995200  0.18827600  1
  C  C4  1  0.61611300  0.49995200  0.68827600  1
  C  C5  1  0.03662800  0.99994900  0.30081800  1
  C  C6  1  0.53662800  0.49994900  0.80081800  1
  C  C7  1  0.90560700  0.99993400  0.29734100  1
  C  C8  1  0.40560700  0.49993400  0.79734100  1
  C  C9  1  0.93357000  0.99992800  0.06877200  1
  C  C10  1  0.43357000  0.49992800  0.56877200  1
  C  C11  1  0.06458800  0.99993700  0.07225000  1
  C  C12  1  0.56458800  0.49993700  0.57225000  1
  C  C13  1  0.56975000  0.54603500  0.10018500  1
  C  C14  1  0.06975000  0.04603500  0.60018500  1
  C  C15  1  0.56975400  0.45384500  0.10018200  1
  C  C16  1  0.06975400  0.95384500  0.60018200  1
  C  C17  1  0.40043800  0.45384300  0.26940700  1
  C  C18  1  0.90043800  0.95384300  0.76940700  1
  C  C19  1  0.40042900  0.54603100  0.26940300  1
  C  C20  1  0.90042900  0.04603100  0.76940300  1
  C  C21  1  0.48509200  0.59212500  0.18479300  1
  C  C22  1  0.98509200  0.09212500  0.68479300  1
  C  C23  1  0.48510500  0.40774700  0.18479500  1
  C  C24  1  0.98510500  0.90774700  0.68479500  1
  C  C25  1  0.48510900  0.30779100  0.18479200  1
  C  C26  1  0.98510900  0.80779100  0.68479200  1
  C  C27  1  0.48508700  0.69208700  0.18479400  1
  C  C28  1  0.98508700  0.19208700  0.68479400  1
  C  C29  1  0.71463100  0.99992800  0.17763000  1
  C  C30  1  0.21463100  0.49992800  0.67763000  1
  C  C31  1  0.85407400  0.99992700  0.18132200  1
  C  C32  1  0.35407400  0.49992700  0.68132200  1
  C  C33  1  0.49226300  0.99993800  0.95526200  1
  C  C34  1  0.99226300  0.49993800  0.45526200  1
  C  C35  1  0.48857100  0.99994400  0.81581900  1
  C  C36  1  0.98857100  0.49994400  0.31581900  1
  C  C37  1  0.48336100  0.07977200  0.61928000  1
  C  C38  1  0.98336100  0.57977200  0.11928000  1
  C  C39  1  0.48684300  0.07977700  0.75030000  1
  C  C40  1  0.98684300  0.57977700  0.25030000  1
  C  C41  1  0.48683000  0.92010100  0.75030900  1
  C  C42  1  0.98683000  0.42010100  0.25030900  1
  C  C43  1  0.48335700  0.92009700  0.61929000  1
  C  C44  1  0.98335700  0.42009700  0.11929000  1
  C  C45  1  0.47792500  0.99993500  0.41433600  1
  C  C46  1  0.97792500  0.49993500  0.91433600  1
  C  C47  1  0.48161600  0.99993500  0.55377900  1
  C  C48  1  0.98161600  0.49993500  0.05377900  1
  N  N1  1  0.48508300  0.77176100  0.18479400  1
  N  N2  1  0.98508300  0.27176100  0.68479400  1
  N  N3  1  0.48511400  0.22811000  0.18479400  1
  N  N4  1  0.98511400  0.72811000  0.68479400  1
  Cl  Cl1  1  0.80568700  0.99992900  0.43882900  1
  Cl  Cl2  1  0.30568700  0.49992900  0.93882900  1
  Cl  Cl3  1  0.67618200  0.39590700  0.99381000  1
  Cl  Cl4  1  0.17618200  0.89590700  0.49381000  1
  Cl  Cl5  1  0.67617800  0.60397800  0.99381400  1
  Cl  Cl6  1  0.17617800  0.10397800  0.49381400  1
  Cl  Cl7  1  0.48901000  0.81973900  0.83267500  1
  Cl  Cl8  1  0.98901000  0.31973900  0.33267500  1
  O  O1  1  0.66783900  0.07315700  0.17639700  1
  O  O2  1  0.16783900  0.57315700  0.67639700  1
  O  O3  1  0.30236100  0.07317200  0.19320300  1
  O  O4  1  0.80236100  0.57317200  0.69320300  1
  O  O5  1  0.49350300  0.07316500  0.00206100  1
  O  O6  1  0.99350300  0.57316500  0.50206100  1
  O  O7  1  0.47669700  0.07316400  0.36754000  1
  O  O8  1  0.97669700  0.57316400  0.86754000  1
  O  O9  1  0.49349000  0.92670700  0.00205800  1
  O  O10  1  0.99349000  0.42670700  0.50205800  1
  O  O11  1  0.30234800  0.92671500  0.19320100  1
  O  O12  1  0.80234800  0.42671500  0.69320100  1
  O  O13  1  0.66782600  0.92669900  0.17639500  1
  O  O14  1  0.16782600  0.42669900  0.67639500  1
  O  O15  1  0.47668400  0.92670700  0.36753700  1
  O  O16  1  0.97668400  0.42670700  0.86753700  1
