# generated using pymatgen
data_Zn4H12C36N4O13
_symmetry_space_group_name_H-M   'P 1'
_cell_length_a   14.90878200
_cell_length_b   14.90852000
_cell_length_c   12.75939300
_cell_angle_alpha   93.26360600
_cell_angle_beta   93.27906600
_cell_angle_gamma   89.83784200
_symmetry_Int_Tables_number   1
_chemical_formula_structural   Zn4H12C36N4O13
_chemical_formula_sum   'Zn4 H12 C36 N4 O13'
_cell_volume   2826.76779233
_cell_formula_units_Z   1
loop_
 _symmetry_equiv_pos_site_id
 _symmetry_equiv_pos_as_xyz
  1  'x, y, z'
loop_
 _atom_site_type_symbol
 _atom_site_label
 _atom_site_symmetry_multiplicity
 _atom_site_fract_x
 _atom_site_fract_y
 _atom_site_fract_z
 _atom_site_occupancy
  Zn  Zn1  1  0.35392900  0.56280900  0.46775200  1
  Zn  Zn2  1  0.34513900  0.41243200  0.63274800  1
  Zn  Zn3  1  0.20356300  0.57143600  0.63387700  1
  Zn  Zn4  1  0.19486500  0.42116500  0.44758400  1
  H  H1  1  0.76782600  0.62568700  0.39825500  1
  H  H2  1  0.39871600  0.82915100  0.69820600  1
  H  H3  1  0.93819800  0.61590400  0.40909100  1
  H  H4  1  0.38490400  0.59044500  0.95944600  1
  H  H5  1  0.16411700  0.39385400  0.93145600  1
  H  H6  1  0.35897500  0.14367400  0.64959800  1
  H  H7  1  0.78181800  0.35815300  0.69276000  1
  H  H8  1  0.18995300  0.84113600  0.44139100  1
  H  H9  1  0.40845300  0.99950800  0.71034400  1
  H  H10  1  0.62362200  0.57634200  0.45251600  1
  H  H11  1  0.16407000  0.39378700  0.13051700  1
  H  H12  1  0.61147200  0.36793800  0.68192100  1
  C  C1  1  0.04077200  0.50544900  0.53069600  1
  C  C2  1  0.94083400  0.51119800  0.52434100  1
  C  C3  1  0.74632400  0.40711400  0.63884200  1
  C  C4  1  0.65242400  0.41251200  0.63287400  1
  C  C5  1  0.65913200  0.52738800  0.50643000  1
  C  C6  1  0.75303200  0.52199000  0.51239900  1
  C  C7  1  0.79662500  0.46185200  0.57860800  1
  C  C8  1  0.89052700  0.45645800  0.58458200  1
  C  C9  1  0.89723300  0.57132900  0.45813300  1
  C  C10  1  0.80333300  0.57672700  0.45216400  1
  C  C11  1  0.26081000  0.25835100  0.52892100  1
  C  C12  1  0.25508900  0.15840700  0.52180300  1
  C  C13  1  0.35942300  0.96397500  0.64998300  1
  C  C14  1  0.35405000  0.87006800  0.64329900  1
  C  C15  1  0.23897800  0.87668500  0.50174400  1
  C  C16  1  0.24435000  0.97059200  0.50842900  1
  C  C17  1  0.30457300  0.01423300  0.58255200  1
  C  C18  1  0.30994000  0.10814200  0.58924100  1
  C  C19  1  0.19487300  0.11475700  0.44768300  1
  C  C20  1  0.18950100  0.02085000  0.44099800  1
  C  C21  1  0.50888800  0.47841900  0.56034200  1
  C  C22  1  0.60882400  0.47264800  0.56667100  1
  C  C23  1  0.27444600  0.49204300  0.27146800  1
  C  C24  1  0.27447700  0.49207800  0.15469500  1
  C  C25  1  0.28801600  0.72648200  0.56210300  1
  C  C26  1  0.29382900  0.82642000  0.56918300  1
  C  C27  1  0.33533300  0.54627400  0.10754800  1
  C  C28  1  0.33535000  0.54631200  0.99782700  1
  C  C29  1  0.21365300  0.43795100  0.98241100  1
  C  C30  1  0.21363200  0.43791800  0.09212900  1
  C  C31  1  0.27435700  0.49194100  0.81845600  1
  C  C32  1  0.27451600  0.49214900  0.93525600  1
  C  C33  1  0.12325400  0.97283400  0.35947200  1
  C  C34  1  0.13453500  0.17004900  0.37350300  1
  C  C35  1  0.40225600  0.60586000  0.17636700  1
  C  C36  1  0.93847700  0.39030300  0.65741000  1
  N  N1  1  0.07335100  0.93667000  0.29807000  1
  N  N2  1  0.08908800  0.21169600  0.31763500  1
  N  N3  1  0.45266200  0.65074500  0.22819900  1
  N  N4  1  0.97459100  0.34047100  0.71226400  1
  O  O1  1  0.27437400  0.49196100  0.54549100  1
  O  O2  1  0.47858200  0.53559600  0.49760700  1
  O  O3  1  0.32632000  0.43348000  0.77991400  1
  O  O4  1  0.23082800  0.69611400  0.62075300  1
  O  O5  1  0.47212400  0.42511500  0.61882900  1
  O  O6  1  0.34130200  0.68977600  0.49870200  1
  O  O7  1  0.22230500  0.55030000  0.78074300  1
  O  O8  1  0.07659000  0.55876800  0.60119700  1
  O  O9  1  0.21600400  0.43999900  0.30324400  1
  O  O10  1  0.07020000  0.44836400  0.46432900  1
  O  O11  1  0.33286800  0.54406400  0.31806200  1
  O  O12  1  0.31788600  0.28776900  0.59927300  1
  O  O13  1  0.20748000  0.29418500  0.46323400  1
