# generated using pymatgen
data_Zn4H62C60N4O13
_symmetry_space_group_name_H-M   'P 1'
_cell_length_a   19.07710500
_cell_length_b   12.75940000
_cell_length_c   19.07717400
_cell_angle_alpha   92.27531100
_cell_angle_beta   85.48375200
_cell_angle_gamma   87.71116800
_symmetry_Int_Tables_number   1
_chemical_formula_structural   Zn4H62C60N4O13
_chemical_formula_sum   'Zn4 H62 C60 N4 O13'
_cell_volume   4621.22855191
_cell_formula_units_Z   1
loop_
 _symmetry_equiv_pos_site_id
 _symmetry_equiv_pos_as_xyz
  1  'x, y, z'
loop_
 _atom_site_type_symbol
 _atom_site_label
 _atom_site_symmetry_multiplicity
 _atom_site_fract_x
 _atom_site_fract_y
 _atom_site_fract_z
 _atom_site_occupancy
  Zn  Zn1  1  0.09376600  0.48951800  0.55813700  1
  Zn  Zn2  1  0.08897000  0.32117900  0.67601900  1
  Zn  Zn3  1  0.97114900  0.50420400  0.68074000  1
  Zn  Zn4  1  0.97586400  0.32124800  0.56290100  1
  H  H1  1  0.29821200  0.51936500  0.69027300  1
  H  H2  1  0.23011900  0.16986500  0.81693200  1
  H  H3  1  0.21293800  0.14708100  0.73980300  1
  H  H4  1  0.15296600  0.15414400  0.79984500  1
  H  H5  1  0.25772400  0.00323400  0.78441300  1
  H  H6  1  0.19775700  0.01029200  0.84447100  1
  H  H7  1  0.44485900  0.55928000  0.79743000  1
  H  H8  1  0.37174400  0.52635900  0.77628700  1
  H  H9  1  0.43276000  0.44259900  0.77779700  1
  H  H10  1  0.43009400  0.60102100  0.68742500  1
  H  H11  1  0.49112600  0.51727000  0.68893300  1
  H  H12  1  0.19769300  0.81004200  0.78431300  1
  H  H13  1  0.93463200  0.56135300  0.02463600  1
  H  H14  1  0.76737500  0.29864600  0.54857800  1
  H  H15  1  0.13044100  0.25702900  0.21353500  1
  H  H16  1  0.94002500  0.55306400  0.89106600  1
  H  H17  1  0.76078400  0.55297900  0.71187600  1
  H  H18  1  0.51630800  0.11942900  0.51498000  1
  H  H19  1  0.52146700  0.20826300  0.57202500  1
  H  H20  1  0.46011500  0.13212500  0.57843000  1
  H  H21  1  0.47936800  0.27251600  0.47647800  1
  H  H22  1  0.41801300  0.19636700  0.48286700  1
  H  H23  1  0.19831400  0.21903900  0.49740900  1
  H  H24  1  0.20807100  0.25345500  0.57481900  1
  H  H25  1  0.21043000  0.33571400  0.51704400  1
  H  H26  1  0.30646400  0.17504700  0.52448200  1
  H  H27  1  0.30882800  0.25729600  0.46669100  1
  H  H28  1  0.16637400  0.56819100  0.75289900  1
  H  H29  1  0.21230800  0.66393700  0.73885700  1
  H  H30  1  0.15234300  0.67101500  0.79890700  1
  H  H31  1  0.13319000  0.65086500  0.65984800  1
  H  H32  1  0.07321200  0.65792700  0.71989500  1
  H  H33  1  0.11901000  0.10864000  0.70594500  1
  H  H34  1  0.62721300  0.56130500  0.71722000  1
  H  H35  1  0.85437800  0.55915300  0.20699700  1
  H  H36  1  0.87411400  0.44250000  0.21909400  1
  H  H37  1  0.87554400  0.52624400  0.28011700  1
  H  H38  1  0.96290900  0.51731000  0.16074500  1
  H  H39  1  0.96434200  0.60107800  0.22176300  1
  H  H40  1  0.92326800  0.57875700  0.46287500  1
  H  H41  1  0.94403700  0.46050400  0.44916100  1
  H  H42  1  0.00174400  0.54285200  0.44682400  1
  H  H43  1  0.90138000  0.52680300  0.35450700  1
  H  H44  1  0.95908100  0.60917500  0.35216700  1
  H  H45  1  0.95388800  0.00909900  0.54100000  1
  H  H46  1  0.10355700  0.29901600  0.88452200  1
  H  H47  1  0.18167200  0.17765900  0.00236700  1
  H  H48  1  0.12252100  0.18355500  0.95114400  1
  H  H49  1  0.18021000  0.26593000  0.94880300  1
  H  H50  1  0.08246100  0.24569200  0.05786700  1
  H  H51  1  0.14015700  0.32807000  0.05554200  1
  H  H52  1  0.92142800  0.64927500  0.50841800  1
  H  H53  1  0.99858300  0.66498700  0.52549100  1
  H  H54  1  0.93862300  0.67207400  0.58554500  1
  H  H55  1  0.95381400  0.80882800  0.48085800  1
  H  H56  1  0.89383900  0.81592100  0.54090700  1
  H  H57  1  0.20854000  0.13564100  0.33140200  1
  H  H58  1  0.14939900  0.14156200  0.28017000  1
  H  H59  1  0.20710200  0.22391400  0.27783900  1
  H  H60  1  0.10933300  0.20370800  0.38688900  1
  H  H61  1  0.16704300  0.28606400  0.38457300  1
  H  H62  1  0.63381600  0.30698600  0.55392000  1
  C  C1  1  0.84927700  0.42050200  0.62681900  1
  C  C2  1  0.77092100  0.42538000  0.62995500  1
  C  C3  1  0.73592800  0.35759100  0.58642400  1
  C  C4  1  0.66230400  0.36218800  0.58936700  1
  C  C5  1  0.62367400  0.43457000  0.63584600  1
  C  C6  1  0.65867200  0.50236600  0.67937900  1
  C  C7  1  0.73229400  0.49777300  0.67643100  1
  C  C8  1  0.40329100  0.45582600  0.64948300  1
  C  C9  1  0.32966300  0.46041200  0.65242900  1
  C  C10  1  0.33333333  0.32023400  0.56241600  1
  C  C11  1  0.40692400  0.31564400  0.55947500  1
  C  C12  1  0.44191500  0.38344300  0.60300600  1
  C  C13  1  0.03239500  0.13607400  0.61946600  1
  C  C14  1  0.03244200  0.01929300  0.61944600  1
  C  C15  1  0.07576400  0.96443300  0.66266900  1
  C  C16  1  0.07580800  0.85470500  0.66264500  1
  C  C17  1  0.98920300  0.85470600  0.57617600  1
  C  C18  1  0.98916300  0.96443200  0.57619600  1
  C  C19  1  0.11904300  0.01929400  0.70591900  1
  C  C20  1  0.16236700  0.96443400  0.74914500  1
  C  C21  1  0.16241100  0.85470600  0.74912200  1
  C  C22  1  0.11913100  0.79983800  0.70587200  1
  C  C23  1  0.21631300  0.39752700  0.61205000  1
  C  C24  1  0.29467000  0.39262300  0.60889700  1
  C  C25  1  0.03985600  0.39763500  0.43557500  1
  C  C26  1  0.04301800  0.39277600  0.35721900  1
  C  C27  1  0.03250000  0.68306500  0.61941700  1
  C  C28  1  0.03252600  0.79983900  0.61940300  1
  C  C29  1  0.99943600  0.46050200  0.32221300  1
  C  C30  1  0.00240400  0.45592700  0.24859000  1
  C  C31  1  0.04895700  0.38363200  0.20997200  1
  C  C32  1  0.09254000  0.31589900  0.24498300  1
  C  C33  1  0.08956900  0.32046800  0.31860500  1
  C  C34  1  0.06267500  0.36245200  0.98959000  1
  C  C35  1  0.06564500  0.35789000  0.91596200  1
  C  C36  1  0.97550700  0.49791800  0.91957400  1
  C  C37  1  0.97254200  0.50248500  0.99319800  1
  C  C38  1  0.01612300  0.43474900  0.02820200  1
  C  C39  1  0.02508800  0.42046900  0.80260600  1
  C  C40  1  0.02206300  0.42561500  0.88095700  1
  C  C41  1  0.20075100  0.13263800  0.78758000  1
  C  C42  1  0.20993900  0.02474100  0.79668300  1
  C  C43  1  0.42111400  0.51327300  0.76788800  1
  C  C44  1  0.44174400  0.53034900  0.69733500  1
  C  C45  1  0.49009500  0.16854600  0.54652400  1
  C  C46  1  0.44938800  0.23608900  0.50838000  1
  C  C47  1  0.22205700  0.26503700  0.52695900  1
  C  C48  1  0.29483600  0.24572200  0.51456200  1
  C  C49  1  0.16634900  0.64265200  0.75291300  1
  C  C50  1  0.11918100  0.67922200  0.70584400  1
  C  C51  1  0.88395800  0.51318100  0.23074100  1
  C  C52  1  0.95449400  0.53038000  0.21012100  1
  C  C53  1  0.95485900  0.52968900  0.43667300  1
  C  C54  1  0.94826400  0.53997300  0.36465900  1
  C  C55  1  0.15208400  0.22360700  0.97861300  1
  C  C56  1  0.11059000  0.28801400  0.02806000  1
  C  C57  1  0.95080600  0.68650300  0.53775800  1
  C  C58  1  0.94162600  0.79439800  0.52864500  1
  C  C59  1  0.17896500  0.18160100  0.30764500  1
  C  C60  1  0.13747400  0.24602100  0.35708600  1
  N  N1  1  0.54841800  0.43926800  0.63885700  1
  N  N2  1  0.51717000  0.37874900  0.59999100  1
  N  N3  1  0.05199300  0.37895700  0.13471700  1
  N  N4  1  0.01308200  0.43941900  0.10345700  1
  O  O1  1  0.03243700  0.40903700  0.61944900  1
  O  O2  1  0.19178000  0.46101200  0.56980500  1
  O  O3  1  0.06936100  0.35157600  0.77529500  1
  O  O4  1  0.98744800  0.64927400  0.66445900  1
  O  O5  1  0.18825700  0.33733500  0.65641200  1
  O  O6  1  0.07753400  0.63848400  0.57438300  1
  O  O7  1  0.98279800  0.48604300  0.77876400  1
  O  O8  1  0.87312400  0.48611000  0.66907800  1
  O  O9  1  0.99548400  0.33745200  0.46361900  1
  O  O10  1  0.87658800  0.35169300  0.58250200  1
  O  O11  1  0.08210600  0.46107900  0.46011900  1
  O  O12  1  0.07393300  0.17417100  0.66103100  1
  O  O13  1  0.99083500  0.17422100  0.57792400  1
