# generated using pymatgen
data_Zn2H18C30N2O17
_symmetry_space_group_name_H-M   'P 1'
_cell_length_a   10.65455300
_cell_length_b   11.89211300
_cell_length_c   12.83793200
_cell_angle_alpha   86.04237700
_cell_angle_beta   90.34205900
_cell_angle_gamma   94.33406900
_symmetry_Int_Tables_number   1
_chemical_formula_structural   Zn2H18C30N2O17
_chemical_formula_sum   'Zn2 H18 C30 N2 O17'
_cell_volume   1618.11222973
_cell_formula_units_Z   1
loop_
 _symmetry_equiv_pos_site_id
 _symmetry_equiv_pos_as_xyz
  1  'x, y, z'
loop_
 _atom_site_type_symbol
 _atom_site_label
 _atom_site_symmetry_multiplicity
 _atom_site_fract_x
 _atom_site_fract_y
 _atom_site_fract_z
 _atom_site_occupancy
  Zn  Zn1  1  0.49136400  0.87615000  0.85519100  1
  Zn  Zn2  1  0.51214400  0.12385800  0.83945600  1
  H  H1  1  0.87527700  0.73374700  0.79398600  1
  H  H2  1  0.08362400  0.74245800  0.78658400  1
  H  H3  1  0.06653300  0.76329100  0.02719500  1
  H  H4  1  0.32429900  0.69607200  0.98184900  1
  H  H5  1  0.18692700  0.07662100  0.13429500  1
  H  H6  1  0.29006900  0.07661000  0.56668200  1
  H  H7  1  0.69716400  0.51863700  0.69915700  1
  H  H8  1  0.70041000  0.00003400  0.08557400  1
  H  H9  1  0.13650300  0.18594000  0.83289400  1
  H  H10  1  0.29868100  0.34922500  0.00132700  1
  H  H11  1  0.76571600  0.00001100  0.35700300  1
  H  H12  1  0.87663700  0.74247200  0.94079800  1
  H  H13  1  0.77077200  0.07663300  0.61572300  1
  H  H14  1  0.95685100  0.28430100  0.83080200  1
  H  H15  1  0.62824500  0.69612600  0.75139200  1
  H  H16  1  0.76338500  0.34934500  0.64896600  1
  H  H17  1  0.21678200  0.41180600  0.96747900  1
  H  H18  1  0.23778200  0.99999000  0.33762700  1
  C  C1  1  0.27286300  0.00000300  0.84140300  1
  C  C2  1  0.13308700  0.00000300  0.84445500  1
  C  C3  1  0.92748000  0.89752800  0.85527100  1
  C  C4  1  0.05881400  0.89752200  0.85239900  1
  C  C5  1  0.07602000  0.10249800  0.83937200  1
  C  C6  1  0.94468800  0.10250300  0.84223700  1
  C  C7  1  0.91754800  0.77918700  0.86279600  1
  C  C8  1  0.04888200  0.77918000  0.85992400  1
  C  C9  1  0.62493700  0.47044700  0.75394300  1
  C  C10  1  0.61504000  0.35210500  0.76145900  1
  C  C11  1  0.44750500  0.35206900  0.88848200  1
  C  C12  1  0.45740300  0.47041000  0.88096700  1
  C  C13  1  0.54612100  0.52959600  0.81369400  1
  C  C14  1  0.55601100  0.64794000  0.80617300  1
  C  C15  1  0.38848400  0.64790100  0.93320200  1
  C  C16  1  0.37858600  0.52955900  0.94071700  1
  C  C17  1  0.73064500  0.00000700  0.85324400  1
  C  C18  1  0.87042200  0.00001500  0.85019200  1
  C  C19  1  0.48822900  0.00000800  0.03694400  1
  C  C20  1  0.47196700  0.00001500  0.15213800  1
  C  C21  1  0.51527800  0.00000300  0.65770300  1
  C  C22  1  0.53154200  0.00000300  0.54250900  1
  C  C23  1  0.33603500  0.00001300  0.30295900  1
  C  C24  1  0.35130800  0.00001500  0.19472300  1
  C  C25  1  0.57736000  0.00001700  0.21779700  1
  C  C26  1  0.56208700  0.00001500  0.32603400  1
  C  C27  1  0.44142100  0.00001100  0.36861000  1
  C  C28  1  0.42614800  0.00000100  0.47684900  1
  C  C29  1  0.65220000  0.00001100  0.49992100  1
  C  C30  1  0.66747300  0.00001300  0.39168500  1
  N  N1  1  0.47719100  0.70709600  0.86593100  1
  N  N2  1  0.52632500  0.29291200  0.82872500  1
  O  O1  1  0.69162100  0.09400800  0.84829200  1
  O  O2  1  0.32765800  0.09400700  0.83441200  1
  O  O3  1  0.50156800  0.09400900  0.99231300  1
  O  O4  1  0.51771100  0.09400700  0.69039100  1
  O  O5  1  0.48579600  0.90600100  0.00425600  1
  O  O6  1  0.31188600  0.90600000  0.84635500  1
  O  O7  1  0.67585000  0.90600100  0.86023500  1
  O  O8  1  0.50194000  0.90600000  0.70233400  1
  O  O9  1  0.09479900  0.71900300  0.95871700  1
  O  O10  1  0.23763900  0.00000000  0.12391500  1
  O  O11  1  0.29600600  0.99998900  0.52277700  1
  O  O12  1  0.70750100  0.00003200  0.17186700  1
  O  O13  1  0.35182600  0.28821700  0.96103300  1
  O  O14  1  0.76588100  0.00000400  0.57072600  1
  O  O15  1  0.88314100  0.21304000  0.83679000  1
  O  O16  1  0.70004100  0.28830400  0.69701000  1
  O  O17  1  0.28290000  0.46573000  0.01327700  1
