# generated using pymatgen
data_Zn4H24C50O13
_symmetry_space_group_name_H-M   'P 1'
_cell_length_a   16.95945400
_cell_length_b   12.75939500
_cell_length_c   12.75939500
_cell_angle_alpha   89.99487700
_cell_angle_beta   90.00840800
_cell_angle_gamma   89.97838800
_symmetry_Int_Tables_number   1
_chemical_formula_structural   Zn4H24C50O13
_chemical_formula_sum   'Zn8 H48 C100 O26'
_cell_volume   2761.03551941
_cell_formula_units_Z   2
loop_
 _symmetry_equiv_pos_site_id
 _symmetry_equiv_pos_as_xyz
  1  'x, y, z'
loop_
 _atom_site_type_symbol
 _atom_site_label
 _atom_site_symmetry_multiplicity
 _atom_site_fract_x
 _atom_site_fract_y
 _atom_site_fract_z
 _atom_site_occupancy
  Zn  Zn1  1  0.68522300  0.39393000  0.59401000  1
  Zn  Zn2  1  0.18522300  0.89393000  0.09401000  1
  Zn  Zn3  1  0.55307300  0.39400900  0.41833300  1
  Zn  Zn4  1  0.05307300  0.89400900  0.91833300  1
  Zn  Zn5  1  0.68523000  0.56958500  0.41834700  1
  Zn  Zn6  1  0.18523000  0.06958500  0.91834700  1
  Zn  Zn7  1  0.55308000  0.56965600  0.59397200  1
  Zn  Zn8  1  0.05308000  0.06965600  0.09397200  1
  H  H1  1  0.31821200  0.60382300  0.62797700  1
  H  H2  1  0.81821200  0.10382300  0.12797700  1
  H  H3  1  0.31830300  0.35983200  0.38437500  1
  H  H4  1  0.81830300  0.85983200  0.88437500  1
  H  H5  1  0.51787900  0.78221400  0.64029500  1
  H  H6  1  0.01787900  0.28221400  0.14029500  1
  H  H7  1  0.19437300  0.67100800  0.69511600  1
  H  H8  1  0.69437300  0.17100800  0.19511600  1
  H  H9  1  0.42601900  0.88174900  0.76198700  1
  H  H10  1  0.92601900  0.38174900  0.26198700  1
  H  H11  1  0.42636800  0.73823000  0.10614800  1
  H  H12  1  0.92636800  0.23823000  0.60614800  1
  H  H13  1  0.04459600  0.67092500  0.69513700  1
  H  H14  1  0.54459600  0.17092500  0.19513700  1
  H  H15  1  0.92079500  0.60362200  0.62802100  1
  H  H16  1  0.42079500  0.10362200  0.12802100  1
  H  H17  1  0.72040300  0.18031300  0.37207100  1
  H  H18  1  0.22040300  0.68031300  0.87207100  1
  H  H19  1  0.42637100  0.73823200  0.90708000  1
  H  H20  1  0.92637100  0.23823200  0.40708000  1
  H  H21  1  0.51806500  0.61627000  0.20571600  1
  H  H22  1  0.01806500  0.11627000  0.70571600  1
  H  H23  1  0.92089100  0.35964800  0.38443000  1
  H  H24  1  0.42089100  0.85964800  0.88443000  1
  H  H25  1  0.42600500  0.08081900  0.76201700  1
  H  H26  1  0.92600500  0.58081900  0.26201700  1
  H  H27  1  0.19450200  0.29251900  0.31725100  1
  H  H28  1  0.69450200  0.79251900  0.81725100  1
  H  H29  1  0.04473800  0.29246800  0.31727800  1
  H  H30  1  0.54473800  0.79246800  0.81727800  1
  H  H31  1  0.81227300  0.08077500  0.25037500  1
  H  H32  1  0.31227300  0.58077500  0.75037500  1
  H  H33  1  0.51786500  0.18034200  0.64035300  1
  H  H34  1  0.01786500  0.68034200  0.14035300  1
  H  H35  1  0.81229500  0.88170700  0.25034700  1
  H  H36  1  0.31229500  0.38170700  0.75034700  1
  H  H37  1  0.72041900  0.78218500  0.37201800  1
  H  H38  1  0.22041900  0.28218500  0.87201800  1
  H  H39  1  0.72024000  0.34736400  0.20581100  1
  H  H40  1  0.22024000  0.84736400  0.70581100  1
  H  H41  1  0.72023900  0.34732100  0.80768300  1
  H  H42  1  0.22023900  0.84732100  0.30768300  1
  H  H43  1  0.81193500  0.22537700  0.90724800  1
  H  H44  1  0.31193500  0.72537700  0.40724800  1
  H  H45  1  0.81193700  0.22538900  0.10631900  1
  H  H46  1  0.31193700  0.72538900  0.60631900  1
  H  H47  1  0.51806800  0.61622900  0.80758800  1
  H  H48  1  0.01806800  0.11622900  0.30758800  1
  C  C1  1  0.41378500  0.48188300  0.50614700  1
  C  C2  1  0.91378500  0.98188300  0.00614700  1
  C  C3  1  0.32592900  0.48182500  0.50617500  1
  C  C4  1  0.82592900  0.98182500  0.00617500  1
  C  C5  1  0.61916100  0.75476200  0.50614700  1
  C  C6  1  0.11916100  0.25476200  0.00614700  1
  C  C7  1  0.61914600  0.87153900  0.50616400  1
  C  C8  1  0.11914600  0.37153900  0.00616400  1
  C  C9  1  0.61915100  0.48178900  0.78019900  1
  C  C10  1  0.11915100  0.98178900  0.28019900  1
  C  C11  1  0.61915100  0.48178700  0.89697500  1
  C  C12  1  0.11915100  0.98178700  0.39697500  1
  C  C13  1  0.95442600  0.54889200  0.57335000  1
  C  C14  1  0.45442600  0.04889200  0.07335000  1
  C  C15  1  0.95448100  0.41440500  0.43908800  1
  C  C16  1  0.45448100  0.91440500  0.93908800  1
  C  C17  1  0.03702700  0.41444200  0.43907800  1
  C  C18  1  0.53702700  0.91444200  0.93907800  1
  C  C19  1  0.07827600  0.48170600  0.50620400  1
  C  C20  1  0.57827600  0.98170600  0.00620400  1
  C  C21  1  0.03697900  0.54893300  0.57334000  1
  C  C22  1  0.53697900  0.04893300  0.07334000  1
  C  C23  1  0.07833000  0.34722300  0.37193600  1
  C  C24  1  0.57833000  0.84722300  0.87193600  1
  C  C25  1  0.16088100  0.34725800  0.37192300  1
  C  C26  1  0.66088100  0.84725800  0.87192300  1
  C  C27  1  0.20213100  0.41451700  0.43905500  1
  C  C28  1  0.70213100  0.91451700  0.93905500  1
  C  C29  1  0.16082900  0.48174700  0.50619400  1
  C  C30  1  0.66082900  0.98174700  0.00619400  1
  C  C31  1  0.20207900  0.54901100  0.57332000  1
  C  C32  1  0.70207900  0.04901100  0.07332000  1
  C  C33  1  0.16077800  0.61623600  0.64046600  1
  C  C34  1  0.66077800  0.11623600  0.14046600  1
  C  C35  1  0.07823000  0.61619300  0.64047200  1
  C  C36  1  0.57823000  0.11619300  0.14047200  1
  C  C37  1  0.28468000  0.41456000  0.43904900  1
  C  C38  1  0.78468000  0.91456000  0.93904900  1
  C  C39  1  0.28463200  0.54905200  0.57331100  1
  C  C40  1  0.78463200  0.04905200  0.07331100  1
  C  C41  1  0.82532000  0.48167800  0.50620600  1
  C  C42  1  0.32532000  0.98167800  0.00620600  1
  C  C43  1  0.91317700  0.48162800  0.50622400  1
  C  C44  1  0.41317700  0.98162800  0.00622400  1
  C  C45  1  0.61914100  0.20776200  0.50618400  1
  C  C46  1  0.11914100  0.70776200  0.00618400  1
  C  C47  1  0.61913700  0.09098500  0.50619200  1
  C  C48  1  0.11913700  0.59098500  0.00619200  1
  C  C49  1  0.51788200  0.87155500  0.64030700  1
  C  C50  1  0.01788200  0.37155500  0.14030700  1
  C  C51  1  0.46724400  0.92642400  0.70738100  1
  C  C52  1  0.96724400  0.42642400  0.20738100  1
  C  C53  1  0.46723500  0.03614500  0.70739400  1
  C  C54  1  0.96723500  0.53614500  0.20739400  1
  C  C55  1  0.51787000  0.09100100  0.64032700  1
  C  C56  1  0.01787000  0.59100100  0.14032700  1
  C  C57  1  0.56850900  0.03613200  0.57325300  1
  C  C58  1  0.06850900  0.53613200  0.07325300  1
  C  C59  1  0.56851100  0.92640800  0.57324500  1
  C  C60  1  0.06851100  0.42640800  0.07324500  1
  C  C61  1  0.66977500  0.03611600  0.43911800  1
  C  C62  1  0.16977500  0.53611600  0.93911800  1
  C  C63  1  0.66978200  0.92639400  0.43909800  1
  C  C64  1  0.16978200  0.42639400  0.93909800  1
  C  C65  1  0.72041100  0.09097100  0.37205200  1
  C  C66  1  0.22041100  0.59097100  0.87205200  1
  C  C67  1  0.77104600  0.03610300  0.30497000  1
  C  C68  1  0.27104600  0.53610300  0.80497000  1
  C  C69  1  0.77105300  0.92637400  0.30495900  1
  C  C70  1  0.27105300  0.42637400  0.80495900  1
  C  C71  1  0.72042000  0.87152600  0.37202400  1
  C  C72  1  0.22042000  0.37152600  0.87202400  1
  C  C73  1  0.72023900  0.34734100  0.89702400  1
  C  C74  1  0.22023900  0.84734100  0.39702400  1
  C  C75  1  0.77078000  0.28011800  0.95191000  1
  C  C76  1  0.27078000  0.78011800  0.45191000  1
  C  C77  1  0.77077800  0.28012100  0.06163100  1
  C  C78  1  0.27077800  0.78012100  0.56163100  1
  C  C79  1  0.72023100  0.34735800  0.11647000  1
  C  C80  1  0.22023100  0.84735800  0.61647000  1
  C  C81  1  0.66969000  0.41458100  0.06158500  1
  C  C82  1  0.16969000  0.91458100  0.56158500  1
  C  C83  1  0.66969700  0.41456700  0.95186100  1
  C  C84  1  0.16969700  0.91456700  0.45186100  1
  C  C85  1  0.56860700  0.54903100  0.06153600  1
  C  C86  1  0.06860700  0.04903100  0.56153600  1
  C  C87  1  0.56860400  0.54902300  0.95181400  1
  C  C88  1  0.06860400  0.04902300  0.45181400  1
  C  C89  1  0.51806000  0.61626700  0.11637500  1
  C  C90  1  0.01806000  0.11626700  0.61637500  1
  C  C91  1  0.46751500  0.68348700  0.06148900  1
  C  C92  1  0.96751500  0.18348700  0.56148900  1
  C  C93  1  0.46751800  0.68347900  0.95176100  1
  C  C94  1  0.96751800  0.18347900  0.45176100  1
  C  C95  1  0.51806400  0.61624600  0.89692900  1
  C  C96  1  0.01806400  0.11624600  0.39692900  1
  C  C97  1  0.61913800  0.48180800  0.23319800  1
  C  C98  1  0.11913800  0.98180800  0.73319800  1
  C  C99  1  0.61914700  0.48180800  0.11642100  1
  C  C100  1  0.11914700  0.98180800  0.61642100  1
  O  O1  1  0.61915200  0.48179500  0.50616500  1
  O  O2  1  0.11915200  0.98179500  0.00616500  1
  O  O3  1  0.66768800  0.24691900  0.57071600  1
  O  O4  1  0.16768800  0.74691900  0.07071600  1
  O  O5  1  0.57060500  0.41730200  0.27131300  1
  O  O6  1  0.07060500  0.91730200  0.77131300  1
  O  O7  1  0.79584000  0.54622100  0.44167100  1
  O  O8  1  0.29584000  0.04622100  0.94167100  1
  O  O9  1  0.57059800  0.24697700  0.44164700  1
  O  O10  1  0.07059800  0.74697700  0.94164700  1
  O  O11  1  0.79583500  0.41716800  0.57073000  1
  O  O12  1  0.29583500  0.91716800  0.07073000  1
  O  O13  1  0.66770000  0.54629700  0.27132400  1
  O  O14  1  0.16770000  0.04629700  0.77132400  1
  O  O15  1  0.66770600  0.71661500  0.44163400  1
  O  O16  1  0.16770600  0.21661500  0.94163400  1
  O  O17  1  0.57060800  0.54634300  0.74099800  1
  O  O18  1  0.07060800  0.04634300  0.24099800  1
  O  O19  1  0.57061500  0.71666800  0.57066500  1
  O  O20  1  0.07061500  0.21666800  0.07066500  1
  O  O21  1  0.66769400  0.41723700  0.74102600  1
  O  O22  1  0.16769400  0.91723700  0.24102600  1
  O  O23  1  0.44246300  0.41737200  0.44161000  1
  O  O24  1  0.94246300  0.91737200  0.94161000  1
  O  O25  1  0.44246800  0.54641900  0.57065100  1
  O  O26  1  0.94246800  0.04641900  0.07065100  1
