# generated using pymatgen
data_CuH22C21N9O4
_symmetry_space_group_name_H-M   'P 1'
_cell_length_a   19.28886400
_cell_length_b   11.02660700
_cell_length_c   17.76627700
_cell_angle_alpha   89.99691500
_cell_angle_beta   89.97679100
_cell_angle_gamma   95.86113100
_symmetry_Int_Tables_number   1
_chemical_formula_structural   CuH22C21N9O4
_chemical_formula_sum   'Cu2 H44 C42 N18 O8'
_cell_volume   3758.96802712
_cell_formula_units_Z   2
loop_
 _symmetry_equiv_pos_site_id
 _symmetry_equiv_pos_as_xyz
  1  'x, y, z'
loop_
 _atom_site_type_symbol
 _atom_site_label
 _atom_site_symmetry_multiplicity
 _atom_site_fract_x
 _atom_site_fract_y
 _atom_site_fract_z
 _atom_site_occupancy
  Cu  Cu1  1  0.84068200  0.16147300  0.07380600  1
  Cu  Cu2  1  0.84070500  0.16148400  0.92575600  1
  H  H1  1  0.50898400  0.36602900  0.99979800  1
  H  H2  1  0.71459900  0.70089700  0.95340200  1
  H  H3  1  0.71463400  0.70094100  0.04624800  1
  H  H4  1  0.65881600  0.93523600  0.95344700  1
  H  H5  1  0.65873200  0.93529900  0.04629200  1
  H  H6  1  0.93850800  0.55740600  0.99969400  1
  H  H7  1  0.83164100  0.94857800  0.63758100  1
  H  H8  1  0.78601900  0.88148000  0.56793300  1
  H  H9  1  0.25428900  0.37195800  0.99974900  1
  H  H10  1  0.19331000  0.43535500  0.95333100  1
  H  H11  1  0.90705000  0.77062300  0.99976700  1
  H  H12  1  0.75309100  0.44754400  0.99978900  1
  H  H13  1  0.73196800  0.56801000  0.04620600  1
  H  H14  1  0.39362900  0.39214800  0.11873300  1
  H  H15  1  0.45290100  0.29551900  0.12841900  1
  H  H16  1  0.94074100  0.93727100  0.21171500  1
  H  H17  1  0.88408500  0.93613900  0.14213400  1
  H  H18  1  0.90762300  0.01148500  0.32818500  1
  H  H19  1  0.28241800  0.31339700  0.07933500  1
  H  H20  1  0.82793400  0.86182400  0.45481300  1
  H  H21  1  0.78785500  0.92492900  0.38522400  1
  H  H22  1  0.09005700  0.45443200  0.99978700  1
  H  H23  1  0.02259000  0.38765200  0.95337500  1
  H  H24  1  0.28776900  0.93080200  0.88081600  1
  H  H25  1  0.22361000  0.93081100  0.94222900  1
  H  H26  1  0.17240200  0.95692200  0.99975400  1
  H  H27  1  0.39896700  0.00955600  0.92020300  1
  H  H28  1  0.90765600  0.01149600  0.67131700  1
  H  H29  1  0.70262600  0.38340000  0.99984400  1
  H  H30  1  0.64165100  0.44679400  0.95341700  1
  H  H31  1  0.77372000  0.31144700  0.18528600  1
  H  H32  1  0.90765500  0.01149000  0.81427400  1
  H  H33  1  0.97876600  0.93954800  0.99972500  1
  H  H34  1  0.03979300  0.87615900  0.95333100  1
  H  H35  1  0.42710400  0.95099400  0.99981000  1
  H  H36  1  0.48813200  0.88760000  0.95342100  1
  H  H37  1  0.71301400  0.31956600  0.81106100  1
  H  H38  1  0.76968500  0.32073500  0.88063000  1
  H  H39  1  0.74064600  0.38568500  0.69788800  1
  H  H40  1  0.79728700  0.38680500  0.62824300  1
  H  H41  1  0.84925000  0.36194600  0.57124100  1
  H  H42  1  0.84922300  0.36194300  0.42828900  1
  H  H43  1  0.76959200  0.32076800  0.39455600  1
  H  H44  1  0.78275500  0.41930000  0.32487100  1
  C  C1  1  0.71489700  0.17102500  0.99981300  1
  C  C2  1  0.63754400  0.16905400  0.99983300  1
  C  C3  1  0.60674600  0.27864000  0.99981700  1
  C  C4  1  0.53406400  0.27678800  0.99980900  1
  C  C5  1  0.49218200  0.16534400  0.99980200  1
  C  C6  1  0.52298800  0.05574400  0.99982200  1
  C  C7  1  0.59566900  0.05759900  0.99983800  1
  C  C8  1  0.37281600  0.07774000  0.95592100  1
  C  C9  1  0.30013700  0.07589000  0.95590000  1
  C  C10  1  0.26801100  0.15961800  0.99975600  1
  C  C11  1  0.30857300  0.24521800  0.04362300  1
  C  C12  1  0.38125400  0.24707300  0.04363900  1
  C  C13  1  0.41337200  0.16332000  0.99978500  1
  C  C14  1  0.15840300  0.26720400  0.99973200  1
  C  C15  1  0.08572000  0.26534700  0.99972900  1
  C  C16  1  0.07464500  0.04430000  0.99973400  1
  C  C17  1  0.14732700  0.04615900  0.99974500  1
  C  C18  1  0.18920200  0.15761500  0.99974100  1
  C  C19  1  0.81803900  0.93973800  0.99978900  1
  C  C20  1  0.79983700  0.80512400  0.99979100  1
  C  C21  1  0.85009500  0.73104300  0.99977700  1
  C  C22  1  0.83128400  0.59191200  0.99977900  1
  C  C23  1  0.96648900  0.15193100  0.99974700  1
  C  C24  1  0.04384300  0.15390200  0.99972300  1
  C  C25  1  0.86334800  0.38321800  0.99977200  1
  C  C26  1  0.88155000  0.51783300  0.99976500  1
  C  C27  1  0.87757000  0.07880400  0.21731500  1
  C  C28  1  0.87757300  0.07879900  0.29611700  1
  C  C29  1  0.84068600  0.16147400  0.33553700  1
  C  C30  1  0.80377800  0.24414000  0.29614900  1
  C  C31  1  0.80377000  0.24413500  0.21734900  1
  C  C32  1  0.84540100  0.27196700  0.46037200  1
  C  C33  1  0.84541400  0.27197300  0.53917100  1
  C  C34  1  0.84070600  0.16148800  0.57858300  1
  C  C35  1  0.83600000  0.05099200  0.53918700  1
  C  C36  1  0.83599200  0.05098700  0.46038700  1
  C  C37  1  0.84069000  0.16148800  0.42098300  1
  C  C38  1  0.87761200  0.07881600  0.70340800  1
  C  C39  1  0.87761000  0.07880800  0.78221100  1
  C  C40  1  0.80381900  0.24416000  0.78224200  1
  C  C41  1  0.80381600  0.24415700  0.70344000  1
  C  C42  1  0.84071600  0.16148600  0.66402800  1
  N  N1  1  0.84067000  0.16146400  0.17793600  1
  N  N2  1  0.84072100  0.16148300  0.82162600  1
  N  N3  1  0.72439000  0.75272200  0.99980800  1
  N  N4  1  0.62888400  0.93939100  0.99984900  1
  N  N5  1  0.83092600  0.93181400  0.58168300  1
  N  N6  1  0.20357200  0.38741100  0.99974200  1
  N  N7  1  0.75583500  0.53950600  0.99979100  1
  N  N8  1  0.42500400  0.33938400  0.09095100  1
  N  N9  1  0.91736500  0.98963800  0.17480700  1
  N  N10  1  0.83091400  0.93182100  0.41789400  1
  N  N11  1  0.05249800  0.38354900  0.99977100  1
  N  N12  1  0.25639100  0.98357300  0.90858800  1
  N  N13  1  0.65190800  0.39885000  0.99982900  1
  N  N14  1  0.02948300  0.92409600  0.99973500  1
  N  N15  1  0.47782100  0.93554200  0.99982300  1
  N  N16  1  0.76402800  0.33333333  0.82474900  1
  N  N17  1  0.76401600  0.33333333  0.66096100  1
  N  N18  1  0.76398700  0.33333333  0.33866100  1
  O  O1  1  0.94053900  0.15127900  0.93716100  1
  O  O2  1  0.74086700  0.17168700  0.93721200  1
  O  O3  1  0.82415500  0.98492000  0.93719400  1
  O  O4  1  0.85725200  0.33804600  0.93718000  1
  O  O5  1  0.82413500  0.98491100  0.06238200  1
  O  O6  1  0.74084700  0.17167700  0.06240100  1
  O  O7  1  0.94052000  0.15127000  0.06235000  1
  O  O8  1  0.85723200  0.33803600  0.06236800  1
