# generated using pymatgen
data_ZnH7C16N5O4
_symmetry_space_group_name_H-M   'P 1'
_cell_length_a   8.55964900
_cell_length_b   16.99269500
_cell_length_c   16.05380200
_cell_angle_alpha   87.25892600
_cell_angle_beta   92.21845500
_cell_angle_gamma   80.22344400
_symmetry_Int_Tables_number   1
_chemical_formula_structural   ZnH7C16N5O4
_chemical_formula_sum   'Zn2 H14 C32 N10 O8'
_cell_volume   2295.90331194
_cell_formula_units_Z   2
loop_
 _symmetry_equiv_pos_site_id
 _symmetry_equiv_pos_as_xyz
  1  'x, y, z'
loop_
 _atom_site_type_symbol
 _atom_site_label
 _atom_site_symmetry_multiplicity
 _atom_site_fract_x
 _atom_site_fract_y
 _atom_site_fract_z
 _atom_site_occupancy
  Zn  Zn1  1  0.12156700  0.00146000  0.09148800  1
  Zn  Zn2  1  0.10501400  0.01115100  0.90853600  1
  H  H1  1  0.57232000  0.10058300  0.00000900  1
  H  H2  1  0.65426800  0.91202400  0.99999900  1
  H  H3  1  0.89532500  0.13432600  0.61697800  1
  H  H4  1  0.95020200  0.10213300  0.22446500  1
  H  H5  1  0.90960500  0.12591700  0.77555500  1
  H  H6  1  0.87535000  0.27559600  0.00002900  1
  H  H7  1  0.26209400  0.91889200  0.61699700  1
  H  H8  1  0.89950300  0.42250800  0.00001600  1
  H  H9  1  0.27636700  0.91047700  0.77556000  1
  H  H10  1  0.80722700  0.65532800  0.00001500  1
  H  H11  1  0.31697900  0.88669900  0.22447200  1
  H  H12  1  0.32708900  0.59010500  0.99998800  1
  H  H13  1  0.39520900  0.21036300  0.00000300  1
  H  H14  1  0.83138400  0.80225100  0.00001000  1
  C  C1  1  0.40246800  0.98316700  0.00000900  1
  C  C2  1  0.57869000  0.97410300  0.00000700  1
  C  C3  1  0.82411400  0.02944300  0.00001300  1
  C  C4  1  0.64789100  0.03850800  0.00000900  1
  C  C5  1  0.11988100  0.14926300  0.00001800  1
  C  C6  1  0.13403900  0.23545500  0.00001800  1
  C  C7  1  0.10670100  0.86334700  0.00000400  1
  C  C8  1  0.09254200  0.77715600  0.99999800  1
  C  C9  1  0.99743200  0.29392100  0.00002000  1
  C  C10  1  0.01074400  0.37490700  0.00001200  1
  C  C11  1  0.16066500  0.39742400  0.00000800  1
  C  C12  1  0.29728200  0.33895000  0.00000300  1
  C  C13  1  0.28396800  0.25796700  0.00000500  1
  C  C14  1  0.21584500  0.63769900  0.99999600  1
  C  C15  1  0.22914900  0.71868900  0.99999600  1
  C  C16  1  0.94260900  0.75464100  0.00000400  1
  C  C17  1  0.92930900  0.67365400  0.00001100  1
  C  C18  1  0.06592600  0.61518800  0.00000200  1
  C  C19  1  0.03571700  0.05190100  0.26004500  1
  C  C20  1  0.04359600  0.04726900  0.34745200  1
  C  C21  1  0.14860400  0.98557900  0.39115900  1
  C  C22  1  0.24575000  0.92852200  0.34745500  1
  C  C23  1  0.23787800  0.93315800  0.26005000  1
  C  C24  1  0.18299100  0.96535000  0.65256700  1
  C  C25  1  0.19085300  0.96071600  0.73997800  1
  C  C26  1  0.98870000  0.07946500  0.73996900  1
  C  C27  1  0.98083100  0.08409300  0.65256300  1
  C  C28  1  0.07798300  0.02703800  0.60886600  1
  C  C29  1  0.39408100  0.74345400  0.99998500  1
  C  C30  1  0.36127600  0.86066800  0.39553600  1
  C  C31  1  0.93677800  0.11005000  0.39551600  1
  C  C32  1  0.46219900  0.36372100  0.00000500  1
  N  N1  1  0.13285300  0.99484700  0.21634800  1
  N  N2  1  0.17427600  0.48020300  0.00000200  1
  N  N3  1  0.05231300  0.53241000  0.00000100  1
  N  N4  1  0.09371700  0.01777000  0.78367600  1
  N  N5  1  0.15665600  0.98084100  0.48050200  1
  N  N6  1  0.06993800  0.03178000  0.51952400  1
  N  N7  1  0.51830100  0.76210800  0.99997600  1
  N  N8  1  0.44829200  0.80956000  0.43175000  1
  N  N9  1  0.85633400  0.15734500  0.43171700  1
  N  N10  1  0.58641700  0.38237700  0.00001300  1
  O  O1  1  0.87697300  0.03007500  0.93058500  1
  O  O2  1  0.33704500  0.98989100  0.93058000  1
  O  O3  1  0.10885400  0.12401400  0.93058900  1
  O  O4  1  0.10516400  0.89595200  0.93057600  1
  O  O5  1  0.12141800  0.11665900  0.06944800  1
  O  O6  1  0.34960900  0.98253500  0.06943800  1
  O  O7  1  0.88953700  0.02272000  0.06944400  1
  O  O8  1  0.11772800  0.88859600  0.06943400  1
