# generated using pymatgen
data_CuH35C32NO4
_symmetry_space_group_name_H-M   'P 1'
_cell_length_a   17.69908300
_cell_length_b   12.83794200
_cell_length_c   16.17631900
_cell_angle_alpha   89.99410100
_cell_angle_beta   89.99861100
_cell_angle_gamma   89.05597800
_symmetry_Int_Tables_number   1
_chemical_formula_structural   CuH35C32NO4
_chemical_formula_sum   'Cu2 H70 C64 N2 O8'
_cell_volume   3675.08107354
_cell_formula_units_Z   2
loop_
 _symmetry_equiv_pos_site_id
 _symmetry_equiv_pos_as_xyz
  1  'x, y, z'
loop_
 _atom_site_type_symbol
 _atom_site_label
 _atom_site_symmetry_multiplicity
 _atom_site_fract_x
 _atom_site_fract_y
 _atom_site_fract_z
 _atom_site_occupancy
  Cu  Cu1  1  0.90412600  0.13958200  0.08140500  1
  Cu  Cu2  1  0.90414600  0.13959400  0.91880300  1
  H  H1  1  0.52737500  0.31371400  0.00008200  1
  H  H2  1  0.76037300  0.93602000  0.99992800  1
  H  H3  1  0.71509100  0.85305400  0.04788600  1
  H  H4  1  0.73081000  0.85951700  0.88132800  1
  H  H5  1  0.68551400  0.77655600  0.92925900  1
  H  H6  1  0.60826000  0.90074800  0.97701900  1
  H  H7  1  0.65354900  0.98370900  0.92906300  1
  H  H8  1  0.60838200  0.90063200  0.88111400  1
  H  H9  1  0.79947000  0.47689500  0.00007700  1
  H  H10  1  0.82001800  0.26762700  0.79639600  1
  H  H11  1  0.06306100  0.62758700  0.00011600  1
  H  H12  1  0.03511500  0.85496700  0.04800200  1
  H  H13  1  0.03504500  0.85496600  0.95210200  1
  H  H14  1  0.07573400  0.69028600  0.04800500  1
  H  H15  1  0.07568500  0.69026100  0.95211300  1
  H  H16  1  0.16136300  0.81482700  0.95202400  1
  H  H17  1  0.16142600  0.81482700  0.04792500  1
  H  H18  1  0.19128200  0.71794800  0.99996600  1
  H  H19  1  0.98826400  0.01155400  0.20381500  1
  H  H20  1  0.32327500  0.93674500  0.95239400  1
  H  H21  1  0.25874900  0.88305200  0.00033200  1
  H  H22  1  0.37130900  0.99256100  0.07097900  1
  H  H23  1  0.30680600  0.93886600  0.11893600  1
  H  H24  1  0.34605200  0.78494800  0.07126300  1
  H  H25  1  0.41057400  0.83864900  0.02332200  1
  H  H26  1  0.41045700  0.83888200  0.11922000  1
  H  H27  1  0.69903800  0.66286400  0.95219800  1
  H  H28  1  0.69909300  0.66290200  0.04809800  1
  H  H29  1  0.75753300  0.50840100  0.95218500  1
  H  H30  1  0.75758600  0.50840200  0.04807700  1
  H  H31  1  0.63203300  0.51222900  0.04816500  1
  H  H32  1  0.63198400  0.51219800  0.95226400  1
  H  H33  1  0.66223500  0.41552800  0.00021600  1
  H  H34  1  0.13014800  0.36965900  0.04782500  1
  H  H35  1  0.06568700  0.31581700  0.99990100  1
  H  H36  1  0.18844500  0.40246500  0.92922900  1
  H  H37  1  0.12399300  0.34865100  0.88128700  1
  H  H38  1  0.04186000  0.46682500  0.92895100  1
  H  H39  1  0.10632400  0.52065800  0.97687800  1
  H  H40  1  0.10642500  0.52039800  0.88097900  1
  H  H41  1  0.04637800  0.43147600  0.00009800  1
  H  H42  1  0.98829400  0.01157300  0.63938700  1
  H  H43  1  0.81996700  0.26759300  0.20380700  1
  H  H44  1  0.53539800  0.97103300  0.00011500  1
  H  H45  1  0.82000100  0.26761500  0.63938800  1
  H  H46  1  0.98826800  0.01155500  0.36082100  1
  H  H47  1  0.99424900  0.00220500  0.86579400  1
  H  H48  1  0.05216900  0.00335300  0.79383500  1
  H  H49  1  0.92992800  0.87931900  0.80119300  1
  H  H50  1  0.98784000  0.88043000  0.72923500  1
  H  H51  1  0.07889800  0.83076600  0.81593200  1
  H  H52  1  0.02097400  0.82962800  0.88789000  1
  H  H53  1  0.01428300  0.75056400  0.81585000  1
  H  H54  1  0.75613000  0.27561000  0.35864000  1
  H  H55  1  0.82068700  0.35589000  0.35856600  1
  H  H56  1  0.80420800  0.20247300  0.47191100  1
  H  H57  1  0.86876000  0.28274500  0.47186700  1
  H  H58  1  0.78435000  0.41134500  0.48706000  1
  H  H59  1  0.71979600  0.33105800  0.48712700  1
  H  H60  1  0.77788700  0.33195300  0.55892200  1
  H  H61  1  0.67081400  0.31685200  0.00006800  1
  H  H62  1  0.13745700  0.96231900  0.00012800  1
  H  H63  1  0.26937300  0.37251400  0.04797300  1
  H  H64  1  0.26931700  0.37243100  0.95207300  1
  H  H65  1  0.37515000  0.27688400  0.04797800  1
  H  H66  1  0.37512100  0.27680100  0.95208700  1
  H  H67  1  0.38497500  0.44911600  0.95197200  1
  H  H68  1  0.38502600  0.44919100  0.04787200  1
  H  H69  1  0.45185400  0.39804300  0.99991300  1
  H  H70  1  0.67885000  0.97416300  0.00009400  1
  C  C1  1  0.76633200  0.14750300  0.00008700  1
  C  C2  1  0.68217900  0.14567000  0.00007700  1
  C  C3  1  0.89599500  0.95008500  0.00010800  1
  C  C4  1  0.88620400  0.83503300  0.00010500  1
  C  C5  1  0.64043200  0.23924500  0.00007400  1
  C  C6  1  0.56136200  0.23751600  0.00008500  1
  C  C7  1  0.52404000  0.14221200  0.00009200  1
  C  C8  1  0.56579200  0.04863100  0.00009700  1
  C  C9  1  0.64486100  0.05036000  0.00009300  1
  C  C10  1  0.24691600  0.04165300  0.00011800  1
  C  C11  1  0.16784200  0.03993100  0.00012000  1
  C  C12  1  0.16341800  0.22880900  0.00011100  1
  C  C13  1  0.24248600  0.23053900  0.00010600  1
  C  C14  1  0.28423200  0.13695800  0.00011500  1
  C  C15  1  0.36996900  0.13883300  0.00010500  1
  C  C16  1  0.43830400  0.14033600  0.00009700  1
  C  C17  1  0.00390800  0.59377800  0.00010200  1
  C  C18  1  0.99471200  0.48567600  0.00010000  1
  C  C19  1  0.85861700  0.51072300  0.00009200  1
  C  C20  1  0.86781300  0.61882600  0.00009400  1
  C  C21  1  0.94046100  0.66034900  0.00010100  1
  C  C22  1  0.94965600  0.76845400  0.00010900  1
  C  C23  1  0.81356100  0.79349900  0.00009500  1
  C  C24  1  0.80436500  0.68539600  0.00009300  1
  C  C25  1  0.04194100  0.13167300  0.00011900  1
  C  C26  1  0.12609400  0.13350600  0.00012400  1
  C  C27  1  0.91227800  0.32909100  0.00009900  1
  C  C28  1  0.92206900  0.44414400  0.00009600  1
  C  C29  1  0.95049900  0.06901200  0.23904200  1
  C  C30  1  0.95050200  0.06901100  0.32558900  1
  C  C31  1  0.90412900  0.13957700  0.36886300  1
  C  C32  1  0.85774300  0.21014100  0.32558400  1
  C  C33  1  0.85773600  0.21013600  0.23903900  1
  C  C34  1  0.85777100  0.21016100  0.67461300  1
  C  C35  1  0.85778300  0.21016200  0.76116400  1
  C  C36  1  0.95053700  0.06903500  0.76116300  1
  C  C37  1  0.95053000  0.06903100  0.67461700  1
  C  C38  1  0.90414100  0.13959100  0.63134700  1
  C  C39  1  0.90413700  0.13959000  0.53750300  1
  C  C40  1  0.90413700  0.13958400  0.46270500  1
  C  C41  1  0.74460100  0.86565400  0.99996500  1
  C  C42  1  0.70130500  0.84690900  0.92923600  1
  C  C43  1  0.63777000  0.91334700  0.92909800  1
  C  C44  1  0.02859000  0.81333900  0.00006900  1
  C  C45  1  0.08218500  0.73189500  0.00004300  1
  C  C46  1  0.15490900  0.77320000  0.99999100  1
  C  C47  1  0.29227600  0.94009000  0.00028700  1
  C  C48  1  0.33778600  0.93554000  0.07103200  1
  C  C49  1  0.37957900  0.84198500  0.07121800  1
  C  C50  1  0.72555600  0.64010700  0.00013000  1
  C  C51  1  0.73108100  0.53118700  0.00014800  1
  C  C52  1  0.65849700  0.48943400  0.00019700  1
  C  C53  1  0.11813100  0.33044800  0.99993900  1
  C  C54  1  0.13601200  0.38783100  0.92918400  1
  C  C55  1  0.09430400  0.48145600  0.92898900  1
  C  C56  1  0.00084400  0.99224700  0.80804100  1
  C  C57  1  0.98124100  0.89042100  0.78698100  1
  C  C58  1  0.02757300  0.81966100  0.83013800  1
  C  C59  1  0.80747600  0.28671100  0.37271400  1
  C  C60  1  0.81742400  0.27163500  0.45776900  1
  C  C61  1  0.77113800  0.34216600  0.50120800  1
  C  C62  1  0.28314600  0.33390700  0.00004400  1
  C  C63  1  0.36132600  0.31539300  0.00001300  1
  C  C64  1  0.39880500  0.41059100  0.99994200  1
  N  N1  1  0.90411800  0.13957300  0.19577000  1
  N  N2  1  0.90416000  0.13959500  0.80443800  1
  O  O1  1  0.01370800  0.13106700  0.93137100  1
  O  O2  1  0.79458200  0.14811900  0.93134400  1
  O  O3  1  0.89928600  0.98870300  0.93136200  1
  O  O4  1  0.90900400  0.29048400  0.93135300  1
  O  O5  1  0.89926900  0.98869300  0.06885500  1
  O  O6  1  0.79456500  0.14810900  0.06883700  1
  O  O7  1  0.01369100  0.13105700  0.06886400  1
  O  O8  1  0.90898700  0.29047400  0.06884600  1
