# generated using pymatgen
data_ZnH9C16NO4
_symmetry_space_group_name_H-M   'P 1'
_cell_length_a   17.69908300
_cell_length_b   8.55964900
_cell_length_c   16.77622900
_cell_angle_alpha   89.99473900
_cell_angle_beta   89.99888600
_cell_angle_gamma   76.53084000
_symmetry_Int_Tables_number   1
_chemical_formula_structural   ZnH9C16NO4
_chemical_formula_sum   'Zn4 H36 C64 N4 O16'
_cell_volume   2471.65947390
_cell_formula_units_Z   4
loop_
 _symmetry_equiv_pos_site_id
 _symmetry_equiv_pos_as_xyz
  1  'x, y, z'
loop_
 _atom_site_type_symbol
 _atom_site_label
 _atom_site_symmetry_multiplicity
 _atom_site_fract_x
 _atom_site_fract_y
 _atom_site_fract_z
 _atom_site_occupancy
  Zn  Zn1  1  0.88154800  0.21524000  0.08743900  1
  Zn  Zn2  1  0.38154800  0.71524000  0.58743900  1
  Zn  Zn3  1  0.88156700  0.21525900  0.91276400  1
  Zn  Zn4  1  0.38156700  0.71525900  0.41276400  1
  H  H1  1  0.08008300  0.47033000  0.00010600  1
  H  H2  1  0.58008300  0.97033000  0.50010600  1
  H  H3  1  0.98642200  0.01784700  0.63440300  1
  H  H4  1  0.48642200  0.51784700  0.13440300  1
  H  H5  1  0.78983400  0.76861400  0.00009100  1
  H  H6  1  0.28983400  0.26861400  0.50009100  1
  H  H7  1  0.97328500  0.66187600  0.00011300  1
  H  H8  1  0.47328500  0.16187600  0.50011300  1
  H  H9  1  0.98639900  0.01781700  0.36579800  1
  H  H10  1  0.48639900  0.51781700  0.86579800  1
  H  H11  1  0.98639400  0.01781600  0.21440600  1
  H  H12  1  0.48639400  0.51781600  0.71440600  1
  H  H13  1  0.77669700  0.41263700  0.36580200  1
  H  H14  1  0.27669700  0.91263700  0.86580200  1
  H  H15  1  0.22302700  0.47516800  0.00009500  1
  H  H16  1  0.72302700  0.97516800  0.50009500  1
  H  H17  1  0.98643500  0.01785500  0.78580400  1
  H  H18  1  0.48643500  0.51785500  0.28580400  1
  H  H19  1  0.77668200  0.41263500  0.21440100  1
  H  H20  1  0.27668200  0.91263500  0.71440100  1
  H  H21  1  0.28648400  0.94672900  0.00012200  1
  H  H22  1  0.78648400  0.44672900  0.50012200  1
  H  H23  1  0.77671400  0.41267100  0.63440600  1
  H  H24  1  0.27671400  0.91267100  0.13440600  1
  H  H25  1  0.77672900  0.41269000  0.78579900  1
  H  H26  1  0.27672900  0.91269000  0.28579900  1
  H  H27  1  0.47663100  0.48375600  0.00008200  1
  H  H28  1  0.97663100  0.98375600  0.50008200  1
  H  H29  1  0.61956200  0.48859500  0.00006800  1
  H  H30  1  0.11956200  0.98859500  0.50006800  1
  H  H31  1  0.14355200  0.94189400  0.00012300  1
  H  H32  1  0.64355200  0.44189400  0.50012300  1
  H  H33  1  0.54008400  0.95533200  0.00011100  1
  H  H34  1  0.04008400  0.45533200  0.50011100  1
  H  H35  1  0.68302900  0.96015800  0.00009100  1
  H  H36  1  0.18302900  0.46015800  0.50009100  1
  C  C1  1  0.74247300  0.22745500  0.00008500  1
  C  C2  1  0.24247300  0.72745500  0.50008500  1
  C  C3  1  0.65861600  0.22462800  0.00007500  1
  C  C4  1  0.15861600  0.72462800  0.50007500  1
  C  C5  1  0.60173400  0.36892200  0.00007400  1
  C  C6  1  0.10173400  0.86892200  0.50007400  1
  C  C7  1  0.52294300  0.36625700  0.00008400  1
  C  C8  1  0.02294300  0.86625700  0.50008400  1
  C  C9  1  0.50103700  0.21929600  0.00009000  1
  C  C10  1  0.00103700  0.71929600  0.50009000  1
  C  C11  1  0.55792600  0.07499000  0.00009400  1
  C  C12  1  0.05792600  0.57499000  0.50009400  1
  C  C13  1  0.63671500  0.07765700  0.00009000  1
  C  C14  1  0.13671500  0.57765700  0.50009000  1
  C  C15  1  0.24017900  0.06423100  0.00011400  1
  C  C16  1  0.74017900  0.56423100  0.50011400  1
  C  C17  1  0.16138300  0.06157500  0.00011600  1
  C  C18  1  0.66138300  0.56157500  0.50011600  1
  C  C19  1  0.12640700  0.35283100  0.00010800  1
  C  C20  1  0.62640700  0.85283100  0.50010800  1
  C  C21  1  0.20519600  0.35549800  0.00010400  1
  C  C22  1  0.70519600  0.85549800  0.50010400  1
  C  C23  1  0.26207800  0.21119300  0.00011200  1
  C  C24  1  0.76207800  0.71119300  0.50011200  1
  C  C25  1  0.34751200  0.21408500  0.00010200  1
  C  C26  1  0.84751200  0.71408500  0.50010200  1
  C  C27  1  0.41560500  0.21640200  0.00009400  1
  C  C28  1  0.91560500  0.71640200  0.50009400  1
  C  C29  1  0.90406900  0.92303000  0.00010300  1
  C  C30  1  0.40406900  0.42303000  0.50010300  1
  C  C31  1  0.91288800  0.74561600  0.00010000  1
  C  C32  1  0.41288800  0.24561600  0.50010000  1
  C  C33  1  0.02064300  0.20304400  0.00011600  1
  C  C34  1  0.52064300  0.70304400  0.50011600  1
  C  C35  1  0.10449900  0.20587100  0.00012000  1
  C  C36  1  0.60449900  0.70587100  0.50012000  1
  C  C37  1  0.85904700  0.50746900  0.00009800  1
  C  C38  1  0.35904700  0.00746900  0.50009800  1
  C  C39  1  0.85022700  0.68488300  0.00009600  1
  C  C40  1  0.35022700  0.18488300  0.50009600  1
  C  C41  1  0.93933500  0.10641800  0.24837400  1
  C  C42  1  0.43933500  0.60641800  0.74837400  1
  C  C43  1  0.93933900  0.10641700  0.33182700  1
  C  C44  1  0.43933900  0.60641700  0.83182700  1
  C  C45  1  0.88155200  0.21523100  0.37355300  1
  C  C46  1  0.38155200  0.71523100  0.87355300  1
  C  C47  1  0.82375200  0.32404300  0.33182300  1
  C  C48  1  0.32375200  0.82404300  0.83182300  1
  C  C49  1  0.82374500  0.32403600  0.24837200  1
  C  C50  1  0.32374500  0.82403600  0.74837200  1
  C  C51  1  0.82377700  0.32407500  0.66837000  1
  C  C52  1  0.32377700  0.82407500  0.16837000  1
  C  C53  1  0.82379000  0.32407700  0.75182700  1
  C  C54  1  0.32379000  0.82407700  0.25182700  1
  C  C55  1  0.93937100  0.10645600  0.75182400  1
  C  C56  1  0.43937100  0.60645600  0.25182400  1
  C  C57  1  0.93936400  0.10644800  0.66837400  1
  C  C58  1  0.43936400  0.60644800  0.16837400  1
  C  C59  1  0.88156300  0.21525400  0.62665100  1
  C  C60  1  0.38156300  0.71525400  0.12665100  1
  C  C61  1  0.88155800  0.21525200  0.53616300  1
  C  C62  1  0.38155800  0.71525200  0.03616300  1
  C  C63  1  0.88155900  0.21524200  0.46404000  1
  C  C64  1  0.38155900  0.71524200  0.96404000  1
  N  N1  1  0.88154000  0.21522500  0.20665000  1
  N  N2  1  0.38154000  0.71522500  0.70665000  1
  N  N3  1  0.88158100  0.21526100  0.79355300  1
  N  N4  1  0.38158100  0.71526100  0.29355300  1
  O  O1  1  0.99250700  0.20211000  0.93382600  1
  O  O2  1  0.49250700  0.70211000  0.43382600  1
  O  O3  1  0.77062300  0.22840400  0.93380000  1
  O  O4  1  0.27062300  0.72840400  0.43380000  1
  O  O5  1  0.90111300  0.98257900  0.93381600  1
  O  O6  1  0.40111300  0.48257900  0.43381600  1
  O  O7  1  0.86201700  0.44793500  0.93381000  1
  O  O8  1  0.36201700  0.94793500  0.43381000  1
  O  O9  1  0.90109800  0.98256400  0.06639300  1
  O  O10  1  0.40109800  0.48256400  0.56639300  1
  O  O11  1  0.77060800  0.22838900  0.06637700  1
  O  O12  1  0.27060800  0.72838900  0.56637700  1
  O  O13  1  0.99249200  0.20209500  0.06640300  1
  O  O14  1  0.49249200  0.70209500  0.56640300  1
  O  O15  1  0.86200200  0.44792000  0.06638700  1
  O  O16  1  0.36200200  0.94792000  0.56638700  1
