# generated using pymatgen
data_Zn4H16C28O15
_symmetry_space_group_name_H-M   'P 1'
_cell_length_a   12.75939400
_cell_length_b   11.16941700
_cell_length_c   11.16940900
_cell_angle_alpha   89.97835100
_cell_angle_beta   90.03452400
_cell_angle_gamma   89.98694100
_symmetry_Int_Tables_number   1
_chemical_formula_structural   Zn4H16C28O15
_chemical_formula_sum   'Zn4 H16 C28 O15'
_cell_volume   1591.80779308
_cell_formula_units_Z   1
loop_
 _symmetry_equiv_pos_site_id
 _symmetry_equiv_pos_as_xyz
  1  'x, y, z'
loop_
 _atom_site_type_symbol
 _atom_site_label
 _atom_site_symmetry_multiplicity
 _atom_site_fract_x
 _atom_site_fract_y
 _atom_site_fract_z
 _atom_site_occupancy
  Zn  Zn1  1  0.58176900  0.16507500  0.67858300  1
  Zn  Zn2  1  0.40604300  0.16520200  0.47789200  1
  Zn  Zn3  1  0.58171300  0.36578900  0.47791100  1
  Zn  Zn4  1  0.40613700  0.36579800  0.67853100  1
  H  H1  1  0.09395500  0.97256300  0.28570800  1
  H  H2  1  0.89494000  0.55820400  0.87084100  1
  H  H3  1  0.95604100  0.75304600  0.06677700  1
  H  H4  1  0.84654100  0.86294400  0.05865400  1
  H  H5  1  0.84665200  0.74524800  0.17670800  1
  H  H6  1  0.00965200  0.95518800  0.15081500  1
  H  H7  1  0.00964000  0.83740000  0.26877500  1
  H  H8  1  0.79536600  0.11167100  0.42495300  1
  H  H9  1  0.09400900  0.55834200  0.87078400  1
  H  H10  1  0.59115500  0.36311100  0.94011300  1
  H  H11  1  0.59096200  0.31976900  0.77918200  1
  H  H12  1  0.59096700  0.48081000  0.82206800  1
  H  H13  1  0.77145600  0.29516100  0.87204600  1
  H  H14  1  0.77130100  0.45621500  0.91487700  1
  H  H15  1  0.19352800  0.41909200  0.73157900  1
  H  H16  1  0.19349400  0.11194500  0.42479700  1
  C  C1  1  0.49394400  0.57729100  0.57820400  1
  C  C2  1  0.49393100  0.71069100  0.57822100  1
  C  C3  1  0.22094800  0.26553800  0.57820000  1
  C  C4  1  0.10417100  0.26545900  0.57822800  1
  C  C5  1  0.10415300  0.11188000  0.42484700  1
  C  C6  1  0.04928300  0.03505900  0.34817000  1
  C  C7  1  0.93956100  0.03498900  0.34820300  1
  C  C8  1  0.88470700  0.11174500  0.42492300  1
  C  C9  1  0.93957700  0.18856600  0.50159900  1
  C  C10  1  0.04930100  0.18863000  0.50155600  1
  C  C11  1  0.93959500  0.34213700  0.65498500  1
  C  C12  1  0.04931700  0.34221500  0.65494800  1
  C  C13  1  0.88474100  0.41889300  0.73170400  1
  C  C14  1  0.93961100  0.49572100  0.80837700  1
  C  C15  1  0.04933900  0.49579000  0.80834000  1
  C  C16  1  0.10418700  0.41903600  0.73162400  1
  C  C17  1  0.76794900  0.26536100  0.57828500  1
  C  C18  1  0.88472500  0.26531600  0.57830800  1
  C  C19  1  0.49403200  0.26537400  0.89127200  1
  C  C20  1  0.49408200  0.26533400  0.02467200  1
  C  C21  1  0.49389600  0.95242400  0.57824700  1
  C  C22  1  0.49391400  0.81902400  0.57823500  1
  C  C23  1  0.49387500  0.26548900  0.26640400  1
  C  C24  1  0.49412100  0.26529500  0.13300500  1
  C  C25  1  0.89796600  0.80795500  0.12151500  1
  C  C26  1  0.95828100  0.89246400  0.20591000  1
  C  C27  1  0.62081500  0.38789600  0.84709300  1
  C  C28  1  0.74151900  0.38802400  0.84699100  1
  O  O1  1  0.49391500  0.26546600  0.57822900  1
  O  O2  1  0.55844300  0.99714200  0.65197500  1
  O  O3  1  0.42928300  0.19185900  0.30994500  1
  O  O4  1  0.72874100  0.33910800  0.50456000  1
  O  O5  1  0.42933800  0.99723500  0.50452800  1
  O  O6  1  0.72878200  0.19164400  0.65199300  1
  O  O7  1  0.55834700  0.33923000  0.30995900  1
  O  O8  1  0.55843800  0.53374000  0.50450900  1
  O  O9  1  0.42949700  0.33912200  0.84648700  1
  O  O10  1  0.42944300  0.53374600  0.65190400  1
  O  O11  1  0.55853300  0.19165200  0.84652600  1
  O  O12  1  0.25903400  0.19186700  0.50447800  1
  O  O13  1  0.25910300  0.33924400  0.65188600  1
  O  O14  1  0.88641800  0.96032900  0.27360900  1
  O  O15  1  0.77815900  0.41871400  0.73193400  1
