# generated using pymatgen
data_Zn4H6C48N12O13
_symmetry_space_group_name_H-M   'P 1'
_cell_length_a   18.21540700
_cell_length_b   19.07711400
_cell_length_c   18.21539900
_cell_angle_alpha   92.27021000
_cell_angle_beta   90.01983300
_cell_angle_gamma   87.67115700
_symmetry_Int_Tables_number   1
_chemical_formula_structural   Zn4H6C48N12O13
_chemical_formula_sum   'Zn4 H6 C48 N12 O13'
_cell_volume   6319.60666118
_cell_formula_units_Z   1
loop_
 _symmetry_equiv_pos_site_id
 _symmetry_equiv_pos_as_xyz
  1  'x, y, z'
loop_
 _atom_site_type_symbol
 _atom_site_label
 _atom_site_symmetry_multiplicity
 _atom_site_fract_x
 _atom_site_fract_y
 _atom_site_fract_z
 _atom_site_occupancy
  Zn  Zn1  1  0.11328100  0.28020000  0.42787900  1
  Zn  Zn2  1  0.10823700  0.39790200  0.30975400  1
  Zn  Zn3  1  0.99021300  0.28022300  0.30482700  1
  Zn  Zn4  1  0.98522800  0.39786300  0.43277700  1
  H  H1  1  0.61589200  0.42082000  0.45748400  1
  H  H2  1  0.48332600  0.25729100  0.28015800  1
  H  H3  1  0.96047900  0.42056200  0.94229000  1
  H  H4  1  0.12335800  0.60696100  0.29473100  1
  H  H5  1  0.15164700  0.93704500  0.26668700  1
  H  H6  1  0.13821100  0.25724400  0.93549800  1
  C  C1  1  0.85803400  0.33903500  0.36878800  1
  C  C2  1  0.77623400  0.33904700  0.36879700  1
  C  C3  1  0.58615000  0.38412100  0.41768900  1
  C  C4  1  0.50929100  0.38412400  0.41769800  1
  C  C5  1  0.51308100  0.29398600  0.31994700  1
  C  C6  1  0.58993800  0.29398000  0.31994200  1
  C  C7  1  0.62647100  0.33905200  0.36881200  1
  C  C8  1  0.47275400  0.33906000  0.36882600  1
  C  C9  1  0.38942100  0.33906200  0.36883600  1
  C  C10  1  0.70981000  0.33905000  0.36880300  1
  C  C11  1  0.04146700  0.52191100  0.37646000  1
  C  C12  1  0.03820900  0.60014100  0.37975700  1
  C  C13  1  0.08376800  0.63688600  0.33428700  1
  C  C14  1  0.08070800  0.71039100  0.33739300  1
  C  C15  1  0.03208500  0.74715100  0.38596500  1
  C  C16  1  0.98652500  0.71040100  0.43144100  1
  C  C17  1  0.98958900  0.63689700  0.42833800  1
  C  C18  1  0.01787500  0.96698500  0.40029000  1
  C  C19  1  0.01481300  0.04049500  0.40338700  1
  C  C20  1  0.10899800  0.04047900  0.30934000  1
  C  C21  1  0.11205400  0.96697400  0.30623900  1
  C  C22  1  0.06649700  0.93023100  0.35171700  1
  C  C23  1  0.24119200  0.33906000  0.36883200  1
  C  C24  1  0.32299100  0.33906500  0.36884100  1
  C  C25  1  0.04928700  0.33899900  0.56076100  1
  C  C26  1  0.04930600  0.33897800  0.64255900  1
  C  C27  1  0.05705700  0.15546900  0.36115500  1
  C  C28  1  0.06037200  0.07723900  0.35791700  1
  C  C29  1  0.04923700  0.33904500  0.17760300  1
  C  C30  1  0.04936800  0.33886700  0.09579700  1
  C  C31  1  0.09831300  0.29392300  0.82887800  1
  C  C32  1  0.09832200  0.29390300  0.90573600  1
  C  C33  1  0.00035700  0.38392400  0.90947200  1
  C  C34  1  0.00034400  0.38394000  0.83261600  1
  C  C35  1  0.04932600  0.33894100  0.79232100  1
  C  C36  1  0.04934900  0.33890400  0.94603500  1
  C  C37  1  0.04935900  0.33888200  0.02936800  1
  C  C38  1  0.04931500  0.33896200  0.70898200  1
  C  C39  1  0.13082200  0.75080600  0.28736700  1
  C  C40  1  0.96132700  0.08092900  0.45682800  1
  C  C41  1  0.94645100  0.43346400  0.79240000  1
  C  C42  1  0.15218800  0.24441700  0.78455600  1
  C  C43  1  0.96779700  0.92657800  0.45035500  1
  C  C44  1  0.46494100  0.43371000  0.47146000  1
  C  C45  1  0.63429400  0.24439900  0.26617000  1
  C  C46  1  0.93947100  0.59647900  0.47836000  1
  C  C47  1  0.15911000  0.08090200  0.25932000  1
  C  C48  1  0.93303600  0.75084000  0.48486900  1
  N  N1  1  0.02895500  0.82228500  0.38913900  1
  N  N2  1  0.06963100  0.85509800  0.34854600  1
  N  N3  1  0.16856900  0.78124700  0.24968400  1
  N  N4  1  0.92104300  0.11138400  0.49707900  1
  N  N5  1  0.90585800  0.47076100  0.76210900  1
  N  N6  1  0.19276600  0.20712500  0.75117400  1
  N  N7  1  0.93009000  0.89614000  0.48808000  1
  N  N8  1  0.43153700  0.47106200  0.51195400  1
  N  N9  1  0.66770200  0.20705400  0.22567200  1
  N  N10  1  0.90172200  0.56603700  0.51603900  1
  N  N11  1  0.19685900  0.11134900  0.22164400  1
  N  N12  1  0.89274500  0.78129700  0.52510900  1
  O  O1  1  0.04924000  0.33904700  0.36881000  1
  O  O2  1  0.21559600  0.29582100  0.41222200  1
  O  O3  1  0.09255500  0.38231800  0.20611700  1
  O  O4  1  0.01073500  0.18172900  0.31703900  1
  O  O5  1  0.21189000  0.38229500  0.32543600  1
  O  O6  1  0.10115300  0.18171200  0.40744400  1
  O  O7  1  0.00584400  0.29586000  0.20249800  1
  O  O8  1  0.88656700  0.29582200  0.32178800  1
  O  O9  1  0.00224000  0.38222900  0.53511100  1
  O  O10  1  0.88290500  0.38225100  0.41579300  1
  O  O11  1  0.09632000  0.29578300  0.53151200  1
  O  O12  1  0.08772200  0.49638800  0.33018500  1
  O  O13  1  0.99734800  0.49635900  0.42057000  1
