# generated using pymatgen
data_Zn4H22C33O13
_symmetry_space_group_name_H-M   'P 1'
_cell_length_a   12.82789300
_cell_length_b   16.95945400
_cell_length_c   12.82788500
_cell_angle_alpha   89.97035600
_cell_angle_beta   89.98053800
_cell_angle_gamma   90.02004600
_symmetry_Int_Tables_number   1
_chemical_formula_structural   Zn4H22C33O13
_chemical_formula_sum   'Zn4 H22 C33 O13'
_cell_volume   2790.75777350
_cell_formula_units_Z   1
loop_
 _symmetry_equiv_pos_site_id
 _symmetry_equiv_pos_as_xyz
  1  'x, y, z'
loop_
 _atom_site_type_symbol
 _atom_site_label
 _atom_site_symmetry_multiplicity
 _atom_site_fract_x
 _atom_site_fract_y
 _atom_site_fract_z
 _atom_site_occupancy
  Zn  Zn1  1  0.59763800  0.68535600  0.40915000  1
  Zn  Zn2  1  0.59751700  0.55315700  0.58389000  1
  Zn  Zn3  1  0.42287800  0.68531800  0.58387700  1
  Zn  Zn4  1  0.42285000  0.55321600  0.40919000  1
  H  H1  1  0.94345600  0.66041900  0.55079100  1
  H  H2  1  0.90622100  0.52996600  0.37881800  1
  H  H3  1  0.07800100  0.66043800  0.55080000  1
  H  H4  1  0.56468300  0.57825200  0.06326500  1
  H  H5  1  0.38887400  0.31835900  0.37536600  1
  H  H6  1  0.20376500  0.52284700  0.36943300  1
  H  H7  1  0.11317200  0.52703400  0.28953900  1
  H  H8  1  0.11311700  0.46243200  0.37519900  1
  H  H9  1  0.39255000  0.70860700  0.89142500  1
  H  H10  1  0.31251500  0.26140400  0.29907700  1
  H  H11  1  0.23275700  0.19275700  0.30485000  1
  H  H12  1  0.31823000  0.19284900  0.21926900  1
  H  H13  1  0.32214600  0.04476200  0.30856500  1
  H  H14  1  0.39248900  0.70854100  0.10055200  1
  H  H15  1  0.56472600  0.57829100  0.92872000  1
  H  H16  1  0.38907300  0.92094200  0.37532200  1
  H  H17  1  0.63168600  0.92096400  0.61761100  1
  H  H18  1  0.69844000  0.19455500  0.68443100  1
  H  H19  1  0.70808800  0.97792900  0.69387500  1
  H  H20  1  0.70237800  0.04648100  0.77369600  1
  H  H21  1  0.78782300  0.04658500  0.68808800  1
  H  H22  1  0.63150300  0.31837600  0.61766600  1
  C  C1  1  0.23871100  0.61927700  0.49654600  1
  C  C2  1  0.12255800  0.61926400  0.49653000  1
  C  C3  1  0.07079000  0.57116400  0.43312000  1
  C  C4  1  0.95074000  0.57115000  0.43310200  1
  C  C5  1  0.51013300  0.41389500  0.49654400  1
  C  C6  1  0.51019100  0.32603900  0.49651700  1
  C  C7  1  0.44349800  0.95455600  0.42970100  1
  C  C8  1  0.57723500  0.95457100  0.56324500  1
  C  C9  1  0.57719800  0.03711700  0.56325500  1
  C  C10  1  0.51030900  0.07838600  0.49648800  1
  C  C11  1  0.44345700  0.03710900  0.42971100  1
  C  C12  1  0.64404200  0.07839900  0.63003800  1
  C  C13  1  0.64400700  0.16095000  0.63005100  1
  C  C14  1  0.57712300  0.20222100  0.56327800  1
  C  C15  1  0.51026900  0.16093900  0.49649800  1
  C  C16  1  0.44338000  0.20220900  0.42973000  1
  C  C17  1  0.37653000  0.16092900  0.36294400  1
  C  C18  1  0.37657300  0.07838000  0.36293800  1
  C  C19  1  0.57708000  0.28476900  0.56328400  1
  C  C20  1  0.44333900  0.28476200  0.42974000  1
  C  C21  1  0.78279100  0.61924600  0.49650600  1
  C  C22  1  0.89894400  0.61923900  0.49649700  1
  C  C23  1  0.51029300  0.61933800  0.22395600  1
  C  C24  1  0.51032300  0.61937000  0.10780300  1
  C  C25  1  0.51033700  0.82543000  0.49648600  1
  C  C26  1  0.51038700  0.91328600  0.49646800  1
  C  C27  1  0.44685400  0.66742600  0.05601400  1
  C  C28  1  0.44688400  0.66746100  0.93596300  1
  C  C29  1  0.51020900  0.61924300  0.76803600  1
  C  C30  1  0.51038100  0.61943300  0.88418900  1
  C  C31  1  0.13097200  0.51554400  0.35979700  1
  C  C32  1  0.30295800  0.20633000  0.28950400  1
  C  C33  1  0.71762600  0.03300400  0.70346100  1
  O  O1  1  0.51022100  0.61926200  0.49652700  1
  O  O2  1  0.74385800  0.66781100  0.43231900  1
  O  O3  1  0.57431200  0.57064800  0.73012400  1
  O  O4  1  0.44612300  0.79593400  0.56067700  1
  O  O5  1  0.74376900  0.57068500  0.56069900  1
  O  O6  1  0.57451800  0.79596200  0.43230600  1
  O  O7  1  0.44600600  0.66774600  0.73011500  1
  O  O8  1  0.27663900  0.66780300  0.56071500  1
  O  O9  1  0.44607500  0.57078500  0.26294800  1
  O  O10  1  0.27661800  0.57074800  0.43237300  1
  O  O11  1  0.57449000  0.66786800  0.26291900  1
  O  O12  1  0.57428400  0.44255400  0.56073700  1
  O  O13  1  0.44595700  0.44259700  0.43238600  1
