# generated using pymatgen
data_ZnH8C12NO4
_symmetry_space_group_name_H-M   'P 1'
_cell_length_a   10.65454100
_cell_length_b   10.72302200
_cell_length_c   9.79871500
_cell_angle_alpha   89.99660900
_cell_angle_beta   90.00034000
_cell_angle_gamma   95.52442300
_symmetry_Int_Tables_number   1
_chemical_formula_structural   ZnH8C12NO4
_chemical_formula_sum   'Zn2 H16 C24 N2 O8'
_cell_volume   1114.29242967
_cell_formula_units_Z   2
loop_
 _symmetry_equiv_pos_site_id
 _symmetry_equiv_pos_as_xyz
  1  'x, y, z'
loop_
 _atom_site_type_symbol
 _atom_site_label
 _atom_site_symmetry_multiplicity
 _atom_site_fract_x
 _atom_site_fract_y
 _atom_site_fract_z
 _atom_site_occupancy
  Zn  Zn1  1  0.81543200  0.47562100  0.14954600  1
  Zn  Zn2  1  0.81543100  0.47564000  0.85048700  1
  H  H1  1  0.52512300  0.24224100  0.00003500  1
  H  H2  1  0.14317500  0.04563300  0.00004800  1
  H  H3  1  0.96507800  0.62366000  0.63687100  1
  H  H4  1  0.61715100  0.82640800  0.00000100  1
  H  H5  1  0.91053800  0.90669000  0.00000000  1
  H  H6  1  0.38088300  0.03937000  0.00005200  1
  H  H7  1  0.04972400  0.25478500  0.00001000  1
  H  H8  1  0.24998100  0.91189700  0.99994100  1
  H  H9  1  0.61053800  0.07586600  0.00002000  1
  H  H10  1  0.90629000  0.06718400  0.99997500  1
  H  H11  1  0.10573500  0.70901100  0.99996600  1
  H  H12  1  0.48768700  0.90564100  0.99995500  1
  H  H13  1  0.58113400  0.69646400  0.99998900  1
  H  H14  1  0.74641700  0.40735500  0.41196900  1
  H  H15  1  0.96508000  0.62361700  0.36310100  1
  H  H16  1  0.74640800  0.40738200  0.58811000  1
  C  C1  1  0.80822600  0.24755600  0.00001400  1
  C  C2  1  0.81189700  0.10900100  0.00001200  1
  C  C3  1  0.70872300  0.89083700  0.00001000  1
  C  C4  1  0.70492700  0.03404100  0.00001100  1
  C  C5  1  0.58589200  0.46850500  0.00001700  1
  C  C6  1  0.44645000  0.47217300  0.00001700  1
  C  C7  1  0.41844300  0.24506400  0.00003100  1
  C  C8  1  0.33893100  0.13323800  0.00004300  1
  C  C9  1  0.20791400  0.13669200  0.00004300  1
  C  C10  1  0.15640700  0.25198300  0.00002700  1
  C  C11  1  0.23591900  0.36381000  0.00001500  1
  C  C12  1  0.36693700  0.36034400  0.00001900  1
  C  C13  1  0.26392500  0.59091500  0.99999100  1
  C  C14  1  0.39494200  0.58746500  0.00000100  1
  C  C15  1  0.21241700  0.70620700  0.99997500  1
  C  C16  1  0.29192900  0.81803600  0.99997300  1
  C  C17  1  0.42295400  0.81457800  0.99997500  1
  C  C18  1  0.47445400  0.69929100  0.99998900  1
  C  C19  1  0.04497000  0.48275600  0.00001300  1
  C  C20  1  0.18441300  0.47908900  0.00000300  1
  C  C21  1  0.82263600  0.70370600  0.00001600  1
  C  C22  1  0.81896600  0.84226100  0.00000900  1
  C  C23  1  0.89605400  0.55536300  0.42142300  1
  C  C24  1  0.89605900  0.55538300  0.57858600  1
  N  N1  1  0.81543300  0.47561800  0.35364500  1
  N  N2  1  0.81544000  0.47565400  0.64638700  1
  O  O1  1  0.82386200  0.65721300  0.88652700  1
  O  O2  1  0.80700000  0.29406300  0.88652300  1
  O  O3  1  0.99817200  0.48398900  0.88652500  1
  O  O4  1  0.63269000  0.46728700  0.88652600  1
  O  O5  1  0.99817200  0.48397500  0.11350700  1
  O  O6  1  0.80700000  0.29404900  0.11350500  1
  O  O7  1  0.82386300  0.65719900  0.11350900  1
  O  O8  1  0.63269100  0.46727300  0.11350800  1
