# generated using pymatgen
data_ZnH12C20NO10
_symmetry_space_group_name_H-M   'P 1'
_cell_length_a   19.28886400
_cell_length_b   9.06521500
_cell_length_c   18.36618600
_cell_angle_alpha   90.00409800
_cell_angle_beta   90.02292900
_cell_angle_gamma   84.07547200
_symmetry_Int_Tables_number   1
_chemical_formula_structural   ZnH12C20NO10
_chemical_formula_sum   'Zn4 H48 C80 N4 O40'
_cell_volume   3194.31541912
_cell_formula_units_Z   4
loop_
 _symmetry_equiv_pos_site_id
 _symmetry_equiv_pos_as_xyz
  1  'x, y, z'
loop_
 _atom_site_type_symbol
 _atom_site_label
 _atom_site_symmetry_multiplicity
 _atom_site_fract_x
 _atom_site_fract_y
 _atom_site_fract_z
 _atom_site_occupancy
  Zn  Zn1  1  0.82172500  0.19643500  0.92043100  1
  Zn  Zn2  1  0.32172500  0.69643500  0.42043100  1
  Zn  Zn3  1  0.82175000  0.19644300  0.07998400  1
  Zn  Zn4  1  0.32175000  0.69644300  0.57998400  1
  H  H1  1  0.59747400  0.44937100  0.00017200  1
  H  H2  1  0.09747400  0.94937100  0.50017200  1
  H  H3  1  0.90325300  0.36696900  0.87398800  1
  H  H4  1  0.40325300  0.86696900  0.37398800  1
  H  H5  1  0.94016200  0.44399800  0.30509100  1
  H  H6  1  0.44016200  0.94399800  0.80509100  1
  H  H7  1  0.24214800  0.52261100  0.92949400  1
  H  H8  1  0.74214800  0.02261100  0.42949400  1
  H  H9  1  0.26638900  0.00753200  0.07721400  1
  H  H10  1  0.76638900  0.50753200  0.57721400  1
  H  H11  1  0.45276500  0.91411100  0.04954600  1
  H  H12  1  0.95276500  0.41411100  0.54954600  1
  H  H13  1  0.46601600  0.44527600  0.00018600  1
  H  H14  1  0.96601600  0.94527600  0.50018600  1
  H  H15  1  0.89920800  0.35835800  0.19600700  1
  H  H16  1  0.39920800  0.85835800  0.69600700  1
  H  H17  1  0.74431300  0.03450900  0.33419800  1
  H  H18  1  0.24431300  0.53450900  0.83419800  1
  H  H19  1  0.15048000  0.43545600  0.00024300  1
  H  H20  1  0.65048000  0.93545600  0.50024300  1
  H  H21  1  0.39784500  0.01162100  0.07719000  1
  H  H22  1  0.89784500  0.51162100  0.57719000  1
  H  H23  1  0.03967000  0.56124100  0.00027100  1
  H  H24  1  0.53967000  0.06124100  0.50027100  1
  H  H25  1  0.93540800  0.20321700  0.43112000  1
  H  H26  1  0.43540800  0.70321700  0.93112000  1
  H  H27  1  0.34382800  0.48325100  0.88246900  1
  H  H28  1  0.84382800  0.98325100  0.38246900  1
  H  H29  1  0.74432600  0.03451400  0.19590800  1
  H  H30  1  0.24432600  0.53451400  0.69590800  1
  H  H31  1  0.89916100  0.35836300  0.66621600  1
  H  H32  1  0.39916100  0.85836300  0.16621600  1
  H  H33  1  0.04599700  0.94350600  0.00030900  1
  H  H34  1  0.54599700  0.44350600  0.50030900  1
  H  H35  1  0.17745900  0.94759600  0.00023900  1
  H  H36  1  0.67745900  0.44759600  0.50023900  1
  H  H37  1  0.99552500  0.20674600  0.54021900  1
  H  H38  1  0.49552500  0.70674600  0.04021900  1
  H  H39  1  0.60381100  0.83162300  0.00015500  1
  H  H40  1  0.10381100  0.33162300  0.50015500  1
  H  H41  1  0.64797600  0.18570100  0.46020800  1
  H  H42  1  0.14797600  0.68570100  0.96020800  1
  H  H43  1  0.64793900  0.18613300  0.54003700  1
  H  H44  1  0.14793900  0.68613300  0.04003700  1
  H  H45  1  0.67770100  0.04325400  0.67065900  1
  H  H46  1  0.17770100  0.54325400  0.17065900  1
  H  H47  1  0.70331300  0.94885200  0.77516100  1
  H  H48  1  0.20331300  0.44885200  0.27516100  1
  C  C1  1  0.69482100  0.20805300  0.00017600  1
  C  C2  1  0.19482100  0.70805300  0.50017600  1
  C  C3  1  0.61769900  0.20565500  0.00015700  1
  C  C4  1  0.11769900  0.70565500  0.50015700  1
  C  C5  1  0.82511300  0.92669100  0.00020600  1
  C  C6  1  0.32511300  0.42669100  0.50020600  1
  C  C7  1  0.82271300  0.76293200  0.00020800  1
  C  C8  1  0.32271300  0.26293200  0.50020800  1
  C  C9  1  0.57403700  0.33896700  0.00017000  1
  C  C10  1  0.07403700  0.83896700  0.50017000  1
  C  C11  1  0.50157200  0.33671400  0.00017800  1
  C  C12  1  0.00157200  0.83671400  0.50017800  1
  C  C13  1  0.47277300  0.20114200  0.00018800  1
  C  C14  1  0.97277300  0.70114200  0.50018800  1
  C  C15  1  0.51644400  0.06781300  0.00017100  1
  C  C16  1  0.01644400  0.56781300  0.50017100  1
  C  C17  1  0.58890700  0.07006900  0.00015500  1
  C  C18  1  0.08890700  0.57006900  0.50015500  1
  C  C19  1  0.36369000  0.09456900  0.04263800  1
  C  C20  1  0.86369000  0.59456900  0.54263800  1
  C  C21  1  0.29122800  0.09231800  0.04265700  1
  C  C22  1  0.79122800  0.59231800  0.54265700  1
  C  C23  1  0.24927300  0.19417600  0.00023200  1
  C  C24  1  0.74927300  0.69417600  0.50023200  1
  C  C25  1  0.27978700  0.29831000  0.95779500  1
  C  C26  1  0.77978700  0.79831000  0.45779500  1
  C  C27  1  0.35225000  0.30056700  0.95778000  1
  C  C28  1  0.85225000  0.80056700  0.45778000  1
  C  C29  1  0.39420000  0.19868000  0.00020400  1
  C  C30  1  0.89420000  0.69868000  0.50020400  1
  C  C31  1  0.12703600  0.32505400  0.00025200  1
  C  C32  1  0.62703600  0.82505400  0.50025200  1
  C  C33  1  0.05457100  0.32279600  0.00025600  1
  C  C34  1  0.55457100  0.82279600  0.50025600  1
  C  C35  1  0.06944500  0.05389100  0.00025600  1
  C  C36  1  0.56944500  0.55389100  0.50025600  1
  C  C37  1  0.14190900  0.05615300  0.00024500  1
  C  C38  1  0.64190900  0.55615300  0.50024500  1
  C  C39  1  0.17070000  0.19173900  0.00024700  1
  C  C40  1  0.67070000  0.69173900  0.50024700  1
  C  C41  1  0.94865400  0.18482500  0.00024000  1
  C  C42  1  0.44865400  0.68482500  0.50024000  1
  C  C43  1  0.02577600  0.18722300  0.00026400  1
  C  C44  1  0.52577600  0.68722300  0.50026400  1
  C  C45  1  0.81836200  0.46618600  0.00021100  1
  C  C46  1  0.31836200  0.96618600  0.50021100  1
  C  C47  1  0.82076200  0.62994600  0.00021400  1
  C  C48  1  0.32076200  0.12994600  0.50021400  1
  C  C49  1  0.86439400  0.28568200  0.77345700  1
  C  C50  1  0.36439400  0.78568200  0.27345700  1
  C  C51  1  0.86440500  0.28567800  0.69722900  1
  C  C52  1  0.36440500  0.78567800  0.19722900  1
  C  C53  1  0.82172400  0.19643700  0.65908700  1
  C  C54  1  0.32172400  0.69643700  0.15908700  1
  C  C55  1  0.77904100  0.10716500  0.69717800  1
  C  C56  1  0.27904100  0.60716500  0.19717800  1
  C  C57  1  0.77903600  0.10716100  0.77340500  1
  C  C58  1  0.27903600  0.60716100  0.27340500  1
  C  C59  1  0.75908300  0.19270600  0.53829000  1
  C  C60  1  0.25908300  0.69270600  0.03829000  1
  C  C61  1  0.75908600  0.19272100  0.46206500  1
  C  C62  1  0.25908600  0.69272100  0.96206500  1
  C  C63  1  0.82173900  0.19644200  0.42397900  1
  C  C64  1  0.32173900  0.69644200  0.92397900  1
  C  C65  1  0.88439000  0.20017900  0.46212700  1
  C  C66  1  0.38439000  0.70017900  0.96212700  1
  C  C67  1  0.88438500  0.20017500  0.53835400  1
  C  C68  1  0.38438500  0.70017500  0.03835400  1
  C  C69  1  0.82172500  0.19643100  0.57643200  1
  C  C70  1  0.32172500  0.69643100  0.07643200  1
  C  C71  1  0.86443500  0.28569600  0.30324200  1
  C  C72  1  0.36443500  0.78569600  0.80324200  1
  C  C73  1  0.86444800  0.28568100  0.22701300  1
  C  C74  1  0.36444800  0.78568100  0.72701300  1
  C  C75  1  0.77907700  0.10717700  0.22696300  1
  C  C76  1  0.27907700  0.60717700  0.72696300  1
  C  C77  1  0.77907100  0.10718300  0.30319100  1
  C  C78  1  0.27907100  0.60718300  0.80319100  1
  C  C79  1  0.82174900  0.19645100  0.34132600  1
  C  C80  1  0.32174900  0.69645100  0.84132600  1
  N  N1  1  0.82171400  0.19642800  0.81153900  1
  N  N2  1  0.32171400  0.69642800  0.31153900  1
  N  N3  1  0.82176700  0.19643800  0.18887500  1
  N  N4  1  0.32176700  0.69643800  0.68887500  1
  O  O1  1  0.92278100  0.18402900  0.06078200  1
  O  O2  1  0.42278100  0.68402900  0.56078200  1
  O  O3  1  0.72071300  0.20885500  0.06073200  1
  O  O4  1  0.22071300  0.70885500  0.56073200  1
  O  O5  1  0.82592500  0.98165300  0.06075500  1
  O  O6  1  0.32592500  0.48165300  0.56075500  1
  O  O7  1  0.81756900  0.41123100  0.06075900  1
  O  O8  1  0.31756900  0.91123100  0.56075900  1
  O  O9  1  0.82590600  0.98164700  0.93965600  1
  O  O10  1  0.32590600  0.48164700  0.43965600  1
  O  O11  1  0.72069400  0.20884800  0.93963300  1
  O  O12  1  0.22069400  0.70884800  0.43963300  1
  O  O13  1  0.92276200  0.18402300  0.93968300  1
  O  O14  1  0.42276200  0.68402300  0.43968300  1
  O  O15  1  0.81755100  0.41122500  0.93966000  1
  O  O16  1  0.31755100  0.91122500  0.43966000  1
  O  O17  1  0.91042900  0.38195400  0.81458400  1
  O  O18  1  0.41042900  0.88195400  0.31458400  1
  O  O19  1  0.91047100  0.38195200  0.34438200  1
  O  O20  1  0.41047100  0.88195200  0.84438200  1
  O  O21  1  0.23454300  0.40817200  0.91202800  1
  O  O22  1  0.73454300  0.90817200  0.41202800  1
  O  O23  1  0.48538900  0.92158300  0.00017800  1
  O  O24  1  0.98538900  0.42158300  0.50017800  1
  O  O25  1  0.00747200  0.46658800  0.00026700  1
  O  O26  1  0.50747200  0.96658800  0.50026700  1
  O  O27  1  0.38516900  0.41281700  0.91198300  1
  O  O28  1  0.88516900  0.91281700  0.41198300  1
  O  O29  1  0.95195300  0.20417300  0.57950300  1
  O  O30  1  0.45195300  0.70417300  0.07950300  1
  O  O31  1  0.63600700  0.92627800  0.00014500  1
  O  O32  1  0.13600700  0.42627800  0.50014500  1
  O  O33  1  0.69153500  0.18841900  0.42092000  1
  O  O34  1  0.19153500  0.68841900  0.92092000  1
  O  O35  1  0.69150300  0.18870300  0.57936800  1
  O  O36  1  0.19150300  0.68870300  0.07936800  1
  O  O37  1  0.73301300  0.01088400  0.65604900  1
  O  O38  1  0.23301300  0.51088400  0.15604900  1
  O  O39  1  0.73299400  0.01090500  0.81448700  1
  O  O40  1  0.23299400  0.51090500  0.31448700  1
