# generated using pymatgen
data_CuH36C35NO4
_symmetry_space_group_name_H-M   'P 1'
_cell_length_a   17.69910400
_cell_length_b   14.85355900
_cell_length_c   16.17631900
_cell_angle_alpha   89.99539300
_cell_angle_beta   89.99169600
_cell_angle_gamma   83.46148600
_symmetry_Int_Tables_number   1
_chemical_formula_structural   CuH36C35NO4
_chemical_formula_sum   'Cu2 H72 C70 N2 O8'
_cell_volume   4225.00691720
_cell_formula_units_Z   2
loop_
 _symmetry_equiv_pos_site_id
 _symmetry_equiv_pos_as_xyz
  1  'x, y, z'
loop_
 _atom_site_type_symbol
 _atom_site_label
 _atom_site_symmetry_multiplicity
 _atom_site_fract_x
 _atom_site_fract_y
 _atom_site_fract_z
 _atom_site_occupancy
  Cu  Cu1  1  0.89417500  0.12149500  0.08128900  1
  Cu  Cu2  1  0.89419400  0.12150600  0.91868800  1
  H  H1  1  0.64825800  0.27567100  0.00000000  1
  H  H2  1  0.10770200  0.26541000  0.99998800  1
  H  H3  1  0.28948800  0.29485900  0.95209600  1
  H  H4  1  0.28946500  0.29476200  0.04799600  1
  H  H5  1  0.16939200  0.35764400  0.95209400  1
  H  H6  1  0.16935100  0.35757600  0.04798600  1
  H  H7  1  0.26055200  0.44873700  0.04808000  1
  H  H8  1  0.26057400  0.44882400  0.95217900  1
  H  H9  1  0.18993100  0.49285400  0.00013900  1
  H  H10  1  0.68067100  0.97758600  0.99999200  1
  H  H11  1  0.89054300  0.39514400  0.13595800  1
  H  H12  1  0.50502900  0.27295100  0.99999600  1
  H  H13  1  0.98746000  0.01015500  0.63925700  1
  H  H14  1  0.75623100  0.28593700  0.33450700  1
  H  H15  1  0.81416900  0.28684000  0.40637100  1
  H  H16  1  0.71332500  0.16393600  0.38850300  1
  H  H17  1  0.77124000  0.16482600  0.46037800  1
  H  H18  1  0.71637000  0.30010600  0.49949700  1
  H  H19  1  0.65843800  0.29920000  0.42762800  1
  H  H20  1  0.65767200  0.23009500  0.49944800  1
  H  H21  1  0.53745400  0.97486500  0.99998200  1
  H  H22  1  0.99408200  0.00200600  0.86566300  1
  H  H23  1  0.05192000  0.00301000  0.79369600  1
  H  H24  1  0.93851500  0.89511000  0.80106600  1
  H  H25  1  0.99634700  0.89608100  0.72910100  1
  H  H26  1  0.09094200  0.85289000  0.81578500  1
  H  H27  1  0.03309900  0.85189400  0.88775000  1
  H  H28  1  0.03204100  0.78312000  0.81570900  1
  H  H29  1  0.85148100  0.71140500  0.73793800  1
  H  H30  1  0.93968700  0.69742600  0.73797900  1
  H  H31  1  0.85342500  0.83445800  0.81563700  1
  H  H32  1  0.94162400  0.82051400  0.81567900  1
  H  H33  1  0.94196200  0.83704400  0.67916900  1
  H  H34  1  0.85375500  0.85101500  0.67913400  1
  H  H35  1  0.89910100  0.92206100  0.72086000  1
  H  H36  1  0.28334500  0.97005000  0.99997000  1
  H  H37  1  0.14011600  0.96732400  0.99996700  1
  H  H38  1  0.89777000  0.84783900  0.13596200  1
  H  H39  1  0.80094700  0.23286600  0.79629500  1
  H  H40  1  0.03302000  0.02565200  0.15830400  1
  H  H41  1  0.97416900  0.95583100  0.15834900  1
  H  H42  1  0.07366300  0.97714800  0.28221600  1
  H  H43  1  0.01483400  0.90731100  0.28227700  1
  H  H44  1  0.07061500  0.84056300  0.17165200  1
  H  H45  1  0.12946100  0.91039200  0.17160900  1
  H  H46  1  0.12839700  0.84161500  0.24365700  1
  H  H47  1  0.98743600  0.01013900  0.36069100  1
  H  H48  1  0.80093100  0.23285600  0.63928800  1
  H  H49  1  0.89782300  0.84785300  0.86399600  1
  H  H50  1  0.93694000  0.53162800  0.73793300  1
  H  H51  1  0.84873300  0.54563400  0.73799400  1
  H  H52  1  0.93496400  0.40856300  0.81562800  1
  H  H53  1  0.84676500  0.42253400  0.81568900  1
  H  H54  1  0.84643200  0.40603400  0.67917900  1
  H  H55  1  0.93463900  0.39203600  0.67912400  1
  H  H56  1  0.88927400  0.32099700  0.72085700  1
  H  H57  1  0.89058600  0.39515600  0.86400900  1
  H  H58  1  0.75530500  0.21731500  0.15835400  1
  H  H59  1  0.81415500  0.28713900  0.15834900  1
  H  H60  1  0.71468000  0.26583400  0.28227300  1
  H  H61  1  0.77350600  0.33567400  0.28228400  1
  H  H62  1  0.71770700  0.40240500  0.17167000  1
  H  H63  1  0.65886300  0.33257300  0.17167600  1
  H  H64  1  0.65993600  0.40136000  0.24370400  1
  H  H65  1  0.89278700  0.53618600  0.21090800  1
  H  H66  1  0.85226600  0.76303600  0.23459300  1
  H  H67  1  0.94047300  0.74906000  0.23450900  1
  H  H68  1  0.85009400  0.62840100  0.29383700  1
  H  H69  1  0.93829200  0.61440800  0.29377900  1
  H  H70  1  0.94030300  0.73457600  0.37520100  1
  H  H71  1  0.85209500  0.74855000  0.37527600  1
  H  H72  1  0.89494500  0.66330100  0.41659000  1
  C  C1  1  0.75581800  0.12837300  0.99999000  1
  C  C2  1  0.67179600  0.12677100  0.99999100  1
  C  C3  1  0.14711100  0.19912600  0.99998200  1
  C  C4  1  0.22605900  0.20062600  0.99997900  1
  C  C5  1  0.27446700  0.11922800  0.99998000  1
  C  C6  1  0.24392500  0.03632600  0.99997500  1
  C  C7  1  0.16497800  0.03482700  0.99997100  1
  C  C8  1  0.56230600  0.04236800  0.99998800  1
  C  C9  1  0.64125700  0.04387400  0.99999400  1
  C  C10  1  0.62338700  0.20816700  0.99999600  1
  C  C11  1  0.54444000  0.20666900  0.99999300  1
  C  C12  1  0.51390500  0.12376700  0.99998300  1
  C  C13  1  0.42830100  0.12214100  0.99998400  1
  C  C14  1  0.36007000  0.12085300  0.99998500  1
  C  C15  1  0.89954100  0.95666200  0.99998800  1
  C  C16  1  0.89794600  0.85658400  0.99998300  1
  C  C17  1  0.89118500  0.43343800  0.92503600  1
  C  C18  1  0.89116700  0.43343300  0.07493600  1
  C  C19  1  0.89267300  0.52746100  0.07493700  1
  C  C20  1  0.89343300  0.57448200  0.99998600  1
  C  C21  1  0.89268800  0.52747500  0.92503400  1
  C  C22  1  0.89341000  0.57447700  0.14988700  1
  C  C23  1  0.89491500  0.66851100  0.14989100  1
  C  C24  1  0.89568100  0.71553200  0.07493900  1
  C  C25  1  0.89493700  0.66851900  0.99998400  1
  C  C26  1  0.89569700  0.71553900  0.92503300  1
  C  C27  1  0.89495800  0.66852700  0.85007800  1
  C  C28  1  0.89345400  0.57449600  0.85008200  1
  C  C29  1  0.89718500  0.80956300  0.07493400  1
  C  C30  1  0.89720100  0.80957600  0.92503200  1
  C  C31  1  0.03255200  0.11462800  0.99998500  1
  C  C32  1  0.11657300  0.11623000  0.99997900  1
  C  C33  1  0.88882800  0.28633900  0.99998700  1
  C  C34  1  0.89042400  0.38641700  0.99998700  1
  C  C35  1  0.94557400  0.06011400  0.23891900  1
  C  C36  1  0.94557800  0.06011400  0.32546600  1
  C  C37  1  0.89417800  0.12149000  0.36874700  1
  C  C38  1  0.84276700  0.18286600  0.32547700  1
  C  C39  1  0.84276000  0.18286200  0.23893200  1
  C  C40  1  0.84279300  0.18288300  0.67450500  1
  C  C41  1  0.84280500  0.18288400  0.76105700  1
  C  C42  1  0.94561000  0.06013400  0.76103900  1
  C  C43  1  0.94560300  0.06013000  0.67449400  1
  C  C44  1  0.89419000  0.12150200  0.63123100  1
  C  C45  1  0.89418500  0.12150200  0.53738700  1
  C  C46  1  0.89418600  0.12149600  0.46259000  1
  C  C47  1  0.25906800  0.29072100  0.00002900  1
  C  C48  1  0.19977700  0.36168400  0.00005600  1
  C  C49  1  0.23015400  0.44469500  0.00011300  1
  C  C50  1  0.78692400  0.24935900  0.37257400  1
  C  C51  1  0.74056900  0.20140000  0.42229600  1
  C  C52  1  0.68912500  0.26262600  0.46570100  1
  C  C53  1  0.00138600  0.99334500  0.80790800  1
  C  C54  1  0.98903700  0.90477100  0.78684800  1
  C  C55  1  0.04040800  0.84322500  0.82999800  1
  C  C56  1  0.89581200  0.71974200  0.76879000  1
  C  C57  1  0.89729500  0.81215000  0.78483900  1
  C  C58  1  0.89808700  0.85935900  0.70998000  1
  C  C59  1  0.00141400  0.99337400  0.19208100  1
  C  C60  1  0.04641900  0.93961000  0.24849800  1
  C  C61  1  0.09786000  0.87810600  0.20538400  1
  C  C62  1  0.89260300  0.52329900  0.76879400  1
  C  C63  1  0.89109900  0.43089100  0.78484000  1
  C  C64  1  0.89030100  0.38369900  0.70998000  1
  C  C65  1  0.78691500  0.24960000  0.19210500  1
  C  C66  1  0.74191700  0.30336900  0.24853100  1
  C  C67  1  0.69046800  0.36486500  0.20542600  1
  C  C68  1  0.89576500  0.71937800  0.23135400  1
  C  C69  1  0.89479700  0.65806800  0.29699100  1
  C  C70  1  0.89559500  0.70489300  0.37204600  1
  N  N1  1  0.89416800  0.12148700  0.19565500  1
  N  N2  1  0.89420800  0.12150600  0.80432300  1
  O  O1  1  0.00436200  0.11409800  0.93124100  1
  O  O2  1  0.78402400  0.12891100  0.93124300  1
  O  O3  1  0.90008200  0.99025300  0.93124300  1
  O  O4  1  0.88830400  0.25275600  0.93124100  1
  O  O5  1  0.90006600  0.99024400  0.06873600  1
  O  O6  1  0.78400800  0.12890200  0.06873600  1
  O  O7  1  0.00434600  0.11408900  0.06873400  1
  O  O8  1  0.88828800  0.25274700  0.06873400  1
