# generated using pymatgen
data_Zn4H24C30O13
_symmetry_space_group_name_H-M   'P 1'
_cell_length_a   11.16941600
_cell_length_b   12.75940100
_cell_length_c   12.75938600
_cell_angle_alpha   90.04038800
_cell_angle_beta   89.93898400
_cell_angle_gamma   89.98949900
_symmetry_Int_Tables_number   1
_chemical_formula_structural   Zn4H24C30O13
_chemical_formula_sum   'Zn4 H24 C30 O13'
_cell_volume   1818.40311808
_cell_formula_units_Z   1
loop_
 _symmetry_equiv_pos_site_id
 _symmetry_equiv_pos_as_xyz
  1  'x, y, z'
loop_
 _atom_site_type_symbol
 _atom_site_label
 _atom_site_symmetry_multiplicity
 _atom_site_fract_x
 _atom_site_fract_y
 _atom_site_fract_z
 _atom_site_occupancy
  Zn  Zn1  1  0.52265200  0.39348600  0.40599700  1
  Zn  Zn2  1  0.32180600  0.39364500  0.58166800  1
  Zn  Zn3  1  0.52247600  0.56925100  0.58165700  1
  Zn  Zn4  1  0.32201200  0.56918200  0.40602600  1
  H  H1  1  0.56160000  0.88142300  0.61551600  1
  H  H2  1  0.57248300  0.16936400  0.62506300  1
  H  H3  1  0.66412900  0.07816900  0.61917600  1
  H  H4  1  0.56598000  0.07824300  0.70529200  1
  H  H5  1  0.56048600  0.60414700  0.89366800  1
  H  H6  1  0.13214200  0.36430300  0.82423500  1
  H  H7  1  0.11100400  0.43187400  0.92367600  1
  H  H8  1  0.07604800  0.31421200  0.92355200  1
  H  H9  1  0.28995100  0.06958200  0.27194400  1
  H  H10  1  0.29029100  0.81110800  0.23934900  1
  H  H11  1  0.36772600  0.91035800  0.22104300  1
  H  H12  1  0.23354100  0.91034300  0.18979300  1
  H  H13  1  0.08438100  0.93539900  0.40645300  1
  H  H14  1  0.15180900  0.83807500  0.44908800  1
  H  H15  1  0.10272800  0.83799600  0.33539700  1
  H  H16  1  0.56087600  0.60391200  0.09273000  1
  H  H17  1  0.16989100  0.36394300  0.08259300  1
  H  H18  1  0.16377800  0.06540900  0.37122200  1
  H  H19  1  0.32441600  0.18500600  0.94759900  1
  H  H20  1  0.37255100  0.24439700  0.85023500  1
  H  H21  1  0.24294900  0.20070600  0.85047700  1
  H  H22  1  0.30712500  0.18060700  0.03022000  1
  H  H23  1  0.22970700  0.19817600  0.12971200  1
  H  H24  1  0.36359400  0.23048800  0.12944500  1
  C  C1  1  0.42225900  0.75435800  0.49385100  1
  C  C2  1  0.42223900  0.87113500  0.49383200  1
  C  C3  1  0.11041200  0.48143300  0.49384500  1
  C  C4  1  0.97701200  0.48135400  0.49381300  1
  C  C5  1  0.42253500  0.48121300  0.21980300  1
  C  C6  1  0.42266200  0.48113700  0.10302600  1
  C  C7  1  0.73527900  0.48132000  0.49380600  1
  C  C8  1  0.86867900  0.48129000  0.49379300  1
  C  C9  1  0.42221400  0.20735800  0.49382200  1
  C  C10  1  0.42220400  0.09058100  0.49381600  1
  C  C11  1  0.34542800  0.92594300  0.42675500  1
  C  C12  1  0.34541200  0.03566700  0.42674300  1
  C  C13  1  0.49902400  0.03576500  0.56089600  1
  C  C14  1  0.49904400  0.92604300  0.56090200  1
  C  C15  1  0.25673700  0.92588700  0.34930600  1
  C  C16  1  0.25672200  0.03561100  0.34929400  1
  C  C17  1  0.42202600  0.48150800  0.76680500  1
  C  C18  1  0.42223700  0.48138100  0.88358100  1
  C  C19  1  0.34614800  0.41365900  0.93849900  1
  C  C20  1  0.34635600  0.41353900  0.04822300  1
  C  C21  1  0.49875400  0.54886600  0.04810000  1
  C  C22  1  0.49853900  0.54899000  0.93837800  1
  C  C23  1  0.25816600  0.33552500  0.93857100  1
  C  C24  1  0.25837400  0.33540600  0.04829500  1
  C  C25  1  0.58349800  0.09616800  0.63466900  1
  C  C26  1  0.13228400  0.36423300  0.89869200  1
  C  C27  1  0.29029300  0.88556600  0.23934100  1
  C  C28  1  0.13749700  0.87993600  0.38885100  1
  C  C29  1  0.30390500  0.23144400  0.89228500  1
  C  C30  1  0.29301100  0.22565800  0.08824700  1
  O  O1  1  0.42223700  0.48139100  0.49383700  1
  O  O2  1  0.49599700  0.24648600  0.42929200  1
  O  O3  1  0.34826600  0.41703500  0.72868800  1
  O  O4  1  0.69044900  0.54589800  0.55833900  1
  O  O5  1  0.34843600  0.24660300  0.55835700  1
  O  O6  1  0.69057900  0.41676400  0.42928200  1
  O  O7  1  0.49569700  0.54605200  0.72868000  1
  O  O8  1  0.49589600  0.71626300  0.55836800  1
  O  O9  1  0.34878700  0.54578000  0.25900100  1
  O  O10  1  0.34861600  0.71621200  0.42933200  1
  O  O11  1  0.49619700  0.41669700  0.25897900  1
  O  O12  1  0.15388400  0.41696800  0.55838500  1
  O  O13  1  0.15403500  0.54593400  0.42934200  1
