# generated using pymatgen
data_Zn4H7C27N5O13
_symmetry_space_group_name_H-M   'P 1'
_cell_length_a   10.68622000
_cell_length_b   10.68628500
_cell_length_c   17.07739500
_cell_angle_alpha   85.60967100
_cell_angle_beta   94.35503400
_cell_angle_gamma   90.34543000
_symmetry_Int_Tables_number   1
_chemical_formula_structural   Zn4H7C27N5O13
_chemical_formula_sum   'Zn4 H7 C27 N5 O13'
_cell_volume   1938.83332511
_cell_formula_units_Z   1
loop_
 _symmetry_equiv_pos_site_id
 _symmetry_equiv_pos_as_xyz
  1  'x, y, z'
loop_
 _atom_site_type_symbol
 _atom_site_label
 _atom_site_symmetry_multiplicity
 _atom_site_fract_x
 _atom_site_fract_y
 _atom_site_fract_z
 _atom_site_occupancy
  Zn  Zn1  1  0.95612100  0.64790100  0.66615300  1
  Zn  Zn2  1  0.97213800  0.43811600  0.80816600  1
  Zn  Zn3  1  0.74636800  0.63175000  0.78817600  1
  Zn  Zn4  1  0.76244600  0.42208000  0.66771100  1
  H  H1  1  0.96448500  0.02120100  0.80283600  1
  H  H2  1  0.75410400  0.05001200  0.66216000  1
  H  H3  1  0.34551100  0.42974200  0.67230800  1
  H  H4  1  0.99380500  0.69189300  0.28313700  1
  H  H5  1  0.99388600  0.69202200  0.03028800  1
  H  H6  1  0.37429500  0.64023400  0.79283600  1
  H  H7  1  0.72502800  0.37849800  0.18116500  1
  C  C1  1  0.88424100  0.20904100  0.74928000  1
  C  C2  1  0.89503900  0.06961900  0.75641600  1
  C  C3  1  0.53335300  0.50995000  0.71822900  1
  C  C4  1  0.39392700  0.49922000  0.71208500  1
  C  C5  1  0.18645600  0.56007000  0.74693000  1
  C  C6  1  0.32588400  0.57077000  0.75305700  1
  C  C7  1  0.85931500  0.53505100  0.52780500  1
  C  C8  1  0.85933600  0.53508900  0.44055400  1
  C  C9  1  0.83423200  0.86215800  0.71574200  1
  C  C10  1  0.82356300  0.00158900  0.70857800  1
  C  C11  1  0.93355300  0.62165900  0.06414000  1
  C  C12  1  0.93353100  0.62161300  0.14612100  1
  C  C13  1  0.85943000  0.53521600  0.18770400  1
  C  C14  1  0.78535600  0.44885000  0.14730100  1
  C  C15  1  0.78538600  0.44889100  0.06532200  1
  C  C16  1  0.78529700  0.44877200  0.31817200  1
  C  C17  1  0.78526500  0.44873200  0.40015700  1
  C  C18  1  0.93344100  0.62149500  0.39897200  1
  C  C19  1  0.93347100  0.62153600  0.31699200  1
  C  C20  1  0.85939500  0.53517100  0.27659500  1
  C  C21  1  0.85928600  0.53496900  0.93650000  1
  C  C22  1  0.85948200  0.53530300  0.02374300  1
  C  C23  1  0.01500300  0.71662300  0.19055300  1
  C  C24  1  0.01493400  0.71649000  0.44341100  1
  C  C25  1  0.70376900  0.35367400  0.44589800  1
  C  C26  1  0.70380600  0.35376900  0.27373700  1
  C  C27  1  0.70389900  0.35389500  0.02088500  1
  N  N1  1  0.07636800  0.78819200  0.22401800  1
  N  N2  1  0.07631100  0.78803900  0.47688600  1
  N  N3  1  0.64239200  0.28206900  0.48035100  1
  N  N4  1  0.64242200  0.28221900  0.24026800  1
  N  N5  1  0.64252200  0.28233800  0.98741700  1
  O  O1  1  0.85926800  0.53496200  0.73255100  1
  O  O2  1  0.13378400  0.63354300  0.69270500  1
  O  O3  1  0.94216400  0.46375400  0.91536300  1
  O  O4  1  0.76076000  0.80943500  0.76297000  1
  O  O5  1  0.14555200  0.47941500  0.79704200  1
  O  O6  1  0.91486400  0.82130200  0.67332100  1
  O  O7  1  0.77629100  0.60601600  0.90067500  1
  O  O8  1  0.57296200  0.59046600  0.76448200  1
  O  O9  1  0.78816300  0.45208300  0.55765600  1
  O  O10  1  0.58477400  0.43642200  0.67597700  1
  O  O11  1  0.93045500  0.61799300  0.55651100  1
  O  O12  1  0.95775400  0.26044600  0.79855300  1
  O  O13  1  0.80369400  0.24866400  0.69536100  1
