# generated using pymatgen
data_CuH4C11NO4
_symmetry_space_group_name_H-M   'P 1'
_cell_length_a   9.06521800
_cell_length_b   13.33036700
_cell_length_c   9.06521500
_cell_angle_alpha   89.99402200
_cell_angle_beta   85.01529100
_cell_angle_gamma   90.00710400
_symmetry_Int_Tables_number   1
_chemical_formula_structural   CuH4C11NO4
_chemical_formula_sum   'Cu2 H8 C22 N2 O8'
_cell_volume   1091.32175271
_cell_formula_units_Z   2
loop_
 _symmetry_equiv_pos_site_id
 _symmetry_equiv_pos_as_xyz
  1  'x, y, z'
loop_
 _atom_site_type_symbol
 _atom_site_label
 _atom_site_symmetry_multiplicity
 _atom_site_fract_x
 _atom_site_fract_y
 _atom_site_fract_z
 _atom_site_occupancy
  Cu  Cu1  1  0.74572700  0.90134300  0.22524800  1
  Cu  Cu2  1  0.74576700  0.09865900  0.22520600  1
  H  H1  1  0.91023300  0.75280000  0.38992300  1
  H  H2  1  0.00093900  0.59528000  0.48062200  1
  H  H3  1  0.49053800  0.59526400  0.96983800  1
  H  H4  1  0.49059900  0.40473100  0.96981000  1
  H  H5  1  0.58120300  0.75280200  0.06063200  1
  H  H6  1  0.00095700  0.40472600  0.48058600  1
  H  H7  1  0.91030100  0.24719000  0.38980900  1
  H  H8  1  0.58129800  0.24719800  0.06053200  1
  C  C1  1  0.47611800  0.00000200  0.23239400  1
  C  C2  1  0.31227500  0.00000200  0.22729500  1
  C  C3  1  0.83646900  0.28995100  0.31592100  1
  C  C4  1  0.65510900  0.28995800  0.13443100  1
  C  C5  1  0.65508800  0.39497700  0.13445400  1
  C  C6  1  0.74576000  0.44748700  0.22521000  1
  C  C7  1  0.83645400  0.39497900  0.31594300  1
  C  C8  1  0.56440700  0.44749300  0.04371100  1
  C  C9  1  0.56438400  0.55251700  0.04372900  1
  C  C10  1  0.65504900  0.60503000  0.13449400  1
  C  C11  1  0.74574500  0.55251500  0.22523200  1
  C  C12  1  0.83641800  0.60502500  0.31598800  1
  C  C13  1  0.92710700  0.55251300  0.40673500  1
  C  C14  1  0.92711900  0.44749100  0.40670800  1
  C  C15  1  0.65503700  0.71005100  0.13452100  1
  C  C16  1  0.83640200  0.71005300  0.31601000  1
  C  C17  1  0.01537600  0.00000200  0.21805900  1
  C  C18  1  0.17921900  0.00000900  0.22315900  1
  C  C19  1  0.75291700  0.99999800  0.95559700  1
  C  C20  1  0.74781900  0.00000100  0.79175400  1
  C  C21  1  0.73857600  0.00000600  0.49485600  1
  C  C22  1  0.74367400  0.00001000  0.65869900  1
  N  N1  1  0.74570900  0.76256100  0.22527700  1
  N  N2  1  0.74579700  0.23744000  0.22516500  1
  O  O1  1  0.96040700  0.08342400  0.21633600  1
  O  O2  1  0.53112200  0.08342500  0.23408200  1
  O  O3  1  0.75464000  0.08342000  0.01056600  1
  O  O4  1  0.73688900  0.08342900  0.43985100  1
  O  O5  1  0.75460500  0.91657300  0.01060200  1
  O  O6  1  0.53108700  0.91657800  0.23411800  1
  O  O7  1  0.96037200  0.91657700  0.21637100  1
  O  O8  1  0.73685400  0.91658200  0.43988700  1
