# generated using pymatgen
data_Zn4H28C40O17
_symmetry_space_group_name_H-M   'P 1'
_cell_length_a   18.21540500
_cell_length_b   12.75940100
_cell_length_c   18.21539900
_cell_angle_alpha   90.01450100
_cell_angle_beta   89.96704000
_cell_angle_gamma   89.97690600
_symmetry_Int_Tables_number   1
_chemical_formula_structural   Zn4H28C40O17
_chemical_formula_sum   'Zn8 H56 C80 O34'
_cell_volume   4233.57917252
_cell_formula_units_Z   2
loop_
 _symmetry_equiv_pos_site_id
 _symmetry_equiv_pos_as_xyz
  1  'x, y, z'
loop_
 _atom_site_type_symbol
 _atom_site_label
 _atom_site_symmetry_multiplicity
 _atom_site_fract_x
 _atom_site_fract_y
 _atom_site_fract_z
 _atom_site_occupancy
  Zn  Zn1  1  0.70699000  0.39387100  0.58394300  1
  Zn  Zn2  1  0.20699000  0.89387100  0.08394300  1
  Zn  Zn3  1  0.58391400  0.39399200  0.70701500  1
  Zn  Zn4  1  0.08391400  0.89399200  0.20701500  1
  Zn  Zn5  1  0.70696600  0.56955400  0.70699100  1
  Zn  Zn6  1  0.20696600  0.06955400  0.20699100  1
  Zn  Zn7  1  0.58396500  0.56961200  0.58398500  1
  Zn  Zn8  1  0.08396500  0.06961200  0.08398500  1
  H  H1  1  0.56018300  0.08083900  0.73102500  1
  H  H2  1  0.06018300  0.58083900  0.23102500  1
  H  H3  1  0.86494700  0.94270700  0.42519900  1
  H  H4  1  0.36494700  0.44270700  0.92519900  1
  H  H5  1  0.86999400  0.83330600  0.49261900  1
  H  H6  1  0.36999400  0.33333333  0.99261900  1
  H  H7  1  0.79757200  0.83324800  0.42055100  1
  H  H8  1  0.29757200  0.33324800  0.92055100  1
  H  H9  1  0.81345700  0.99644600  0.54920300  1
  H  H10  1  0.31345700  0.49644600  0.04920300  1
  H  H11  1  0.74109300  0.99626400  0.47708000  1
  H  H12  1  0.24109300  0.49626400  0.97708000  1
  H  H13  1  0.94708800  0.38300300  0.87596600  1
  H  H14  1  0.44708800  0.88300300  0.37596600  1
  H  H15  1  0.94714300  0.27996500  0.80358200  1
  H  H16  1  0.44714300  0.77996500  0.30358200  1
  H  H17  1  0.02375300  0.28673900  0.87101300  1
  H  H18  1  0.52375300  0.78673900  0.37101300  1
  H  H19  1  0.98483400  0.45699300  0.75217700  1
  H  H20  1  0.48483400  0.95699300  0.25217700  1
  H  H21  1  0.06140200  0.46363000  0.81966100  1
  H  H22  1  0.56140200  0.96363000  0.31966100  1
  H  H23  1  0.89003100  0.66198500  0.51911800  1
  H  H24  1  0.39003100  0.16198500  0.01911800  1
  H  H25  1  0.96656100  0.75839100  0.52406600  1
  H  H26  1  0.46656100  0.25839100  0.02406600  1
  H  H27  1  0.96676700  0.65528600  0.45173900  1
  H  H28  1  0.46676700  0.15528600  0.95173900  1
  H  H29  1  0.97868300  0.61798800  0.62214800  1
  H  H30  1  0.47868300  0.11798800  0.12214800  1
  H  H31  1  0.97886300  0.51500000  0.54974000  1
  H  H32  1  0.47886300  0.01500000  0.04974000  1
  H  H33  1  0.73099700  0.60345100  0.07537400  1
  H  H34  1  0.23099700  0.10345100  0.57537400  1
  H  H35  1  0.73073900  0.08066500  0.55993100  1
  H  H36  1  0.23073900  0.58066500  0.05993100  1
  H  H37  1  0.21555100  0.60371000  0.56015300  1
  H  H38  1  0.71555100  0.10371000  0.06015300  1
  H  H39  1  0.73097300  0.60348300  0.21480100  1
  H  H40  1  0.23097300  0.10348300  0.71480100  1
  H  H41  1  0.56018900  0.88177100  0.73104300  1
  H  H42  1  0.06018900  0.38177100  0.23104300  1
  H  H43  1  0.56020500  0.35977000  0.07541300  1
  H  H44  1  0.06020500  0.85977000  0.57541300  1
  H  H45  1  0.42567800  0.16804200  0.17203800  1
  H  H46  1  0.92567800  0.66804200  0.67203800  1
  H  H47  1  0.49308700  0.16095500  0.24866400  1
  H  H48  1  0.99308700  0.66095500  0.74866400  1
  H  H49  1  0.42089300  0.26426600  0.24872800  1
  H  H50  1  0.92089300  0.76426600  0.74872800  1
  H  H51  1  0.54960200  0.24166400  0.13440000  1
  H  H52  1  0.04960200  0.74166400  0.63440000  1
  H  H53  1  0.47735200  0.34489300  0.13455000  1
  H  H54  1  0.97735200  0.84489300  0.63455000  1
  H  H55  1  0.21555100  0.35974900  0.73078700  1
  H  H56  1  0.71555100  0.85974900  0.23078700  1
  C  C1  1  0.64547900  0.75472400  0.64549700  1
  C  C2  1  0.14547900  0.25472400  0.14549700  1
  C  C3  1  0.64547000  0.87150100  0.64548500  1
  C  C4  1  0.14547000  0.37150100  0.14548500  1
  C  C5  1  0.69247000  0.92631600  0.59833100  1
  C  C6  1  0.19247000  0.42631600  0.09833100  1
  C  C7  1  0.69246500  0.03604000  0.59832800  1
  C  C8  1  0.19246500  0.53604000  0.09832800  1
  C  C9  1  0.59845400  0.03612500  0.69263400  1
  C  C10  1  0.09845400  0.53612500  0.19263400  1
  C  C11  1  0.59846300  0.92640300  0.69264000  1
  C  C12  1  0.09846300  0.42640300  0.19264000  1
  C  C13  1  0.45425300  0.48186800  0.64551900  1
  C  C14  1  0.95425300  0.98186800  0.14551900  1
  C  C15  1  0.37245400  0.48181900  0.64550900  1
  C  C16  1  0.87245400  0.98181900  0.14550900  1
  C  C17  1  0.18426500  0.41447800  0.69248900  1
  C  C18  1  0.68426500  0.91447800  0.19248900  1
  C  C19  1  0.10740600  0.41443100  0.69247100  1
  C  C20  1  0.60740600  0.91443100  0.19247100  1
  C  C21  1  0.10740500  0.54890200  0.59842500  1
  C  C22  1  0.60740500  0.04890200  0.09842500  1
  C  C23  1  0.18426200  0.54894300  0.59844000  1
  C  C24  1  0.68426200  0.04894300  0.09844000  1
  C  C25  1  0.22269000  0.48173200  0.64547600  1
  C  C26  1  0.72269000  0.98173200  0.14547600  1
  C  C27  1  0.06897400  0.48164400  0.64544300  1
  C  C28  1  0.56897400  0.98164400  0.14544300  1
  C  C29  1  0.98564100  0.48159400  0.64542400  1
  C  C30  1  0.48564100  0.98159400  0.14542400  1
  C  C31  1  0.30602900  0.48178100  0.64549500  1
  C  C32  1  0.80602900  0.98178100  0.14549500  1
  C  C33  1  0.83741200  0.48161700  0.64543200  1
  C  C34  1  0.33741200  0.98161700  0.14543200  1
  C  C35  1  0.91921100  0.48155700  0.64541000  1
  C  C36  1  0.41921100  0.98155700  0.14541000  1
  C  C37  1  0.64551800  0.48170800  0.45353000  1
  C  C38  1  0.14551800  0.98170800  0.95353000  1
  C  C39  1  0.64554300  0.48168600  0.37173200  1
  C  C40  1  0.14554300  0.98168600  0.87173200  1
  C  C41  1  0.64544500  0.20772400  0.64547200  1
  C  C42  1  0.14544500  0.70772400  0.14547200  1
  C  C43  1  0.64545600  0.09094700  0.64547500  1
  C  C44  1  0.14545600  0.59094700  0.14547500  1
  C  C45  1  0.69264900  0.54879200  0.18352700  1
  C  C46  1  0.19264900  0.04879200  0.68352700  1
  C  C47  1  0.69266400  0.54877300  0.10666900  1
  C  C48  1  0.19266400  0.04877300  0.60666900  1
  C  C49  1  0.59852400  0.41445600  0.10669800  1
  C  C50  1  0.09852400  0.91445600  0.60669800  1
  C  C51  1  0.59850600  0.41448000  0.18355500  1
  C  C52  1  0.09850600  0.91448000  0.68355500  1
  C  C53  1  0.64557300  0.48164600  0.22196800  1
  C  C54  1  0.14557300  0.98164600  0.72196800  1
  C  C55  1  0.64560600  0.48160400  0.06825200  1
  C  C56  1  0.14560600  0.98160400  0.56825200  1
  C  C57  1  0.64562100  0.48158300  0.98491800  1
  C  C58  1  0.14562100  0.98158300  0.48491800  1
  C  C59  1  0.64555600  0.48166800  0.30530700  1
  C  C60  1  0.14555600  0.98166800  0.80530700  1
  C  C61  1  0.64545300  0.48174600  0.83669000  1
  C  C62  1  0.14545300  0.98174600  0.33669000  1
  C  C63  1  0.64563600  0.48156400  0.91848800  1
  C  C64  1  0.14563600  0.98156400  0.41848800  1
  C  C65  1  0.83141700  0.88464800  0.45893600  1
  C  C66  1  0.33141700  0.38464800  0.95893600  1
  C  C67  1  0.77967200  0.94498900  0.51080800  1
  C  C68  1  0.27967200  0.44498900  0.01080800  1
  C  C69  1  0.98309500  0.33483300  0.83742900  1
  C  C70  1  0.48309500  0.83483300  0.33742900  1
  C  C71  1  0.02543900  0.40883200  0.78577300  1
  C  C72  1  0.52543900  0.90883200  0.28577300  1
  C  C73  1  0.95155800  0.67365700  0.51108200  1
  C  C74  1  0.45155800  0.17365700  0.01108200  1
  C  C75  1  0.99386900  0.59971200  0.56278700  1
  C  C76  1  0.49386900  0.09971200  0.06278700  1
  C  C77  1  0.45934600  0.21597100  0.21271200  1
  C  C78  1  0.95934600  0.71597100  0.71271200  1
  C  C79  1  0.51113800  0.28987400  0.17045600  1
  C  C80  1  0.01113800  0.78987400  0.67045600  1
  O  O1  1  0.64545900  0.48175700  0.64548300  1
  O  O2  1  0.14545900  0.98175700  0.14548300  1
  O  O3  1  0.69065300  0.24686600  0.60026100  1
  O  O4  1  0.19065300  0.74686600  0.10026100  1
  O  O5  1  0.60020600  0.41730800  0.80999600  1
  O  O6  1  0.10020600  0.91730800  0.30999600  1
  O  O7  1  0.80995400  0.54617400  0.69064000  1
  O  O8  1  0.30995400  0.04617400  0.19064000  1
  O  O9  1  0.60022900  0.24695500  0.69068200  1
  O  O10  1  0.10022900  0.74695500  0.19068200  1
  O  O11  1  0.80997100  0.41710000  0.60023800  1
  O  O12  1  0.30997100  0.91710000  0.10023800  1
  O  O13  1  0.69061100  0.54629200  0.80997800  1
  O  O14  1  0.19061100  0.04629200  0.30997800  1
  O  O15  1  0.69066100  0.71658200  0.69068100  1
  O  O16  1  0.19066100  0.21658200  0.19068100  1
  O  O17  1  0.60031600  0.54627300  0.48099500  1
  O  O18  1  0.10031600  0.04627300  0.98099500  1
  O  O19  1  0.60029200  0.71662500  0.60030900  1
  O  O20  1  0.10029200  0.21662500  0.10030900  1
  O  O21  1  0.69070200  0.41715700  0.48096400  1
  O  O22  1  0.19070200  0.91715700  0.98096400  1
  O  O23  1  0.48093700  0.41736400  0.69072200  1
  O  O24  1  0.98093700  0.91736400  0.19072200  1
  O  O25  1  0.48097400  0.54639000  0.60033300  1
  O  O26  1  0.98097400  0.04639000  0.10033300  1
  O  O27  1  0.73820200  0.87314600  0.55250600  1
  O  O28  1  0.23820200  0.37314600  0.05250600  1
  O  O29  1  0.06997600  0.34921600  0.73813600  1
  O  O30  1  0.56997600  0.84921600  0.23813600  1
  O  O31  1  0.06996100  0.61416100  0.55281200  1
  O  O32  1  0.56996100  0.11416100  0.05281200  1
  O  O33  1  0.55275100  0.34915100  0.22078700  1
  O  O34  1  0.05275100  0.84915100  0.72078700  1
