# generated using pymatgen
data_ZnH12C19N5O4
_symmetry_space_group_name_H-M   'P 1'
_cell_length_a   16.10930200
_cell_length_b   14.85356700
_cell_length_c   15.18622900
_cell_angle_alpha   90.00005000
_cell_angle_beta   89.99470100
_cell_angle_gamma   83.54835600
_symmetry_Int_Tables_number   1
_chemical_formula_structural   ZnH12C19N5O4
_chemical_formula_sum   'Zn2 H24 C38 N10 O8'
_cell_volume   3610.75740719
_cell_formula_units_Z   2
loop_
 _symmetry_equiv_pos_site_id
 _symmetry_equiv_pos_as_xyz
  1  'x, y, z'
loop_
 _atom_site_type_symbol
 _atom_site_label
 _atom_site_symmetry_multiplicity
 _atom_site_fract_x
 _atom_site_fract_y
 _atom_site_fract_z
 _atom_site_occupancy
  Zn  Zn1  1  0.98226200  0.12309200  0.09645400  1
  Zn  Zn2  1  0.98227400  0.12309400  0.90349000  1
  H  H1  1  0.40361500  0.12159300  0.85512100  1
  H  H2  1  0.40359400  0.12158600  0.14480900  1
  H  H3  1  0.61503100  0.06963300  0.16947700  1
  H  H4  1  0.60162300  0.18137500  0.16943600  1
  H  H5  1  0.53180600  0.12402900  0.78344000  1
  H  H6  1  0.60173500  0.18133600  0.83054500  1
  H  H7  1  0.87983200  0.23427700  0.58361500  1
  H  H8  1  0.06779800  0.95575700  0.36592000  1
  H  H9  1  0.13646600  0.03019300  0.36594700  1
  H  H10  1  0.87981600  0.23428100  0.41636000  1
  H  H11  1  0.12362800  0.82990900  0.99996400  1
  H  H12  1  0.84884000  0.86898200  0.99996300  1
  H  H13  1  0.08471000  0.01189700  0.58357400  1
  H  H14  1  0.77064300  0.73871000  0.99997400  1
  H  H15  1  0.75774000  0.49018000  0.99998000  1
  H  H16  1  0.71463400  0.57966100  0.05426800  1
  H  H17  1  0.83098600  0.33835900  0.99997200  1
  H  H18  1  0.78788500  0.42783800  0.05426800  1
  H  H19  1  0.12282200  0.29686600  0.99999300  1
  H  H20  1  0.16884600  0.37366300  0.94569200  1
  H  H21  1  0.20102300  0.42714900  0.99998500  1
  H  H22  1  0.24705500  0.50394900  0.94569600  1
  H  H23  1  0.26432300  0.63679500  0.99996800  1
  H  H24  1  0.22111000  0.72621300  0.94567100  1
  C  C1  1  0.83027100  0.12971900  0.99997700  1
  C  C2  1  0.73797400  0.12796700  0.99997900  1
  C  C3  1  0.52562200  0.12391600  0.07980400  1
  C  C4  1  0.43890000  0.12226100  0.07980100  1
  C  C5  1  0.43892000  0.12226700  0.92012600  1
  C  C6  1  0.52564100  0.12391600  0.92013000  1
  C  C7  1  0.56899000  0.12474500  0.99997200  1
  C  C8  1  0.39554600  0.12144100  0.99996500  1
  C  C9  1  0.30151800  0.11964600  0.99996100  1
  C  C10  1  0.66302400  0.12653900  0.99997600  1
  C  C11  1  0.98814700  0.95826500  0.99996700  1
  C  C12  1  0.98639200  0.85818400  0.99995900  1
  C  C13  1  0.90324000  0.44578700  0.99997800  1
  C  C14  1  0.05469700  0.42425700  0.99997300  1
  C  C15  1  0.05634800  0.51828800  0.99996800  1
  C  C16  1  0.98144400  0.57607300  0.99996900  1
  C  C17  1  0.90488900  0.53982700  0.99997600  1
  C  C18  1  0.13290100  0.55454100  0.99997100  1
  C  C19  1  0.13455500  0.64857700  0.99996600  1
  C  C20  1  0.05965000  0.70636400  0.99996100  1
  C  C21  1  0.98309200  0.67011300  0.99996700  1
  C  C22  1  0.90818800  0.72789800  0.99996800  1
  C  C23  1  0.83163000  0.69164900  0.99996700  1
  C  C24  1  0.82998400  0.59761500  0.99997100  1
  C  C25  1  0.06129600  0.80039900  0.99995800  1
  C  C26  1  0.90983700  0.82193800  0.99996500  1
  C  C27  1  0.13426400  0.11646700  0.99996500  1
  C  C28  1  0.22656200  0.11821900  0.99995700  1
  C  C29  1  0.97638900  0.28792100  0.99997500  1
  C  C30  1  0.97814400  0.38800200  0.99997700  1
  C  C31  1  0.03873100  0.06180400  0.45386600  1
  C  C32  1  0.03873300  0.06180200  0.54605600  1
  C  C33  1  0.92580600  0.18437800  0.54607100  1
  C  C34  1  0.92580000  0.18437500  0.45388300  1
  C  C35  1  0.98226700  0.12308900  0.40778300  1
  C  C36  1  0.98227600  0.12309000  0.59216100  1
  C  C37  1  0.98227800  0.12308800  0.69211700  1
  C  C38  1  0.98226400  0.12309000  0.30782100  1
  N  N1  1  0.98226100  0.12308900  0.22814600  1
  N  N2  1  0.98228200  0.12309000  0.77179700  1
  N  N3  1  0.57237300  0.12480100  0.16592000  1
  N  N4  1  0.57242500  0.12480000  0.83402000  1
  N  N5  1  0.09962200  0.99568400  0.40415600  1
  N  N6  1  0.74741600  0.55851800  0.99997300  1
  N  N7  1  0.82066900  0.40669800  0.99997300  1
  N  N8  1  0.13548200  0.36193700  0.99998600  1
  N  N9  1  0.21368600  0.49221900  0.99998500  1
  N  N10  1  0.21712300  0.68767200  0.99996700  1
  O  O1  1  0.10329300  0.11588400  0.92673900  1
  O  O2  1  0.86125100  0.13030400  0.92674700  1
  O  O3  1  0.98873800  0.99185400  0.92674000  1
  O  O4  1  0.97580700  0.25433400  0.92674600  1
  O  O5  1  0.98872900  0.99185200  0.07319800  1
  O  O6  1  0.86124300  0.13030200  0.07320400  1
  O  O7  1  0.10328500  0.11588200  0.07319700  1
  O  O8  1  0.97579800  0.25433200  0.07320300  1
