# generated using pymatgen
data_Zn4H8(C3O2)7
_symmetry_space_group_name_H-M   'P 1'
_cell_length_a   14.90857100
_cell_length_b   11.16941600
_cell_length_c   11.16940900
_cell_angle_alpha   90.03087400
_cell_angle_beta   86.68371100
_cell_angle_gamma   93.29317900
_symmetry_Int_Tables_number   1
_chemical_formula_structural   Zn4H8(C3O2)7
_chemical_formula_sum   'Zn4 H8 C21 O14'
_cell_volume   1853.74225671
_cell_formula_units_Z   1
loop_
 _symmetry_equiv_pos_site_id
 _symmetry_equiv_pos_as_xyz
  1  'x, y, z'
loop_
 _atom_site_type_symbol
 _atom_site_label
 _atom_site_symmetry_multiplicity
 _atom_site_fract_x
 _atom_site_fract_y
 _atom_site_fract_z
 _atom_site_occupancy
  Zn  Zn1  1  0.37933200  0.58374600  0.21563400  1
  Zn  Zn2  1  0.37924900  0.78448000  0.41631800  1
  Zn  Zn3  1  0.22845600  0.57221700  0.42787400  1
  Zn  Zn4  1  0.22846200  0.77278700  0.22724100  1
  H  H1  1  0.81920400  0.85732400  0.14323500  1
  H  H2  1  0.03662400  0.64980700  0.15568900  1
  H  H3  1  0.08878500  0.79370300  0.09350200  1
  H  H4  1  0.98624900  0.72384300  0.02839100  1
  H  H5  1  0.96039500  0.51250000  0.48713400  1
  H  H6  1  0.64815000  0.56539700  0.43435400  1
  H  H7  1  0.64828200  0.84421200  0.15629100  1
  H  H8  1  0.78944700  0.49939500  0.50019000  1
  C  C1  1  0.30383900  0.99012900  0.32177900  1
  C  C2  1  0.30390600  0.12353500  0.32173700  1
  C  C3  1  0.06947800  0.66026500  0.33976300  1
  C  C4  1  0.96920200  0.65257600  0.34743400  1
  C  C5  1  0.30394400  0.67818000  0.00871900  1
  C  C6  1  0.30397400  0.67812500  0.87531600  1
  C  C7  1  0.78082500  0.79180800  0.20856200  1
  C  C8  1  0.68660700  0.78458700  0.21576500  1
  C  C9  1  0.68654500  0.63090600  0.36903600  1
  C  C10  1  0.78076300  0.63812800  0.36183300  1
  C  C11  1  0.82790000  0.71858300  0.28159400  1
  C  C12  1  0.92212000  0.72580900  0.27439800  1
  C  C13  1  0.92205700  0.57212400  0.42766200  1
  C  C14  1  0.82783800  0.56490200  0.43486500  1
  C  C15  1  0.53918700  0.69642100  0.30369900  1
  C  C16  1  0.63946300  0.70414000  0.29600000  1
  C  C17  1  0.30393500  0.36527000  0.32172700  1
  C  C18  1  0.30396100  0.23187200  0.32171000  1
  C  C19  1  0.30385800  0.67835200  0.63359300  1
  C  C20  1  0.30400300  0.67808200  0.76698100  1
  C  C21  1  0.02252500  0.73972200  0.11457800  1
  O  O1  1  0.30387500  0.67830700  0.32176700  1
  O  O2  1  0.50556800  0.62009200  0.23256200  1
  O  O3  1  0.35920900  0.75639100  0.58580400  1
  O  O4  1  0.24850300  0.40579900  0.39969800  1
  O  O5  1  0.50550700  0.76757000  0.38000400  1
  O  O6  1  0.35935100  0.41426900  0.24376700  1
  O  O7  1  0.24842200  0.60044300  0.59429400  1
  O  O8  1  0.10221000  0.58910500  0.41095300  1
  O  O9  1  0.24851200  0.74764200  0.05774800  1
  O  O10  1  0.10221400  0.73646300  0.26354800  1
  O  O11  1  0.35935600  0.60875400  0.04922100  1
  O  O12  1  0.35921400  0.95087600  0.39125800  1
  O  O13  1  0.24843200  0.94228600  0.25234400  1
  O  O14  1  0.96801000  0.80379700  0.19638900  1
