# generated using pymatgen
data_CuH11C18NO4
_symmetry_space_group_name_H-M   'P 1'
_cell_length_a   14.97148200
_cell_length_b   10.65455000
_cell_length_c   13.44831600
_cell_angle_alpha   89.99458700
_cell_angle_beta   89.99379800
_cell_angle_gamma   84.04875600
_symmetry_Int_Tables_number   1
_chemical_formula_structural   CuH11C18NO4
_chemical_formula_sum   'Cu2 H22 C36 N2 O8'
_cell_volume   2133.63849527
_cell_formula_units_Z   2
loop_
 _symmetry_equiv_pos_site_id
 _symmetry_equiv_pos_as_xyz
  1  'x, y, z'
loop_
 _atom_site_type_symbol
 _atom_site_label
 _atom_site_symmetry_multiplicity
 _atom_site_fract_x
 _atom_site_fract_y
 _atom_site_fract_z
 _atom_site_occupancy
  Cu  Cu1  1  0.05767400  0.17342600  0.09780600  1
  Cu  Cu2  1  0.05769400  0.17344000  0.90222000  1
  H  H1  1  0.61693800  0.17497200  0.16357200  1
  H  H2  1  0.36589900  0.49795600  0.00002400  1
  H  H3  1  0.16709100  0.01875600  0.56611100  1
  H  H4  1  0.16710500  0.01875900  0.75497800  1
  H  H5  1  0.32912600  0.16735700  0.16357900  1
  H  H6  1  0.37038400  0.73561200  0.00002200  1
  H  H7  1  0.94826500  0.32808700  0.24505100  1
  H  H8  1  0.21598500  0.40606100  0.00000100  1
  H  H9  1  0.94828300  0.32808800  0.43391600  1
  H  H10  1  0.61695100  0.17499500  0.83644800  1
  H  H11  1  0.78621000  0.17950700  0.16357300  1
  H  H12  1  0.49841300  0.17185800  0.16357800  1
  H  H13  1  0.91225900  0.81921000  0.99999600  1
  H  H14  1  0.22497200  0.88137600  0.00004000  1
  H  H15  1  0.32915300  0.16737000  0.83644800  1
  H  H16  1  0.49843900  0.17186000  0.83644000  1
  H  H17  1  0.78624200  0.17950100  0.83644000  1
  H  H18  1  0.90777200  0.58155000  0.99998900  1
  H  H19  1  0.16706200  0.01874400  0.24503400  1
  H  H20  1  0.94831700  0.32811400  0.75499400  1
  H  H21  1  0.16706800  0.01874500  0.43389000  1
  H  H22  1  0.94829200  0.32810400  0.56613500  1
  C  C1  1  0.89420800  0.18235900  0.00001000  1
  C  C2  1  0.79489600  0.17973400  0.00000900  1
  C  C3  1  0.74823500  0.17849100  0.09016000  1
  C  C4  1  0.65492300  0.17600500  0.09016200  1
  C  C5  1  0.60827300  0.17477000  0.00001000  1
  C  C6  1  0.65494100  0.17600900  0.90985100  1
  C  C7  1  0.74825200  0.17848700  0.90985100  1
  C  C8  1  0.46045100  0.17084900  0.90985800  1
  C  C9  1  0.36713300  0.16837400  0.90985700  1
  C  C10  1  0.36712200  0.16836700  0.09016800  1
  C  C11  1  0.46043300  0.17084500  0.09016800  1
  C  C12  1  0.50709400  0.17208600  0.00000900  1
  C  C13  1  0.06279000  0.94384100  0.00001600  1
  C  C14  1  0.06016100  0.80442600  0.00001200  1
  C  C15  1  0.14031300  0.72407900  0.00001700  1
  C  C16  1  0.13783700  0.59308400  0.00001000  1
  C  C17  1  0.97505000  0.62279700  0.99999800  1
  C  C18  1  0.97752600  0.75378900  0.99999800  1
  C  C19  1  0.22294700  0.77471500  0.00003100  1
  C  C20  1  0.30310600  0.69436700  0.00003700  1
  C  C21  1  0.30063000  0.56337300  0.00003000  1
  C  C22  1  0.21799500  0.51272700  0.00001700  1
  C  C23  1  0.22116100  0.16450700  0.00001400  1
  C  C24  1  0.32047200  0.16713200  0.00000900  1
  C  C25  1  0.05257800  0.40302500  0.00000800  1
  C  C26  1  0.05520800  0.54244000  0.00000500  1
  C  C27  1  0.11796400  0.08816500  0.28741300  1
  C  C28  1  0.11797000  0.08816300  0.39151700  1
  C  C29  1  0.05768100  0.17342000  0.44357500  1
  C  C30  1  0.99737600  0.25867400  0.39152500  1
  C  C31  1  0.99736700  0.25866900  0.28742300  1
  C  C32  1  0.99740100  0.25868300  0.60850500  1
  C  C33  1  0.99741100  0.25869100  0.71261300  1
  C  C34  1  0.11800400  0.08817800  0.71259800  1
  C  C35  1  0.11799500  0.08817200  0.60849700  1
  C  C36  1  0.05769100  0.17342800  0.55645400  1
  N  N1  1  0.05766600  0.17341500  0.23537000  1
  N  N2  1  0.05770900  0.17344000  0.76465600  1
  O  O1  1  0.18784000  0.16363700  0.91732400  1
  O  O2  1  0.92754600  0.18324000  0.91731900  1
  O  O3  1  0.06367800  0.99063500  0.91732500  1
  O  O4  1  0.05170800  0.35624200  0.91731800  1
  O  O5  1  0.06366000  0.99062300  0.08270900  1
  O  O6  1  0.92752900  0.18322800  0.08270300  1
  O  O7  1  0.18782300  0.16362500  0.08270700  1
  O  O8  1  0.05169100  0.35623000  0.08270100  1
