# generated using pymatgen
data_Cu2H29C44N11O8
_symmetry_space_group_name_H-M   'P 1'
_cell_length_a   14.85355800
_cell_length_b   14.85356700
_cell_length_c   14.58631900
_cell_angle_alpha   90.00000200
_cell_angle_beta   89.99701900
_cell_angle_gamma   83.63303200
_symmetry_Int_Tables_number   1
_chemical_formula_structural   Cu2H29C44N11O8
_chemical_formula_sum   'Cu2 H29 C44 N11 O8'
_cell_volume   3198.30551299
_cell_formula_units_Z   1
loop_
 _symmetry_equiv_pos_site_id
 _symmetry_equiv_pos_as_xyz
  1  'x, y, z'
loop_
 _atom_site_type_symbol
 _atom_site_label
 _atom_site_symmetry_multiplicity
 _atom_site_fract_x
 _atom_site_fract_y
 _atom_site_fract_z
 _atom_site_occupancy
  Cu  Cu1  1  0.06512800  0.12467600  0.09018100  1
  Cu  Cu2  1  0.06513900  0.12467800  0.90985400  1
  H  H1  1  0.79150400  0.12901000  0.84921300  1
  H  H2  1  0.65045000  0.12632800  0.76609300  1
  H  H3  1  0.31899000  0.45467500  0.94351300  1
  H  H4  1  0.36888200  0.53153200  0.00007900  1
  H  H5  1  0.89909300  0.29064700  0.55481500  1
  H  H6  1  0.89798700  0.21730100  0.63961000  1
  H  H7  1  0.29153800  0.79054400  0.00002900  1
  H  H8  1  0.24468400  0.87989300  0.94349300  1
  H  H9  1  0.23118300  0.95871200  0.44521600  1
  H  H10  1  0.15783300  0.95756100  0.36043400  1
  H  H11  1  0.33877000  0.12035600  0.15081400  1
  H  H12  1  0.79148900  0.12897200  0.15080600  1
  H  H13  1  0.37040700  0.12098900  0.77458300  1
  H  H14  1  0.29457800  0.06355200  0.82361000  1
  H  H15  1  0.29786500  0.68001300  0.00002200  1
  H  H16  1  0.94715200  0.24258900  0.33219000  1
  H  H17  1  0.87390000  0.24135400  0.41705800  1
  H  H18  1  0.42113800  0.17792300  0.74042400  1
  H  H19  1  0.51151100  0.12364200  0.69150900  1
  H  H20  1  0.72955600  0.12779500  0.24328700  1
  H  H21  1  0.63916500  0.18204200  0.29220200  1
  H  H22  1  0.83565600  0.73995300  0.00001000  1
  H  H23  1  0.47982900  0.12302300  0.23394700  1
  H  H24  1  0.17621800  0.01364700  0.58706300  1
  H  H25  1  0.82166400  0.49140200  0.00001600  1
  H  H26  1  0.77492200  0.58081400  0.05653400  1
  H  H27  1  0.92044900  0.87035100  0.00000100  1
  H  H28  1  0.91184800  0.41762500  0.00001300  1
  H  H29  1  0.20980100  0.37900200  0.00003200  1
  C  C1  1  0.90031400  0.13105800  0.00001500  1
  C  C2  1  0.80023000  0.12915800  0.00001400  1
  C  C3  1  0.75321500  0.12826700  0.91689300  1
  C  C4  1  0.75320300  0.12825400  0.08313300  1
  C  C5  1  0.65917000  0.12646400  0.08313500  1
  C  C6  1  0.61215500  0.12557400  0.00001400  1
  C  C7  1  0.65917300  0.12647400  0.91689200  1
  C  C8  1  0.61214500  0.12555400  0.16625500  1
  C  C9  1  0.51810600  0.12376300  0.16626000  1
  C  C10  1  0.47108800  0.12287900  0.08313900  1
  C  C11  1  0.51811300  0.12378100  0.00001300  1
  C  C12  1  0.47109800  0.12289000  0.91689200  1
  C  C13  1  0.51811900  0.12379800  0.83376600  1
  C  C14  1  0.61215600  0.12559000  0.83377000  1
  C  C15  1  0.37705200  0.12108700  0.08313400  1
  C  C16  1  0.37705600  0.12109700  0.91689100  1
  C  C17  1  0.07150900  0.95985900  0.00001200  1
  C  C18  1  0.06960500  0.85977500  0.00000400  1
  C  C19  1  0.97943900  0.44724400  0.00002000  1
  C  C20  1  0.14367300  0.42595800  0.00002300  1
  C  C21  1  0.14546300  0.51999100  0.00001700  1
  C  C22  1  0.06424000  0.57765600  0.00001500  1
  C  C23  1  0.98122700  0.54128700  0.00001800  1
  C  C24  1  0.22847400  0.55636800  0.00002300  1
  C  C25  1  0.23026800  0.65040700  0.00001900  1
  C  C26  1  0.14904400  0.70807300  0.00001000  1
  C  C27  1  0.06602700  0.67169900  0.00001200  1
  C  C28  1  0.98480500  0.72936300  0.00001000  1
  C  C29  1  0.90178700  0.69299100  0.00000500  1
  C  C30  1  0.90000300  0.59895300  0.00000900  1
  C  C31  1  0.15082800  0.80211000  0.00000600  1
  C  C32  1  0.98659200  0.82340600  0.00000700  1
  C  C33  1  0.22995300  0.11829600  0.00001800  1
  C  C34  1  0.33003700  0.12019700  0.00001300  1
  C  C35  1  0.05875800  0.28949600  0.00002100  1
  C  C36  1  0.06066200  0.38958000  0.00002300  1
  C  C37  1  0.12636000  0.06347900  0.45201800  1
  C  C38  1  0.12636300  0.06347700  0.54800000  1
  C  C39  1  0.00390800  0.18587100  0.54801000  1
  C  C40  1  0.00390200  0.18586800  0.45203000  1
  C  C41  1  0.06513300  0.12467300  0.40403700  1
  C  C42  1  0.06514200  0.12467400  0.59599800  1
  C  C43  1  0.06514400  0.12467200  0.70006500  1
  C  C44  1  0.06513000  0.12467400  0.29996300  1
  N  N1  1  0.06512700  0.12467400  0.21701200  1
  N  N2  1  0.06514800  0.12467400  0.78302300  1
  N  N3  1  0.31606700  0.49416600  0.00003700  1
  N  N4  1  0.93788200  0.25188200  0.59977800  1
  N  N5  1  0.24035600  0.84134300  0.00002100  1
  N  N6  1  0.19239700  0.99747900  0.40025200  1
  N  N7  1  0.32634800  0.12014200  0.82723800  1
  N  N8  1  0.93786500  0.25188000  0.40027400  1
  N  N9  1  0.46740100  0.12282800  0.74412000  1
  N  N10  1  0.66285000  0.12651400  0.25590200  1
  N  N11  1  0.81047000  0.55972400  0.00000800  1
  O  O1  1  0.19636900  0.11766300  0.92377900  1
  O  O2  1  0.93390800  0.13169300  0.92377500  1
  O  O3  1  0.07214900  0.99344800  0.92377400  1
  O  O4  1  0.05812800  0.25590800  0.92378000  1
  O  O5  1  0.07214000  0.99344600  0.07625500  1
  O  O6  1  0.93389800  0.13169100  0.07625600  1
  O  O7  1  0.19635900  0.11766100  0.07626000  1
  O  O8  1  0.05811800  0.25590600  0.07626100  1
