# generated using pymatgen
data_CuH7C20N3O4F5
_symmetry_space_group_name_H-M   'P 1'
_cell_length_a   12.81140000
_cell_length_b   17.01930000
_cell_length_c   17.66630000
_cell_angle_alpha   86.12410000
_cell_angle_beta   95.43550000
_cell_angle_gamma   84.08720000
_symmetry_Int_Tables_number   1
_chemical_formula_structural   CuH7C20N3O4F5
_chemical_formula_sum   'Cu2 H14 C40 N6 O8 F10'
_cell_volume   3802.60105160
_cell_formula_units_Z   2
loop_
 _symmetry_equiv_pos_site_id
 _symmetry_equiv_pos_as_xyz
  1  'x, y, z'
loop_
 _atom_site_type_symbol
 _atom_site_label
 _atom_site_symmetry_multiplicity
 _atom_site_fract_x
 _atom_site_fract_y
 _atom_site_fract_z
 _atom_site_occupancy
  Cu  Cu1  1  0.13746000  0.18749000  0.08804000  1
  Cu  Cu2  1  0.13747000  0.18750000  0.23693000  1
  H  H1  1  0.81889000  0.19052000  0.26493000  1
  H  H2  1  0.45608000  0.18450000  0.30906000  1
  H  H3  1  0.45603000  0.18448000  0.06004000  1
  H  H4  1  0.81886000  0.19050000  0.01591000  1
  H  H5  1  0.14322000  0.94807000  0.05397000  1
  H  H6  1  0.13498000  0.57618000  0.01247000  1
  H  H7  1  0.13171000  0.42692000  0.27100000  1
  H  H8  1  0.13996000  0.79881000  0.31250000  1
  H  H9  1  0.13778000  0.70144000  0.07312000  1
  H  H10  1  0.13717000  0.67354000  0.25185000  1
  H  H11  1  0.26681000  0.09044000  0.99116000  1
  H  H12  1  0.00812000  0.28455000  0.81698000  1
  H  H13  1  0.26682000  0.09044000  0.36422000  1
  H  H14  1  0.00812000  0.28456000  0.47757000  1
  C  C1  1  0.61011000  0.18705000  0.26358000  1
  C  C2  1  0.50063000  0.18523000  0.25619000  1
  C  C3  1  0.50062000  0.18521000  0.11893000  1
  C  C4  1  0.61009000  0.18704000  0.12632000  1
  C  C5  1  0.66484000  0.18796000  0.19865000  1
  C  C6  1  0.77431000  0.18977000  0.20604000  1
  C  C7  1  0.77429000  0.18977000  0.06878000  1
  C  C8  1  0.66482000  0.18794000  0.06139000  1
  C  C9  1  0.94556000  0.19262000  0.14897000  1
  C  C10  1  0.82905000  0.19068000  0.14110000  1
  C  C11  1  0.32937000  0.18237000  0.17599000  1
  C  C12  1  0.44588000  0.18431000  0.18386000  1
  C  C13  1  0.14249000  0.91458000  0.11198000  1
  C  C14  1  0.14067000  0.83229000  0.11723000  1
  C  C15  1  0.13977000  0.79115000  0.18848000  1
  C  C16  1  0.14069000  0.83231000  0.25449000  1
  C  C17  1  0.14251000  0.91459000  0.24924000  1
  C  C18  1  0.13427000  0.54270000  0.20774000  1
  C  C19  1  0.13244000  0.46041000  0.21298000  1
  C  C20  1  0.13243000  0.46040000  0.07572000  1
  C  C21  1  0.13424000  0.54269000  0.07048000  1
  C  C22  1  0.13517000  0.58384000  0.13649000  1
  C  C23  1  0.13791000  0.70704000  0.19384000  1
  C  C24  1  0.13704000  0.66794000  0.13113000  1
  C  C25  1  0.14535000  0.04330000  0.17242000  1
  C  C26  1  0.14341000  0.95572000  0.17799000  1
  C  C27  1  0.12958000  0.33169000  0.15255000  1
  C  C28  1  0.13152000  0.41927000  0.14697000  1
  C  C29  1  0.20875000  0.13400000  0.95208000  1
  C  C30  1  0.20875000  0.13400000  0.87283000  1
  C  C31  1  0.13747000  0.18749000  0.82483000  1
  C  C32  1  0.06616000  0.24099000  0.85607000  1
  C  C33  1  0.06615000  0.24098000  0.93532000  1
  C  C34  1  0.13747000  0.18750000  0.58606000  1
  C  C35  1  0.13746000  0.18750000  0.73890000  1
  C  C36  1  0.20877000  0.13401000  0.46890000  1
  C  C37  1  0.20876000  0.13400000  0.38965000  1
  C  C38  1  0.06617000  0.24100000  0.37289000  1
  C  C39  1  0.06617000  0.24100000  0.45213000  1
  C  C40  1  0.13748000  0.18750000  0.50014000  1
  N  N1  1  0.12422000  0.25726000  0.69495000  1
  N  N2  1  0.12423000  0.25726000  0.61967000  1
  N  N3  1  0.15072000  0.11775000  0.63058000  1
  N  N4  1  0.15072000  0.11775000  0.70586000  1
  N  N5  1  0.13746000  0.18749000  0.98332000  1
  N  N6  1  0.13747000  0.18750000  0.34165000  1
  O  O1  1  0.98465000  0.19327000  0.08571000  1
  O  O2  1  0.98467000  0.19328000  0.21753000  1
  O  O3  1  0.29028000  0.18172000  0.23926000  1
  O  O4  1  0.29027000  0.18171000  0.10744000  1
  O  O5  1  0.14600000  0.07269000  0.23646000  1
  O  O6  1  0.14599000  0.07269000  0.10464000  1
  O  O7  1  0.12892000  0.30230000  0.08850000  1
  O  O8  1  0.12895000  0.30230000  0.22033000  1
  F  F1  1  0.66149000  0.18790000  0.33432000  1
  F  F2  1  0.61344000  0.18709000  0.99065000  1
  F  F3  1  0.11341000  0.80463000  0.04871000  1
  F  F4  1  0.14316000  0.95448000  0.31314000  1
  F  F5  1  0.16159000  0.57035000  0.27626000  1
  F  F6  1  0.13177000  0.42051000  0.01182000  1
  F  F7  1  0.27934000  0.08239000  0.84367000  1
  F  F8  1  0.99689000  0.29274000  0.96558000  1
  F  F9  1  0.27934000  0.08242000  0.51451000  1
  F  F10  1  0.99694000  0.29275000  0.32640000  1
