# generated using pymatgen
data_CuH16C21(NO2)3
_symmetry_space_group_name_H-M   'P 1'
_cell_length_a   14.85350000
_cell_length_b   12.81140000
_cell_length_c   11.29570000
_cell_angle_alpha   88.71550000
_cell_angle_beta   85.91050000
_cell_angle_gamma   83.83600000
_symmetry_Int_Tables_number   1
_chemical_formula_structural   CuH16C21(NO2)3
_chemical_formula_sum   'Cu2 H32 C42 N6 O12'
_cell_volume   2131.40092364
_cell_formula_units_Z   2
loop_
 _symmetry_equiv_pos_site_id
 _symmetry_equiv_pos_as_xyz
  1  'x, y, z'
loop_
 _atom_site_type_symbol
 _atom_site_label
 _atom_site_symmetry_multiplicity
 _atom_site_fract_x
 _atom_site_fract_y
 _atom_site_fract_z
 _atom_site_occupancy
  Cu  Cu1  1  0.20923000  0.15092000  0.01145000  1
  Cu  Cu2  1  0.19510000  0.16752000  0.24387000  1
  H  H1  1  0.80338000  0.09603000  0.73155000  1
  H  H2  1  0.86580000  0.19352000  0.78575000  1
  H  H3  1  0.65724000  0.09312000  0.73169000  1
  H  H4  1  0.56797000  0.18699000  0.78656000  1
  H  H5  1  0.83704000  0.13863000  0.47189000  1
  H  H6  1  0.74231000  0.22779000  0.52130000  1
  H  H7  1  0.61409000  0.14287000  0.53047000  1
  H  H8  1  0.52643000  0.22357000  0.46263000  1
  H  H9  1  0.94040000  0.15032000  0.93275000  1
  H  H10  1  0.48759000  0.14036000  0.93382000  1
  H  H11  1  0.46394000  0.16812000  0.32255000  1
  H  H12  1  0.91674000  0.17808000  0.32149000  1
  H  H13  1  0.28584000  0.55231000  0.74955000  1
  H  H14  1  0.23045000  0.66359000  0.67422000  1
  H  H15  1  0.16200000  0.57089000  0.74754000  1
  H  H16  1  0.17389000  0.65485000  0.58109000  1
  H  H17  1  0.11849000  0.76613000  0.50577000  1
  H  H18  1  0.24234000  0.74755000  0.50777000  1
  H  H19  1  0.21536000  0.82920000  0.96742000  1
  H  H20  1  0.21264000  0.46150000  0.89915000  1
  H  H21  1  0.18897000  0.48923000  0.28789000  1
  H  H22  1  0.19170000  0.85696000  0.35616000  1
  H  H23  1  0.03082000  0.45696000  0.51515000  1
  H  H24  1  0.94607000  0.45950000  0.63703000  1
  H  H25  1  0.94703000  0.36166000  0.52542000  1
  H  H26  1  0.45826000  0.85895000  0.61829000  1
  H  H27  1  0.37351000  0.86148000  0.74016000  1
  H  H28  1  0.45730000  0.95679000  0.72989000  1
  H  H29  1  0.11024000  0.26699000  0.82258000  1
  H  H30  1  0.07482000  0.30859000  0.40495000  1
  H  H31  1  0.29409000  0.05146000  0.43272000  1
  H  H32  1  0.32952000  0.00986000  0.85038000  1
  C  C1  1  0.52057000  0.14742000  0.02097000  1
  C  C2  1  0.50753000  0.16273000  0.23523000  1
  C  C3  1  0.60159000  0.16480000  0.23501000  1
  C  C4  1  0.65513000  0.15818000  0.12777000  1
  C  C5  1  0.61463000  0.14949000  0.02074000  1
  C  C6  1  0.64210000  0.17348000  0.34203000  1
  C  C7  1  0.73615000  0.17555000  0.34182000  1
  C  C8  1  0.78970000  0.16895000  0.23458000  1
  C  C9  1  0.74920000  0.16026000  0.12755000  1
  C  C10  1  0.80274000  0.15364000  0.02030000  1
  C  C11  1  0.76224000  0.14496000  0.91327000  1
  C  C12  1  0.66818000  0.14289000  0.91350000  1
  C  C13  1  0.88376000  0.17102000  0.23435000  1
  C  C14  1  0.89681000  0.15571000  0.02008000  1
  C  C15  1  0.03741000  0.16660000  0.12687000  1
  C  C16  1  0.93731000  0.16440000  0.12711000  1
  C  C17  1  0.36692000  0.15184000  0.12845000  1
  C  C18  1  0.46702000  0.15404000  0.12821000  1
  C  C19  1  0.21125000  0.62059000  0.96989000  1
  C  C20  1  0.20845000  0.51194000  0.98162000  1
  C  C21  1  0.19541000  0.52724000  0.19588000  1
  C  C22  1  0.19821000  0.63588000  0.18416000  1
  C  C23  1  0.20613000  0.68255000  0.07116000  1
  C  C24  1  0.20892000  0.79120000  0.05943000  1
  C  C25  1  0.19588000  0.80649000  0.27370000  1
  C  C26  1  0.19308000  0.69785000  0.28542000  1
  C  C27  1  0.22456000  0.61046000  0.75262000  1
  C  C28  1  0.17977000  0.70798000  0.50270000  1
  C  C29  1  0.20678000  0.96880000  0.14822000  1
  C  C30  1  0.20380000  0.85317000  0.16071000  1
  C  C31  1  0.19755000  0.34964000  0.10710000  1
  C  C32  1  0.20053000  0.46527000  0.09461000  1
  C  C33  1  0.11341000  0.26331000  0.58524000  1
  C  C34  1  0.12095000  0.25448000  0.46153000  1
  C  C35  1  0.24181000  0.11275000  0.47686000  1
  C  C36  1  0.23427000  0.12158000  0.60056000  1
  C  C37  1  0.17006000  0.19687000  0.65475000  1
  C  C38  1  0.16252000  0.20569000  0.77846000  1
  C  C39  1  0.28339000  0.06397000  0.79378000  1
  C  C40  1  0.29093000  0.05513000  0.67007000  1
  C  C41  1  0.99079000  0.40707000  0.57583000  1
  C  C42  1  0.41354000  0.91138000  0.67949000  1
  N  N1  1  0.81579000  0.14268000  0.80184000  1
  N  N2  1  0.62714000  0.13854000  0.80230000  1
  N  N3  1  0.77643000  0.18270000  0.45279000  1
  N  N4  1  0.58876000  0.17748000  0.45336000  1
  N  N5  1  0.21918000  0.13924000  0.84798000  1
  N  N6  1  0.18515000  0.17920000  0.40734000  1
  O  O1  1  0.07726000  0.15999000  0.02390000  1
  O  O2  1  0.06475000  0.17468000  0.22967000  1
  O  O3  1  0.32706000  0.15847000  0.23142000  1
  O  O4  1  0.33958000  0.14374000  0.02564000  1
  O  O5  1  0.21920000  0.67152000  0.85759000  1
  O  O6  1  0.18514000  0.64692000  0.39772000  1
  O  O7  1  0.20152000  0.01495000  0.24692000  1
  O  O8  1  0.21403000  0.00025000  0.04114000  1
  O  O9  1  0.20282000  0.30349000  0.00840000  1
  O  O10  1  0.19029000  0.31819000  0.21417000  1
  O  O11  1  0.04956000  0.33816000  0.64427000  1
  O  O12  1  0.35478000  0.98028000  0.61104000  1
