# generated using pymatgen
data_CuH17C22NO7F3
_symmetry_space_group_name_H-M   'P 1'
_cell_length_a   15.99530000
_cell_length_b   17.01930000
_cell_length_c   11.29570000
_cell_angle_alpha   90.23940000
_cell_angle_beta   85.92250000
_cell_angle_gamma   83.43720000
_symmetry_Int_Tables_number   1
_chemical_formula_structural   CuH17C22NO7F3
_chemical_formula_sum   'Cu2 H34 C44 N2 O14 F6'
_cell_volume   3046.89747423
_cell_formula_units_Z   2
loop_
 _symmetry_equiv_pos_site_id
 _symmetry_equiv_pos_as_xyz
  1  'x, y, z'
loop_
 _atom_site_type_symbol
 _atom_site_label
 _atom_site_symmetry_multiplicity
 _atom_site_fract_x
 _atom_site_fract_y
 _atom_site_fract_z
 _atom_site_occupancy
  Cu  Cu1  1  0.15363000  0.21925000  0.00124000  1
  Cu  Cu2  1  0.14040000  0.23176000  0.23416000  1
  H  H1  1  0.72203000  0.27066000  0.93171000  1
  H  H2  1  0.57832000  0.26859000  0.93162000  1
  H  H3  1  0.59309000  0.09440000  0.14903000  1
  H  H4  1  0.73644000  0.09718000  0.15064000  1
  H  H5  1  0.70001000  0.31491000  0.26792000  1
  H  H6  1  0.55672000  0.30770000  0.27200000  1
  H  H7  1  0.07419000  0.94739000  0.48324000  1
  H  H8  1  0.13042000  0.02423000  0.53663000  1
  H  H9  1  0.18947000  0.93365000  0.48217000  1
  H  H10  1  0.29375000  0.77946000  0.84262000  1
  H  H11  1  0.30220000  0.87035000  0.92057000  1
  H  H12  1  0.30091000  0.77820000  0.00098000  1
  H  H13  1  0.10470000  0.51689000  0.75331000  1
  H  H14  1  0.16373000  0.42615000  0.69922000  1
  H  H15  1  0.21991000  0.50316000  0.75232000  1
  H  H16  1  0.99310000  0.67305000  0.23424000  1
  H  H17  1  0.99181000  0.58091000  0.31465000  1
  H  H18  1  0.00020000  0.67181000  0.39260000  1
  H  H19  1  0.16129000  0.97690000  0.94732000  1
  H  H20  1  0.15836000  0.60160000  0.88327000  1
  H  H21  1  0.13273000  0.47411000  0.28809000  1
  H  H22  1  0.13568000  0.84940000  0.35213000  1
  H  H23  1  0.15522000  0.73194000  0.97787000  1
  H  H24  1  0.13883000  0.71907000  0.25754000  1
  H  H25  1  0.98605000  0.44996000  0.51431000  1
  H  H26  1  0.90733000  0.45196000  0.63625000  1
  H  H27  1  0.90882000  0.37827000  0.52163000  1
  H  H28  1  0.38671000  0.99905000  0.59915000  1
  H  H29  1  0.30798000  0.00105000  0.72108000  1
  H  H30  1  0.38521000  0.07275000  0.71377000  1
  H  H31  1  0.06098000  0.30678000  0.81591000  1
  H  H32  1  0.02782000  0.33816000  0.39955000  1
  H  H33  1  0.23305000  0.14424000  0.41947000  1
  H  H34  1  0.26621000  0.11286000  0.83586000  1
  C  C1  1  0.56323000  0.22412000  0.11785000  1
  C  C2  1  0.60594000  0.21803000  0.98802000  1
  C  C3  1  0.70267000  0.21932000  0.98781000  1
  C  C4  1  0.73080000  0.22689000  0.11755000  1
  C  C5  1  0.70216000  0.15491000  0.18971000  1
  C  C6  1  0.60549000  0.15320000  0.18905000  1
  C  C7  1  0.58510000  0.30244000  0.17643000  1
  C  C8  1  0.68183000  0.30489000  0.17373000  1
  C  C9  1  0.82551000  0.22845000  0.11738000  1
  C  C10  1  0.46852000  0.22255000  0.11802000  1
  C  C11  1  0.99396000  0.23124000  0.11709000  1
  C  C12  1  0.90100000  0.22970000  0.11724000  1
  C  C13  1  0.30007000  0.21977000  0.11831000  1
  C  C14  1  0.39303000  0.22131000  0.11816000  1
  C  C15  1  0.15554000  0.94830000  0.03816000  1
  C  C16  1  0.15362000  0.86647000  0.04656000  1
  C  C17  1  0.14655000  0.83133000  0.15812000  1
  C  C18  1  0.14142000  0.87802000  0.26129000  1
  C  C19  1  0.14336000  0.95985000  0.25289000  1
  C  C20  1  0.14042000  0.58455000  0.18885000  1
  C  C21  1  0.13849000  0.50271000  0.19724000  1
  C  C22  1  0.15068000  0.49117000  0.98250000  1
  C  C23  1  0.15261000  0.57300000  0.97411000  1
  C  C24  1  0.14748000  0.61968000  0.07729000  1
  C  C25  1  0.14458000  0.74768000  0.16671000  1
  C  C26  1  0.14946000  0.70332000  0.06870000  1
  C  C27  1  0.13295000  0.97625000  0.46933000  1
  C  C28  1  0.27494000  0.81314000  0.92634000  1
  C  C29  1  0.16121000  0.47430000  0.76632000  1
  C  C30  1  0.01907000  0.63806000  0.30889000  1
  C  C31  1  0.15247000  0.08207000  0.13240000  1
  C  C32  1  0.15041000  0.99498000  0.14133000  1
  C  C33  1  0.14156000  0.36894000  0.10300000  1
  C  C34  1  0.14362000  0.45603000  0.09407000  1
  C  C35  1  0.06394000  0.30401000  0.57846000  1
  C  C36  1  0.07100000  0.29734000  0.45449000  1
  C  C37  1  0.18412000  0.19046000  0.46548000  1
  C  C38  1  0.17706000  0.19712000  0.58945000  1
  C  C39  1  0.11697000  0.25390000  0.64594000  1
  C  C40  1  0.10991000  0.26055000  0.76992000  1
  C  C41  1  0.22303000  0.15367000  0.78091000  1
  C  C42  1  0.23009000  0.14701000  0.65693000  1
  C  C43  1  0.94918000  0.41242000  0.57344000  1
  C  C44  1  0.34485000  0.03859000  0.66195000  1
  N  N1  1  0.16294000  0.21044000  0.83741000  1
  N  N2  1  0.13109000  0.24057000  0.39799000  1
  O  O1  1  0.03101000  0.22622000  0.01393000  1
  O  O2  1  0.01929000  0.23730000  0.22016000  1
  O  O3  1  0.26305000  0.22456000  0.22149000  1
  O  O4  1  0.27470000  0.21394000  0.01522000  1
  O  O5  1  0.13876000  0.01001000  0.35395000  1
  O  O6  1  0.18489000  0.82611000  0.94112000  1
  O  O7  1  0.15527000  0.44074000  0.88186000  1
  O  O8  1  0.10911000  0.62514000  0.29419000  1
  O  O9  1  0.14730000  0.11684000  0.23252000  1
  O  O10  1  0.15902000  0.10576000  0.02629000  1
  O  O11  1  0.14672000  0.33417000  0.00288000  1
  O  O12  1  0.13502000  0.34525000  0.20911000  1
  O  O13  1  0.00418000  0.36045000  0.63979000  1
  O  O14  1  0.28985000  0.09056000  0.59561000  1
  F  F1  1  0.58811000  0.14988000  0.93220000  1
  F  F2  1  0.56938000  0.15442000  0.30447000  1
  F  F3  1  0.70474000  0.37015000  0.11123000  1
  F  F4  1  0.74491000  0.15163000  0.93275000  1
  F  F5  1  0.54770000  0.36765000  0.11895000  1
  F  F6  1  0.72574000  0.15868000  0.30539000  1
