# generated using pymatgen
data_CuH17C26N(O3F)3
_symmetry_space_group_name_H-M   'P 1'
_cell_length_a   15.94450000
_cell_length_b   14.85350000
_cell_length_c   14.42150000
_cell_angle_alpha   90.00740000
_cell_angle_beta   90.01100000
_cell_angle_gamma   83.55900000
_symmetry_Int_Tables_number   1
_chemical_formula_structural   CuH17C26N(O3F)3
_chemical_formula_sum   'Cu2 H34 C52 N2 O18 F6'
_cell_volume   3393.90850626
_cell_formula_units_Z   2
loop_
 _symmetry_equiv_pos_site_id
 _symmetry_equiv_pos_as_xyz
  1  'x, y, z'
loop_
 _atom_site_type_symbol
 _atom_site_label
 _atom_site_symmetry_multiplicity
 _atom_site_fract_x
 _atom_site_fract_y
 _atom_site_fract_z
 _atom_site_occupancy
  Cu  Cu1  1  0.10562000  0.19433000  0.08930000  1
  Cu  Cu2  1  0.10564000  0.19434000  0.27168000  1
  H  H1  1  0.00463000  0.86222000  0.49786000  1
  H  H2  1  0.04537000  0.75826000  0.55417000  1
  H  H3  1  0.98103000  0.75551000  0.45119000  1
  H  H4  1  0.20669000  0.52658000  0.49787000  1
  H  H5  1  0.16602000  0.63047000  0.55417000  1
  H  H6  1  0.23027000  0.63322000  0.45121000  1
  H  H7  1  0.04529000  0.75813000  0.80681000  1
  H  H8  1  0.00456000  0.86210000  0.86311000  1
  H  H9  1  0.98098000  0.75546000  0.90978000  1
  H  H10  1  0.20662000  0.52645000  0.86312000  1
  H  H11  1  0.23022000  0.63317000  0.90979000  1
  H  H12  1  0.16588000  0.63041000  0.80682000  1
  H  H13  1  0.10966000  0.92070000  0.33302000  1
  H  H14  1  0.10163000  0.46800000  0.33302000  1
  H  H15  1  0.10159000  0.46797000  0.02798000  1
  H  H16  1  0.10962000  0.92066000  0.02796000  1
  H  H17  1  0.34897000  0.15162000  0.68153000  1
  H  H18  1  0.30432000  0.25510000  0.74074000  1
  H  H19  1  0.37539000  0.25997000  0.64542000  1
  H  H20  1  0.15421000  0.48600000  0.70250000  1
  H  H21  1  0.14866000  0.40411000  0.61214000  1
  H  H22  1  0.24188000  0.40183000  0.68498000  1
  H  H23  1  0.89656000  0.42429000  0.64882000  1
  H  H24  1  0.00252000  0.45099000  0.63866000  1
  H  H25  1  0.97077000  0.38632000  0.73718000  1
  H  H26  1  0.84629000  0.19442000  0.81466000  1
  H  H27  1  0.86892000  0.25934000  0.71551000  1
  H  H28  1  0.92864000  0.26605000  0.82350000  1
  H  H29  1  0.97927000  0.96171000  0.56604000  1
  H  H30  1  0.02943000  0.03222000  0.48805000  1
  H  H31  1  0.95556000  0.08197000  0.57512000  1
  H  H32  1  0.31906000  0.01175000  0.82228000  1
  H  H33  1  0.21698000  0.03916000  0.87176000  1
  H  H34  1  0.28037000  0.12843000  0.83441000  1
  C  C1  1  0.63350000  0.19485000  0.09267000  1
  C  C2  1  0.58668000  0.11951000  0.13656000  1
  C  C3  1  0.68809000  0.19590000  0.18049000  1
  C  C4  1  0.56875000  0.26806000  0.13658000  1
  C  C5  1  0.52317000  0.19277000  0.18049000  1
  C  C6  1  0.64251000  0.12051000  0.22438000  1
  C  C7  1  0.62458000  0.26913000  0.22439000  1
  C  C8  1  0.57779000  0.19376000  0.26834000  1
  C  C9  1  0.78309000  0.19770000  0.18048000  1
  C  C10  1  0.42817000  0.19096000  0.18051000  1
  C  C11  1  0.95206000  0.20092000  0.18048000  1
  C  C12  1  0.85882000  0.19914000  0.18047000  1
  C  C13  1  0.25919000  0.18775000  0.18050000  1
  C  C14  1  0.35244000  0.18953000  0.18051000  1
  C  C15  1  0.10229000  0.50627000  0.26457000  1
  C  C16  1  0.10228000  0.50625000  0.09643000  1
  C  C17  1  0.10395000  0.60028000  0.09642000  1
  C  C18  1  0.10479000  0.64731000  0.18049000  1
  C  C19  1  0.10396000  0.60031000  0.26456000  1
  C  C20  1  0.10477000  0.64729000  0.01235000  1
  C  C21  1  0.10644000  0.74133000  0.01234000  1
  C  C22  1  0.10729000  0.78836000  0.09641000  1
  C  C23  1  0.10646000  0.74135000  0.18049000  1
  C  C24  1  0.10731000  0.78838000  0.26456000  1
  C  C25  1  0.10648000  0.74138000  0.34864000  1
  C  C26  1  0.10481000  0.64734000  0.34864000  1
  C  C27  1  0.10896000  0.88239000  0.09642000  1
  C  C28  1  0.10898000  0.88242000  0.26456000  1
  C  C29  1  0.03056000  0.79070000  0.48593000  1
  C  C30  1  0.18075000  0.59809000  0.48594000  1
  C  C31  1  0.03050000  0.79058000  0.87504000  1
  C  C32  1  0.18069000  0.59797000  0.87505000  1
  C  C33  1  0.11158000  0.02951000  0.18049000  1
  C  C34  1  0.10980000  0.92942000  0.18048000  1
  C  C35  1  0.09968000  0.35916000  0.18049000  1
  C  C36  1  0.10145000  0.45924000  0.18050000  1
  C  C37  1  0.16509000  0.13018000  0.71140000  1
  C  C38  1  0.08911000  0.11290000  0.64955000  1
  C  C39  1  0.10562000  0.19433000  0.77185000  1
  C  C40  1  0.18160000  0.21159000  0.64960000  1
  C  C41  1  0.10564000  0.19434000  0.58913000  1
  C  C42  1  0.02961000  0.17700000  0.71137000  1
  C  C43  1  0.12215000  0.27572000  0.71143000  1
  C  C44  1  0.04612000  0.25847000  0.64961000  1
  C  C45  1  0.10561000  0.19432000  0.87712000  1
  C  C46  1  0.10563000  0.19435000  0.48387000  1
  C  C47  1  0.32348000  0.22375000  0.67279000  1
  C  C48  1  0.17206000  0.41398000  0.68385000  1
  C  C49  1  0.96349000  0.39788000  0.66132000  1
  C  C50  1  0.89810000  0.22107000  0.77557000  1
  C  C51  1  0.00700000  0.02674000  0.56036000  1
  C  C52  1  0.26115000  0.06048000  0.81880000  1
  N  N1  1  0.10561000  0.19431000  0.96102000  1
  N  N2  1  0.10564000  0.19435000  0.39997000  1
  O  O1  1  0.98335000  0.20151000  0.09974000  1
  O  O2  1  0.98336000  0.20152000  0.26122000  1
  O  O3  1  0.22791000  0.18716000  0.26124000  1
  O  O4  1  0.22789000  0.18714000  0.09976000  1
  O  O5  1  0.10650000  0.78905000  0.43276000  1
  O  O6  1  0.10480000  0.59967000  0.43275000  1
  O  O7  1  0.10645000  0.78900000  0.92823000  1
  O  O8  1  0.10475000  0.59963000  0.92823000  1
  O  O9  1  0.11218000  0.06310000  0.26123000  1
  O  O10  1  0.11216000  0.06308000  0.09975000  1
  O  O11  1  0.09909000  0.32557000  0.09975000  1
  O  O12  1  0.09908000  0.32559000  0.26123000  1
  O  O13  1  0.25739000  0.23150000  0.60759000  1
  O  O14  1  0.13787000  0.35928000  0.75089000  1
  O  O15  1  0.98270000  0.31914000  0.60738000  1
  O  O16  1  0.95420000  0.14734000  0.74521000  1
  O  O17  1  0.07575000  0.02434000  0.62210000  1
  O  O18  1  0.22630000  0.05562000  0.72969000  1
  F  F1  1  0.56609000  0.04282000  0.09152000  1
  F  F2  1  0.52987000  0.34366000  0.09160000  1
  F  F3  1  0.54807000  0.19323000  0.35835000  1
  F  F4  1  0.66319000  0.19540000  0.00264000  1
  F  F5  1  0.64510000  0.34588000  0.26940000  1
  F  F6  1  0.68147000  0.04490000  0.26932000  1
