# generated using pymatgen
data_CuH15C26NO7F4
_symmetry_space_group_name_H-M   'P 1'
_cell_length_a   15.94450000
_cell_length_b   15.62520000
_cell_length_c   15.50040000
_cell_angle_alpha   110.89800000
_cell_angle_beta   87.18480000
_cell_angle_gamma   83.87790000
_symmetry_Int_Tables_number   1
_chemical_formula_structural   CuH15C26NO7F4
_chemical_formula_sum   'Cu2 H30 C52 N2 O14 F8'
_cell_volume   3571.27267084
_cell_formula_units_Z   2
loop_
 _symmetry_equiv_pos_site_id
 _symmetry_equiv_pos_as_xyz
  1  'x, y, z'
loop_
 _atom_site_type_symbol
 _atom_site_label
 _atom_site_symmetry_multiplicity
 _atom_site_fract_x
 _atom_site_fract_y
 _atom_site_fract_z
 _atom_site_occupancy
  Cu  Cu1  1  0.22401000  0.14637000  0.01727000  1
  Cu  Cu2  1  0.21466000  0.15648000  0.19060000  1
  H  H1  1  0.70816000  0.30750000  0.95876000  1
  H  H2  1  0.75055000  0.35646000  0.07116000  1
  H  H3  1  0.65860000  0.41426000  0.04374000  1
  H  H4  1  0.69516000  0.42329000  0.34326000  1
  H  H5  1  0.62540000  0.35180000  0.27205000  1
  H  H6  1  0.68452000  0.42414000  0.22941000  1
  H  H7  1  0.67438000  0.17150000  0.40116000  1
  H  H8  1  0.65366000  0.27554000  0.37835000  1
  H  H9  1  0.75386000  0.20068000  0.33507000  1
  H  H10  1  0.85960000  0.95110000  0.21881000  1
  H  H11  1  0.75947000  0.01902000  0.26631000  1
  H  H12  1  0.85153000  0.07297000  0.24663000  1
  H  H13  1  0.65768000  0.86441000  0.95107000  1
  H  H14  1  0.57382000  0.95871000  0.99158000  1
  H  H15  1  0.65096000  0.94230000  0.06898000  1
  H  H16  1  0.85676000  0.17461000  0.84773000  1
  H  H17  1  0.90517000  0.11761000  0.91738000  1
  H  H18  1  0.85439000  0.23798000  0.96905000  1
  H  H19  1  0.21511000  0.82987000  0.23835000  1
  H  H20  1  0.20287000  0.61239000  0.39087000  1
  H  H21  1  0.20279000  0.43862000  0.33633000  1
  H  H22  1  0.22355000  0.47299000  0.96952000  1
  H  H23  1  0.23580000  0.69046000  0.81701000  1
  H  H24  1  0.23588000  0.86424000  0.87153000  1
  H  H25  1  0.12586000  0.25224000  0.92235000  1
  H  H26  1  0.09336000  0.28733000  0.52403000  1
  H  H27  1  0.31281000  0.05060000  0.28552000  1
  H  H28  1  0.34531000  0.01552000  0.68385000  1
  H  H29  1  0.14375000  0.23298000  0.64486000  1
  H  H30  1  0.29493000  0.06987000  0.56301000  1
  C  C1  1  0.75170000  0.14710000  0.02064000  1
  C  C2  1  0.70393000  0.07278000  0.03828000  1
  C  C3  1  0.80177000  0.15301000  0.10443000  1
  C  C4  1  0.68344000  0.22409000  0.08577000  1
  C  C5  1  0.63690000  0.14983000  0.10344000  1
  C  C6  1  0.75523000  0.07866000  0.12205000  1
  C  C7  1  0.73474000  0.23004000  0.16955000  1
  C  C8  1  0.68699000  0.15570000  0.18724000  1
  C  C9  1  0.89674000  0.15485000  0.10500000  1
  C  C10  1  0.54193000  0.14799000  0.10288000  1
  C  C11  1  0.69216000  0.34515000  0.03436000  1
  C  C12  1  0.68699000  0.37926000  0.27096000  1
  C  C13  1  0.68436000  0.20291000  0.34819000  1
  C  C14  1  0.81679000  0.01225000  0.21962000  1
  C  C15  1  0.64149000  0.93805000  0.99694000  1
  C  C16  1  0.85115000  0.16828000  0.91671000  1
  C  C17  1  0.06566000  0.15813000  0.10603000  1
  C  C18  1  0.97244000  0.15631000  0.10545000  1
  C  C19  1  0.37301000  0.14472000  0.10185000  1
  C  C20  1  0.46623000  0.14653000  0.10242000  1
  C  C21  1  0.20636000  0.56961000  0.31357000  1
  C  C22  1  0.20632000  0.47381000  0.28350000  1
  C  C23  1  0.21493000  0.46450000  0.12372000  1
  C  C24  1  0.21498000  0.56030000  0.15378000  1
  C  C25  1  0.21069000  0.61284000  0.24870000  1
  C  C26  1  0.21931000  0.60353000  0.08891000  1
  C  C27  1  0.21936000  0.69932000  0.11896000  1
  C  C28  1  0.21507000  0.75187000  0.21389000  1
  C  C29  1  0.21074000  0.70863000  0.27876000  1
  C  C30  1  0.22359000  0.55098000  0.99399000  1
  C  C31  1  0.22793000  0.59422000  0.92912000  1
  C  C32  1  0.22798000  0.69001000  0.95917000  1
  C  C33  1  0.22369000  0.74256000  0.05409000  1
  C  C34  1  0.23231000  0.73325000  0.89430000  1
  C  C35  1  0.23236000  0.82903000  0.92435000  1
  C  C36  1  0.22374000  0.83835000  0.08415000  1
  C  C37  1  0.22812000  0.98353000  0.05126000  1
  C  C38  1  0.22807000  0.88158000  0.01928000  1
  C  C39  1  0.21055000  0.31932000  0.15661000  1
  C  C40  1  0.21060000  0.42127000  0.18860000  1
  C  C41  1  0.17510000  0.19912000  0.86884000  1
  C  C42  1  0.18010000  0.19374000  0.77658000  1
  C  C43  1  0.24058000  0.12850000  0.71084000  1
  C  C44  1  0.29606000  0.06864000  0.73737000  1
  C  C45  1  0.29107000  0.07403000  0.82963000  1
  C  C46  1  0.25857000  0.10911000  0.43130000  1
  C  C47  1  0.26356000  0.10373000  0.33904000  1
  C  C48  1  0.14760000  0.22883000  0.37825000  1
  C  C49  1  0.14261000  0.23420000  0.47051000  1
  C  C50  1  0.19810000  0.17435000  0.49703000  1
  C  C51  1  0.24569000  0.12299000  0.61654000  1
  C  C52  1  0.19299000  0.17986000  0.59133000  1
  N  N1  1  0.23058000  0.13926000  0.89536000  1
  N  N2  1  0.20808000  0.16358000  0.31251000  1
  O  O1  1  0.63716000  0.29855000  0.07000000  1
  O  O2  1  0.75760000  0.30991000  0.23750000  1
  O  O3  1  0.64518000  0.15395000  0.26911000  1
  O  O4  1  0.79547000  0.99655000  0.12891000  1
  O  O5  1  0.69242000  0.99096000  0.96490000  1
  O  O6  1  0.77401000  0.13558000  0.92721000  1
  O  O7  1  0.10107000  0.15426000  0.02949000  1
  O  O8  1  0.09280000  0.16321000  0.18295000  1
  O  O9  1  0.33759000  0.14859000  0.17838000  1
  O  O10  1  0.34586000  0.13963000  0.02492000  1
  O  O11  1  0.22400000  0.02221000  0.13873000  1
  O  O12  1  0.23227000  0.01326000  0.98526000  1
  O  O13  1  0.21467000  0.28064000  0.06915000  1
  O  O14  1  0.20640000  0.28958000  0.22261000  1
  F  F1  1  0.20308000  0.76124000  0.37076000  1
  F  F2  1  0.22850000  0.54262000  0.83749000  1
  F  F3  1  0.24373000  0.40154000  0.03874000  1
  F  F4  1  0.24542000  0.89410000  0.16688000  1
  F  F5  1  0.11015000  0.23871000  0.75745000  1
  F  F6  1  0.34466000  0.01592000  0.85530000  1
  F  F7  1  0.32856000  0.06418000  0.45044000  1
  F  F8  1  0.09401000  0.28692000  0.35258000  1
