# generated using pymatgen
data_CuH10C16N2O5F2
_symmetry_space_group_name_H-M   'P 1'
_cell_length_a   10.65460000
_cell_length_b   12.81140000
_cell_length_c   13.44830000
_cell_angle_alpha   84.56700000
_cell_angle_beta   90.00760000
_cell_angle_gamma   84.26320000
_symmetry_Int_Tables_number   1
_chemical_formula_structural   CuH10C16N2O5F2
_chemical_formula_sum   'Cu2 H20 C32 N4 O10 F4'
_cell_volume   1818.21286316
_cell_formula_units_Z   2
loop_
 _symmetry_equiv_pos_site_id
 _symmetry_equiv_pos_as_xyz
  1  'x, y, z'
loop_
 _atom_site_type_symbol
 _atom_site_label
 _atom_site_symmetry_multiplicity
 _atom_site_fract_x
 _atom_site_fract_y
 _atom_site_fract_z
 _atom_site_occupancy
  Cu  Cu1  1  0.13900000  0.20784000  0.04111000  1
  Cu  Cu2  1  0.13904000  0.20783000  0.23669000  1
  H  H1  1  0.86913000  0.21372000  0.32166000  1
  H  H2  1  0.72373000  0.21050000  0.38865000  1
  H  H3  1  0.40791000  0.20976000  0.95595000  1
  H  H4  1  0.55183000  0.22465000  0.88925000  1
  H  H5  1  0.52022000  0.20521000  0.30270000  1
  H  H6  1  0.75782000  0.21048000  0.97509000  1
  H  H7  1  0.22347000  0.62848000  0.82066000  1
  H  H8  1  0.13992000  0.74461000  0.75732000  1
  H  H9  1  0.05079000  0.64612000  0.81907000  1
  H  H10  1  0.13812000  0.67106000  0.52048000  1
  H  H11  1  0.05457000  0.78720000  0.45714000  1
  H  H12  1  0.22725000  0.76956000  0.45873000  1
  H  H13  1  0.14380000  0.88930000  0.00405000  1
  H  H14  1  0.13420000  0.52641000  0.94661000  1
  H  H15  1  0.13424000  0.52637000  0.27374000  1
  H  H16  1  0.14384000  0.88928000  0.33119000  1
  H  H17  1  0.98510000  0.33644000  0.69340000  1
  H  H18  1  0.98510000  0.33642000  0.56116000  1
  H  H19  1  0.29297000  0.07925000  0.39556000  1
  H  H20  1  0.29290000  0.07926000  0.90549000  1
  C  C1  1  0.70453000  0.20928000  0.22892000  1
  C  C2  1  0.57353000  0.20639000  0.22918000  1
  C  C3  1  0.57351000  0.20640000  0.04887000  1
  C  C4  1  0.70451000  0.20930000  0.04861000  1
  C  C5  1  0.90945000  0.21383000  0.13836000  1
  C  C6  1  0.77002000  0.21074000  0.13864000  1
  C  C7  1  0.36858000  0.20185000  0.13944000  1
  C  C8  1  0.50801000  0.20494000  0.13915000  1
  C  C9  1  0.13828000  0.68047000  0.00613000  1
  C  C10  1  0.13538000  0.57098000  0.01600000  1
  C  C11  1  0.13540000  0.57096000  0.19632000  1
  C  C12  1  0.13830000  0.68046000  0.18645000  1
  C  C13  1  0.13974000  0.73521000  0.09135000  1
  C  C14  1  0.14263000  0.84472000  0.08148000  1
  C  C15  1  0.14266000  0.84470000  0.26179000  1
  C  C16  1  0.13976000  0.73520000  0.27166000  1
  C  C17  1  0.13837000  0.68587000  0.82329000  1
  C  C18  1  0.13967000  0.72980000  0.45451000  1
  C  C19  1  0.14719000  0.01600000  0.15620000  1
  C  C20  1  0.14410000  0.89946000  0.16671000  1
  C  C21  1  0.13085000  0.39967000  0.12160000  1
  C  C22  1  0.13394000  0.51621000  0.11109000  1
  C  C23  1  0.05415000  0.27872000  0.84508000  1
  C  C24  1  0.05417000  0.27872000  0.74098000  1
  C  C25  1  0.13901000  0.20784000  0.69534000  1
  C  C26  1  0.22385000  0.13697000  0.75380000  1
  C  C27  1  0.22383000  0.13698000  0.85790000  1
  C  C28  1  0.22387000  0.13697000  0.53682000  1
  C  C29  1  0.22388000  0.13696000  0.43271000  1
  C  C30  1  0.05421000  0.27871000  0.41990000  1
  C  C31  1  0.05419000  0.27871000  0.52400000  1
  C  C32  1  0.13903000  0.20784000  0.58246000  1
  N  N1  1  0.77144000  0.21156000  0.32074000  1
  N  N2  1  0.50612000  0.20791000  0.95671000  1
  N  N3  1  0.13898000  0.20785000  0.90354000  1
  N  N4  1  0.13905000  0.20783000  0.37426000  1
  O  O1  1  0.95622000  0.21487000  0.05169000  1
  O  O2  1  0.95625000  0.21486000  0.22485000  1
  O  O3  1  0.32182000  0.20080000  0.22611000  1
  O  O4  1  0.32178000  0.20082000  0.05295000  1
  O  O5  1  0.13981000  0.73945000  0.91163000  1
  O  O6  1  0.13823000  0.67623000  0.36616000  1
  O  O7  1  0.14824000  0.05511000  0.23926000  1
  O  O8  1  0.14820000  0.05511000  0.06609000  1
  O  O9  1  0.12980000  0.36057000  0.03854000  1
  O  O10  1  0.12982000  0.36056000  0.21171000  1
  F  F1  1  0.97250000  0.34768000  0.88950000  1
  F  F2  1  0.33835000  0.09997000  0.72093000  1
  F  F3  1  0.26813000  0.04131000  0.58173000  1
  F  F4  1  0.97171000  0.34690000  0.36311000  1
