# generated using pymatgen
data_CuH19C23N3O7F3
_symmetry_space_group_name_H-M   'P 1'
_cell_length_a   15.94450000
_cell_length_b   15.99530000
_cell_length_c   15.50040000
_cell_angle_alpha   92.83660000
_cell_angle_beta   87.18480000
_cell_angle_gamma   83.48620000
_symmetry_Int_Tables_number   1
_chemical_formula_structural   CuH19C23N3O7F3
_chemical_formula_sum   'Cu2 H38 C46 N6 O14 F6'
_cell_volume   3916.87385316
_cell_formula_units_Z   2
loop_
 _symmetry_equiv_pos_site_id
 _symmetry_equiv_pos_as_xyz
  1  'x, y, z'
loop_
 _atom_site_type_symbol
 _atom_site_label
 _atom_site_symmetry_multiplicity
 _atom_site_fract_x
 _atom_site_fract_y
 _atom_site_fract_z
 _atom_site_occupancy
  Cu  Cu1  1  0.21639000  0.12398000  0.05263000  1
  Cu  Cu2  1  0.20721000  0.13319000  0.22279000  1
  H  H1  1  0.70308000  0.27089000  0.94355000  1
  H  H2  1  0.74624000  0.31553000  0.04059000  1
  H  H3  1  0.65520000  0.36822000  0.99504000  1
  H  H4  1  0.69190000  0.37646000  0.29172000  1
  H  H5  1  0.62102000  0.31128000  0.24294000  1
  H  H6  1  0.68128000  0.37723000  0.17760000  1
  H  H7  1  0.66716000  0.14689000  0.42863000  1
  H  H8  1  0.64807000  0.24175000  0.37318000  1
  H  H9  1  0.74711000  0.17349000  0.35339000  1
  H  H10  1  0.84891000  0.94593000  0.31545000  1
  H  H11  1  0.74985000  0.00786000  0.34163000  1
  H  H12  1  0.84277000  0.05705000  0.30502000  1
  H  H13  1  0.64563000  0.86689000  0.07491000  1
  H  H14  1  0.56325000  0.95287000  0.08583000  1
  H  H15  1  0.64014000  0.93791000  0.16838000  1
  H  H16  1  0.84959000  0.14972000  0.87422000  1
  H  H17  1  0.89710000  0.09775000  0.96176000  1
  H  H18  1  0.84822000  0.20750000  0.97566000  1
  H  H19  1  0.26342000  0.70023000  0.26948000  1
  H  H20  1  0.26120000  0.55653000  0.26970000  1
  H  H21  1  0.07110000  0.57557000  0.12470000  1
  H  H22  1  0.07405000  0.71895000  0.12333000  1
  H  H23  1  0.30465000  0.68393000  0.02192000  1
  H  H24  1  0.29687000  0.54074000  0.01950000  1
  H  H25  1  0.33490000  0.00538000  0.00166000  1
  H  H26  1  0.38185000  0.95681000  0.90127000  1
  H  H27  1  0.06109000  0.25605000  0.79034000  1
  H  H28  1  0.06042000  0.16068000  0.72604000  1
  H  H29  1  0.36251000  0.00111000  0.48509000  1
  H  H30  1  0.36318000  0.09648000  0.54939000  1
  H  H31  1  0.08874000  0.25182000  0.27377000  1
  H  H32  1  0.04176000  0.30035000  0.37416000  1
  H  H33  1  0.11991000  0.22050000  0.92449000  1
  H  H34  1  0.08797000  0.25250000  0.51515000  1
  H  H35  1  0.30369000  0.03665000  0.35093000  1
  H  H36  1  0.33564000  0.00467000  0.76027000  1
  H  H37  1  0.13750000  0.20294000  0.65304000  1
  H  H38  1  0.28611000  0.05423000  0.62238000  1
  C  C1  1  0.74410000  0.12464000  0.05578000  1
  C  C2  1  0.69516000  0.05688000  0.09673000  1
  C  C3  1  0.79426000  0.13003000  0.13771000  1
  C  C4  1  0.67705000  0.19484000  0.09674000  1
  C  C5  1  0.62935000  0.12713000  0.13771000  1
  C  C6  1  0.74655000  0.06223000  0.17866000  1
  C  C7  1  0.72844000  0.20026000  0.17866000  1
  C  C8  1  0.67953000  0.13248000  0.21967000  1
  C  C9  1  0.88926000  0.13170000  0.13770000  1
  C  C10  1  0.53435000  0.12545000  0.13773000  1
  C  C11  1  0.68768000  0.30522000  0.00734000  1
  C  C12  1  0.68304000  0.33631000  0.23324000  1
  C  C13  1  0.67763000  0.17552000  0.36581000  1
  C  C14  1  0.80707000  0.00169000  0.29706000  1
  C  C15  1  0.63060000  0.93403000  0.09767000  1
  C  C16  1  0.84388000  0.14395000  0.94519000  1
  C  C17  1  0.05823000  0.13470000  0.13770000  1
  C  C18  1  0.96498000  0.13304000  0.13769000  1
  C  C19  1  0.36537000  0.12247000  0.13772000  1
  C  C20  1  0.45862000  0.12412000  0.13773000  1
  C  C21  1  0.21032000  0.54480000  0.13770000  1
  C  C22  1  0.20614000  0.58527000  0.23249000  1
  C  C23  1  0.20753000  0.68200000  0.23254000  1
  C  C24  1  0.21328000  0.71236000  0.13772000  1
  C  C25  1  0.13504000  0.68518000  0.09064000  1
  C  C26  1  0.13323000  0.58850000  0.09125000  1
  C  C27  1  0.29297000  0.56747000  0.08932000  1
  C  C28  1  0.29564000  0.66415000  0.09110000  1
  C  C29  1  0.21495000  0.80706000  0.13772000  1
  C  C30  1  0.20864000  0.45010000  0.13770000  1
  C  C31  1  0.21794000  0.97550000  0.13773000  1
  C  C32  1  0.21629000  0.88255000  0.13773000  1
  C  C33  1  0.20565000  0.28167000  0.13770000  1
  C  C34  1  0.20731000  0.37462000  0.13769000  1
  C  C35  1  0.16832000  0.17207000  0.88764000  1
  C  C36  1  0.17324000  0.16716000  0.79707000  1
  C  C37  1  0.23269000  0.10768000  0.75181000  1
  C  C38  1  0.28723000  0.05310000  0.79713000  1
  C  C39  1  0.28232000  0.05801000  0.88770000  1
  C  C40  1  0.25037000  0.09000000  0.47836000  1
  C  C41  1  0.25528000  0.08509000  0.38778000  1
  C  C42  1  0.14129000  0.19916000  0.38773000  1
  C  C43  1  0.13638000  0.20406000  0.47830000  1
  C  C44  1  0.19092000  0.14949000  0.52361000  1
  C  C45  1  0.23771000  0.10266000  0.65924000  1
  C  C46  1  0.18590000  0.15451000  0.61619000  1
  N  N1  1  0.33765000  0.00204000  0.93412000  1
  N  N2  1  0.09406000  0.19964000  0.76396000  1
  N  N3  1  0.32954000  0.05753000  0.51147000  1
  N  N4  1  0.08595000  0.25512000  0.34131000  1
  N  N5  1  0.22286000  0.11750000  0.93295000  1
  N  N6  1  0.20074000  0.13967000  0.34247000  1
  O  O1  1  0.63194000  0.26273000  0.05760000  1
  O  O2  1  0.75256000  0.27308000  0.22154000  1
  O  O3  1  0.63768000  0.13088000  0.30209000  1
  O  O4  1  0.78550000  0.98737000  0.21128000  1
  O  O5  1  0.68237000  0.98228000  0.04903000  1
  O  O6  1  0.76622000  0.11414000  0.96595000  1
  O  O7  1  0.09359000  0.13117000  0.06237000  1
  O  O8  1  0.08545000  0.13933000  0.21303000  1
  O  O9  1  0.33001000  0.12599000  0.21305000  1
  O  O10  1  0.33815000  0.11783000  0.06239000  1
  O  O11  1  0.21443000  0.01077000  0.21305000  1
  O  O12  1  0.22256000  0.00261000  0.06240000  1
  O  O13  1  0.20892000  0.24643000  0.06237000  1
  O  O14  1  0.20128000  0.25452000  0.21303000  1
  F  F1  1  0.13431000  0.56666000  0.27811000  1
  F  F2  1  0.13245000  0.55440000  0.00731000  1
  F  F3  1  0.36652000  0.68578000  0.13165000  1
  F  F4  1  0.13617000  0.72346000  0.27758000  1
  F  F5  1  0.36371000  0.52889000  0.12623000  1
  F  F6  1  0.13700000  0.71077000  0.00632000  1
