# generated using pymatgen
data_CuH7C24N(O2F3)2
_symmetry_space_group_name_H-M   'P 1'
_cell_length_a   14.85350000
_cell_length_b   17.01930000
_cell_length_c   13.33040000
_cell_angle_alpha   86.11960000
_cell_angle_beta   90.00460000
_cell_angle_gamma   83.50940000
_symmetry_Int_Tables_number   1
_chemical_formula_structural   CuH7C24N(O2F3)2
_chemical_formula_sum   'Cu2 H14 C48 N2 O8 F12'
_cell_volume   3340.49707279
_cell_formula_units_Z   2
loop_
 _symmetry_equiv_pos_site_id
 _symmetry_equiv_pos_as_xyz
  1  'x, y, z'
loop_
 _atom_site_type_symbol
 _atom_site_label
 _atom_site_symmetry_multiplicity
 _atom_site_fract_x
 _atom_site_fract_y
 _atom_site_fract_z
 _atom_site_occupancy
  Cu  Cu1  1  0.17441000  0.17442000  0.04088000  1
  Cu  Cu2  1  0.17443000  0.17441000  0.23819000  1
  H  H1  1  0.90075000  0.17820000  0.97419000  1
  H  H2  1  0.44805000  0.17066000  0.97484000  1
  H  H3  1  0.44808000  0.17064000  0.30486000  1
  H  H4  1  0.90077000  0.17818000  0.30423000  1
  H  H5  1  0.17935000  0.93499000  0.99520000  1
  H  H6  1  0.17227000  0.56313000  0.94095000  1
  H  H7  1  0.16948000  0.41385000  0.28388000  1
  H  H8  1  0.17657000  0.78571000  0.33812000  1
  H  H9  1  0.17468000  0.68837000  0.02108000  1
  H  H10  1  0.17417000  0.66046000  0.25800000  1
  H  H11  1  0.28550000  0.07705000  0.90077000  1
  H  H12  1  0.28554000  0.07705000  0.39516000  1
  H  H13  1  0.06334000  0.27177000  0.37830000  1
  H  H14  1  0.06329000  0.27179000  0.88390000  1
  C  C1  1  0.48634000  0.17128000  0.04885000  1
  C  C2  1  0.48636000  0.17128000  0.23075000  1
  C  C3  1  0.58039000  0.17285000  0.23062000  1
  C  C4  1  0.62740000  0.17363000  0.13960000  1
  C  C5  1  0.58038000  0.17285000  0.04871000  1
  C  C6  1  0.62741000  0.17362000  0.32151000  1
  C  C7  1  0.72145000  0.17519000  0.32138000  1
  C  C8  1  0.76846000  0.17598000  0.23036000  1
  C  C9  1  0.72144000  0.17520000  0.13947000  1
  C  C10  1  0.76845000  0.17599000  0.04845000  1
  C  C11  1  0.72142000  0.17522000  0.95756000  1
  C  C12  1  0.62739000  0.17365000  0.95769000  1
  C  C13  1  0.86249000  0.17755000  0.23022000  1
  C  C14  1  0.86248000  0.17756000  0.04831000  1
  C  C15  1  0.00958000  0.18001000  0.13906000  1
  C  C16  1  0.90950000  0.17834000  0.13920000  1
  C  C17  1  0.33925000  0.16883000  0.14001000  1
  C  C18  1  0.43933000  0.17050000  0.13987000  1
  C  C19  1  0.17873000  0.90149000  0.07216000  1
  C  C20  1  0.17717000  0.81921000  0.07927000  1
  C  C21  1  0.17640000  0.77807000  0.17378000  1
  C  C22  1  0.17719000  0.81921000  0.26117000  1
  C  C23  1  0.17876000  0.90150000  0.25406000  1
  C  C24  1  0.17167000  0.52963000  0.19981000  1
  C  C25  1  0.17011000  0.44734000  0.20691000  1
  C  C26  1  0.17008000  0.44735000  0.02501000  1
  C  C27  1  0.17164000  0.52963000  0.01790000  1
  C  C28  1  0.17245000  0.57077000  0.10530000  1
  C  C29  1  0.17480000  0.69396000  0.18105000  1
  C  C30  1  0.17405000  0.65487000  0.09803000  1
  C  C31  1  0.18119000  0.03020000  0.15199000  1
  C  C32  1  0.17952000  0.94263000  0.15955000  1
  C  C33  1  0.16765000  0.31863000  0.12708000  1
  C  C34  1  0.16931000  0.40620000  0.11952000  1
  C  C35  1  0.23567000  0.12074000  0.43414000  1
  C  C36  1  0.11319000  0.22808000  0.42484000  1
  C  C37  1  0.11319000  0.22808000  0.52986000  1
  C  C38  1  0.17442000  0.17442000  0.58702000  1
  C  C39  1  0.23566000  0.12075000  0.53916000  1
  C  C40  1  0.05194000  0.28175000  0.57773000  1
  C  C41  1  0.05193000  0.28176000  0.68275000  1
  C  C42  1  0.11317000  0.22809000  0.73991000  1
  C  C43  1  0.17441000  0.17442000  0.69205000  1
  C  C44  1  0.23565000  0.12076000  0.74921000  1
  C  C45  1  0.29690000  0.06709000  0.70135000  1
  C  C46  1  0.29690000  0.06708000  0.59633000  1
  C  C47  1  0.11317000  0.22809000  0.84493000  1
  C  C48  1  0.23564000  0.12076000  0.85424000  1
  N  N1  1  0.17440000  0.17443000  0.90209000  1
  N  N2  1  0.17443000  0.17441000  0.37697000  1
  O  O1  1  0.04316000  0.18057000  0.05166000  1
  O  O2  1  0.04317000  0.18056000  0.22636000  1
  O  O3  1  0.30568000  0.16828000  0.22741000  1
  O  O4  1  0.30566000  0.16827000  0.05271000  1
  O  O5  1  0.18176000  0.05959000  0.23680000  1
  O  O6  1  0.18174000  0.05960000  0.06210000  1
  O  O7  1  0.16707000  0.28925000  0.04227000  1
  O  O8  1  0.16710000  0.28924000  0.21697000  1
  F  F1  1  0.58310000  0.17289000  0.41063000  1
  F  F2  1  0.76579000  0.17592000  0.41036000  1
  F  F3  1  0.76574000  0.17595000  0.86844000  1
  F  F4  1  0.58304000  0.17291000  0.86871000  1
  F  F5  1  0.15375000  0.79162000  0.99094000  1
  F  F6  1  0.17932000  0.94138000  0.33868000  1
  F  F7  1  0.19515000  0.55721000  0.28814000  1
  F  F8  1  0.16952000  0.40746000  0.94039000  1
  F  F9  1  0.99199000  0.33430000  0.52367000  1
  F  F10  1  0.99197000  0.33430000  0.72772000  1
  F  F11  1  0.35685000  0.01453000  0.75540000  1
  F  F12  1  0.35686000  0.01454000  0.55135000  1
