# generated using pymatgen
data_CuH20C19N6O5
_symmetry_space_group_name_H-M   'P 1'
_cell_length_a   15.99530000
_cell_length_b   12.81140000
_cell_length_c   13.44830000
_cell_angle_alpha   84.56700000
_cell_angle_beta   90.01370000
_cell_angle_gamma   83.76410000
_symmetry_Int_Tables_number   1
_chemical_formula_structural   CuH20C19N6O5
_chemical_formula_sum   'Cu2 H40 C38 N12 O10'
_cell_volume   2727.08755426
_cell_formula_units_Z   2
loop_
 _symmetry_equiv_pos_site_id
 _symmetry_equiv_pos_as_xyz
  1  'x, y, z'
loop_
 _atom_site_type_symbol
 _atom_site_label
 _atom_site_symmetry_multiplicity
 _atom_site_fract_x
 _atom_site_fract_y
 _atom_site_fract_z
 _atom_site_occupancy
  Cu  Cu1  1  0.20471000  0.14652000  0.03843000  1
  Cu  Cu2  1  0.20473000  0.14651000  0.23402000  1
  H  H1  1  0.65231000  0.95277000  0.33136000  1
  H  H2  1  0.64254000  0.08361000  0.34559000  1
  H  H3  1  0.79511000  0.96092000  0.33480000  1
  H  H4  1  0.77659000  0.09243000  0.34436000  1
  H  H5  1  0.60035000  0.40233000  0.18210000  1
  H  H6  1  0.62059000  0.36452000  0.06617000  1
  H  H7  1  0.74083000  0.40995000  0.16582000  1
  H  H8  1  0.83132000  0.34968000  0.13586000  1
  H  H9  1  0.64035000  0.07559000  0.89785000  1
  H  H10  1  0.65950000  0.98764000  0.99844000  1
  H  H11  1  0.85764000  0.08682000  0.95189000  1
  H  H12  1  0.80290000  0.99233000  0.00702000  1
  H  H13  1  0.76947000  0.21991000  0.97816000  1
  H  H14  1  0.62575000  0.21716000  0.97815000  1
  H  H15  1  0.65180000  0.96983000  0.16710000  1
  H  H16  1  0.79527000  0.97342000  0.16836000  1
  H  H17  1  0.76674000  0.25473000  0.25957000  1
  H  H18  1  0.62364000  0.24484000  0.26325000  1
  H  H19  1  0.26103000  0.56653000  0.81805000  1
  H  H20  1  0.20532000  0.68329000  0.75465000  1
  H  H21  1  0.14590000  0.58545000  0.81633000  1
  H  H22  1  0.20413000  0.60975000  0.51780000  1
  H  H23  1  0.14842000  0.72650000  0.45440000  1
  H  H24  1  0.26355000  0.70759000  0.45612000  1
  H  H25  1  0.20791000  0.82794000  0.00138000  1
  H  H26  1  0.20151000  0.46513000  0.94393000  1
  H  H27  1  0.20154000  0.46508000  0.27106000  1
  H  H28  1  0.20794000  0.82792000  0.32852000  1
  H  H29  1  0.08999000  0.29115000  0.27916000  1
  H  H30  1  0.04657000  0.34339000  0.38947000  1
  H  H31  1  0.09026000  0.29161000  0.96701000  1
  H  H32  1  0.04896000  0.34636000  0.84711000  1
  H  H33  1  0.23991000  0.93419000  0.62921000  1
  H  H34  1  0.33089000  0.91928000  0.55288000  1
  H  H35  1  0.38496000  0.98643000  0.75467000  1
  H  H36  1  0.37387000  0.10056000  0.66666667  1
  H  H37  1  0.10210000  0.27625000  0.69061000  1
  H  H38  1  0.10210000  0.27623000  0.55838000  1
  H  H39  1  0.30737000  0.01679000  0.39300000  1
  H  H40  1  0.30732000  0.01680000  0.90293000  1
  C  C1  1  0.62094000  0.14466000  0.13640000  1
  C  C2  1  0.65626000  0.14584000  0.02735000  1
  C  C3  1  0.75299000  0.14759000  0.02713000  1
  C  C4  1  0.78851000  0.14837000  0.13605000  1
  C  C5  1  0.76353000  0.04743000  0.19926000  1
  C  C6  1  0.66681000  0.04520000  0.19876000  1
  C  C7  1  0.64658000  0.24468000  0.18300000  1
  C  C8  1  0.74317000  0.24814000  0.18065000  1
  C  C9  1  0.88321000  0.15046000  0.13586000  1
  C  C10  1  0.52623000  0.14257000  0.13660000  1
  C  C11  1  0.05166000  0.15420000  0.13552000  1
  C  C12  1  0.95871000  0.15213000  0.13569000  1
  C  C13  1  0.35778000  0.13884000  0.13693000  1
  C  C14  1  0.45074000  0.14090000  0.13676000  1
  C  C15  1  0.20423000  0.61916000  0.00346000  1
  C  C16  1  0.20230000  0.50968000  0.01333000  1
  C  C17  1  0.20231000  0.50967000  0.19364000  1
  C  C18  1  0.20425000  0.61914000  0.18377000  1
  C  C19  1  0.20520000  0.67389000  0.08868000  1
  C  C20  1  0.20713000  0.78337000  0.07881000  1
  C  C21  1  0.20715000  0.78335000  0.25912000  1
  C  C22  1  0.20522000  0.67387000  0.26899000  1
  C  C23  1  0.20429000  0.62456000  0.82062000  1
  C  C24  1  0.20515000  0.66848000  0.45183000  1
  C  C25  1  0.21017000  0.95462000  0.15353000  1
  C  C26  1  0.20811000  0.83810000  0.16404000  1
  C  C27  1  0.19928000  0.33841000  0.11892000  1
  C  C28  1  0.20133000  0.45493000  0.10841000  1
  C  C29  1  0.14814000  0.21802000  0.84235000  1
  C  C30  1  0.14815000  0.21802000  0.73824000  1
  C  C31  1  0.20472000  0.14652000  0.69266000  1
  C  C32  1  0.26128000  0.07503000  0.75119000  1
  C  C33  1  0.26127000  0.07503000  0.85529000  1
  C  C34  1  0.26129000  0.07502000  0.53421000  1
  C  C35  1  0.26130000  0.07501000  0.43010000  1
  C  C36  1  0.14818000  0.21801000  0.41716000  1
  C  C37  1  0.14817000  0.21801000  0.52126000  1
  C  C38  1  0.20473000  0.14652000  0.57979000  1
  N  N1  1  0.62944000  0.02751000  0.29822000  1
  N  N2  1  0.80258000  0.03555000  0.29945000  1
  N  N3  1  0.59759000  0.34101000  0.13655000  1
  N  N4  1  0.76671000  0.34674000  0.12794000  1
  N  N5  1  0.62759000  0.06092000  0.97383000  1
  N  N6  1  0.79708000  0.06729000  0.96859000  1
  N  N7  1  0.09006000  0.29031000  0.35694000  1
  N  N8  1  0.09098000  0.29145000  0.88940000  1
  N  N9  1  0.28129000  0.96887000  0.57933000  1
  N  N10  1  0.34583000  0.04901000  0.71801000  1
  N  N11  1  0.20470000  0.14653000  0.90087000  1
  N  N12  1  0.20475000  0.14651000  0.37158000  1
  O  O1  1  0.08285000  0.15489000  0.04887000  1
  O  O2  1  0.08287000  0.15488000  0.22204000  1
  O  O3  1  0.32663000  0.13783000  0.22360000  1
  O  O4  1  0.32654000  0.13846000  0.05038000  1
  O  O5  1  0.20525000  0.67812000  0.90896000  1
  O  O6  1  0.20420000  0.61491000  0.36349000  1
  O  O7  1  0.21087000  0.99372000  0.23659000  1
  O  O8  1  0.21085000  0.99372000  0.06342000  1
  O  O9  1  0.19858000  0.29932000  0.03586000  1
  O  O10  1  0.19859000  0.29931000  0.20903000  1
