# generated using pymatgen
data_CuH15C23N2(O3F)2
_symmetry_space_group_name_H-M   'P 1'
_cell_length_a   14.97150000
_cell_length_b   12.81140000
_cell_length_c   14.18490000
_cell_angle_alpha   71.50410000
_cell_angle_beta   103.14400000
_cell_angle_gamma   83.82990000
_symmetry_Int_Tables_number   1
_chemical_formula_structural   CuH15C23N2(O3F)2
_chemical_formula_sum   'Cu2 H30 C46 N4 O12 F4'
_cell_volume   2464.62931311
_cell_formula_units_Z   2
loop_
 _symmetry_equiv_pos_site_id
 _symmetry_equiv_pos_as_xyz
  1  'x, y, z'
loop_
 _atom_site_type_symbol
 _atom_site_label
 _atom_site_symmetry_multiplicity
 _atom_site_fract_x
 _atom_site_fract_y
 _atom_site_fract_z
 _atom_site_occupancy
  Cu  Cu1  1  0.18684000  0.15601000  0.03638000  1
  Cu  Cu2  1  0.23582000  0.09814000  0.23897000  1
  H  H1  1  0.54427000  0.02863000  0.48168000  1
  H  H2  1  0.61370000  0.11990000  0.42079000  1
  H  H3  1  0.63462000  0.97049000  0.43820000  1
  H  H4  1  0.93066000  0.11614000  0.42471000  1
  H  H5  1  0.04544000  0.02966000  0.48126000  1
  H  H6  1  0.94988000  0.96897000  0.43458000  1
  H  H7  1  0.67701000  0.17053000  0.80626000  1
  H  H8  1  0.80207000  0.13403000  0.84776000  1
  H  H9  1  0.74180000  0.26771000  0.84445000  1
  H  H10  1  0.58205000  0.35163000  0.03008000  1
  H  H11  1  0.65436000  0.37609000  0.94233000  1
  H  H12  1  0.52904000  0.40209000  0.89233000  1
  H  H13  1  0.81152000  0.08004000  0.30698000  1
  H  H14  1  0.69306000  0.07732000  0.30722000  1
  H  H15  1  0.44197000  0.17029000  0.96872000  1
  H  H16  1  0.89879000  0.18068000  0.96779000  1
  H  H17  1  0.18207000  0.79389000  0.87981000  1
  H  H18  1  0.12673000  0.69760000  0.83358000  1
  H  H19  1  0.27430000  0.55992000  0.44146000  1
  H  H20  1  0.30327000  0.45049000  0.39643000  1
  H  H21  1  0.18099000  0.84840000  0.99800000  1
  H  H22  1  0.15977000  0.50257000  0.93850000  1
  H  H23  1  0.24168000  0.40574000  0.27734000  1
  H  H24  1  0.26289000  0.75159000  0.33685000  1
  H  H25  1  0.32063000  0.99787000  0.83999000  1
  H  H26  1  0.43250000  0.86565000  0.59922000  1
  H  H27  1  0.38523000  0.92155000  0.40360000  1
  H  H28  1  0.10203000  0.25628000  0.43537000  1
  H  H29  1  0.99016000  0.38850000  0.67613000  1
  H  H30  1  0.03743000  0.33262000  0.87176000  1
  C  C1  1  0.92435000  0.10473000  0.23067000  1
  C  C2  1  0.83109000  0.10261000  0.23086000  1
  C  C3  1  0.76189000  0.12823000  0.13757000  1
  C  C4  1  0.78595000  0.15598000  0.04409000  1
  C  C5  1  0.87921000  0.15810000  0.04390000  1
  C  C6  1  0.59157000  0.15155000  0.04449000  1
  C  C7  1  0.49831000  0.14943000  0.04468000  1
  C  C8  1  0.54346000  0.09606000  0.23145000  1
  C  C9  1  0.63671000  0.09819000  0.23126000  1
  C  C10  1  0.66077000  0.12593000  0.13778000  1
  C  C11  1  0.58093000  0.04620000  0.42029000  1
  C  C12  1  0.97902000  0.04696000  0.42005000  1
  C  C13  1  0.74022000  0.17717000  0.86102000  1
  C  C14  1  0.58992000  0.34599000  0.95557000  1
  C  C15  1  0.04766000  0.13473000  0.13699000  1
  C  C16  1  0.94841000  0.13247000  0.13720000  1
  C  C17  1  0.37500000  0.11943000  0.13836000  1
  C  C18  1  0.47425000  0.12169000  0.13815000  1
  C  C19  1  0.17758000  0.63900000  0.00016000  1
  C  C20  1  0.17798000  0.52660000  0.01038000  1
  C  C21  1  0.22312000  0.47323000  0.19715000  1
  C  C22  1  0.22272000  0.58563000  0.18692000  1
  C  C23  1  0.19995000  0.66851000  0.08843000  1
  C  C24  1  0.19954000  0.78092000  0.07821000  1
  C  C25  1  0.24469000  0.72755000  0.26497000  1
  C  C26  1  0.24509000  0.61515000  0.27519000  1
  C  C27  1  0.22148000  0.93007000  0.15560000  1
  C  C28  1  0.22191000  0.81044000  0.16648000  1
  C  C29  1  0.20118000  0.32408000  0.11975000  1
  C  C30  1  0.20075000  0.44371000  0.10887000  1
  C  C31  1  0.37138000  0.93791000  0.54989000  1
  C  C32  1  0.34531000  0.96872000  0.44205000  1
  C  C33  1  0.22125000  0.11536000  0.42869000  1
  C  C34  1  0.24731000  0.08456000  0.53653000  1
  C  C35  1  0.32237000  0.99583000  0.59712000  1
  C  C36  1  0.19831000  0.14248000  0.58376000  1
  C  C37  1  0.22436000  0.11168000  0.69159000  1
  C  C38  1  0.29942000  0.02295000  0.75219000  1
  C  C39  1  0.34843000  0.96502000  0.70495000  1
  C  C40  1  0.12324000  0.23120000  0.52317000  1
  C  C41  1  0.07423000  0.28913000  0.57040000  1
  C  C42  1  0.10029000  0.25833000  0.67823000  1
  C  C43  1  0.17535000  0.16960000  0.73883000  1
  C  C44  1  0.05128000  0.31625000  0.72547000  1
  C  C45  1  0.07733000  0.28545000  0.83330000  1
  C  C46  1  0.20140000  0.13880000  0.84666000  1
  N  N1  1  0.15708000  0.71924000  0.89695000  1
  N  N2  1  0.27253000  0.53383000  0.37849000  1
  N  N3  1  0.15240000  0.19672000  0.89389000  1
  N  N4  1  0.27026000  0.05743000  0.38146000  1
  O  O1  1  0.51415000  0.06982000  0.32294000  1
  O  O2  1  0.99825000  0.07907000  0.32178000  1
  O  O3  1  0.73550000  0.12314000  0.96459000  1
  O  O4  1  0.59519000  0.23437000  0.95327000  1
  O  O5  1  0.05928000  0.16111000  0.04723000  1
  O  O6  1  0.10265000  0.10986000  0.22660000  1
  O  O7  1  0.36338000  0.09304000  0.22812000  1
  O  O8  1  0.32001000  0.14429000  0.04875000  1
  O  O9  1  0.24302000  0.94459000  0.24163000  1
  O  O10  1  0.19965000  0.99583000  0.06226000  1
  O  O11  1  0.17965000  0.30956000  0.03372000  1
  O  O12  1  0.22300000  0.25832000  0.21309000  1
  F  F1  1  0.41864000  0.87611000  0.76527000  1
  F  F2  1  0.99916000  0.37195000  0.51064000  1
  F  F3  1  0.17208000  0.21568000  0.35873000  1
  F  F4  1  0.28559000  0.08145000  0.91273000  1
