# generated using pymatgen
data_CuH9C14N4O4F3
_symmetry_space_group_name_H-M   'P 1'
_cell_length_a   15.99530000
_cell_length_b   9.06520000
_cell_length_c   14.42150000
_cell_angle_alpha   90.00560000
_cell_angle_beta   90.01170000
_cell_angle_gamma   84.24520000
_symmetry_Int_Tables_number   1
_chemical_formula_structural   CuH9C14N4O4F3
_chemical_formula_sum   'Cu2 H18 C28 N8 O8 F6'
_cell_volume   2080.58698894
_cell_formula_units_Z   2
loop_
 _symmetry_equiv_pos_site_id
 _symmetry_equiv_pos_as_xyz
  1  'x, y, z'
loop_
 _atom_site_type_symbol
 _atom_site_label
 _atom_site_symmetry_multiplicity
 _atom_site_fract_x
 _atom_site_fract_y
 _atom_site_fract_z
 _atom_site_occupancy
  Cu  Cu1  1  0.21464000  0.05570000  0.12211000  1
  Cu  Cu2  1  0.21466000  0.05573000  0.30450000  1
  H  H1  1  0.77993000  0.15885000  0.07208000  1
  H  H2  1  0.63619000  0.15498000  0.07184000  1
  H  H3  1  0.66047000  0.80737000  0.22725000  1
  H  H4  1  0.80396000  0.81241000  0.22872000  1
  H  H5  1  0.77744000  0.20784000  0.33743000  1
  H  H6  1  0.63427000  0.19395000  0.34003000  1
  H  H7  1  0.12539000  0.78459000  0.60357000  1
  H  H8  1  0.17114000  0.70270000  0.69754000  1
  H  H9  1  0.03694000  0.07513000  0.81316000  1
  H  H10  1  0.06840000  0.89291000  0.81310000  1
  H  H11  1  0.38039000  0.87943000  0.81320000  1
  H  H12  1  0.30903000  0.75579000  0.81318000  1
  H  H13  1  0.36724000  0.20257000  0.60295000  1
  H  H14  1  0.41268000  0.12290000  0.69775000  1
  H  H15  1  0.26058000  0.39038000  0.71456000  1
  H  H16  1  0.20180000  0.36787000  0.80891000  1
  H  H17  1  0.06781000  0.31875000  0.69758000  1
  H  H18  1  0.12674000  0.34007000  0.60322000  1
  C  C1  1  0.63085000  0.05311000  0.21332000  1
  C  C2  1  0.66619000  0.05475000  0.11172000  1
  C  C3  1  0.76294000  0.05719000  0.11166000  1
  C  C4  1  0.79845000  0.05832000  0.21330000  1
  C  C5  1  0.77275000  0.91644000  0.26375000  1
  C  C6  1  0.67602000  0.91332000  0.26310000  1
  C  C7  1  0.65721000  0.19369000  0.26518000  1
  C  C8  1  0.75383000  0.19856000  0.26328000  1
  C  C9  1  0.89317000  0.06125000  0.21330000  1
  C  C10  1  0.53613000  0.05016000  0.21332000  1
  C  C11  1  0.06165000  0.06651000  0.21329000  1
  C  C12  1  0.96868000  0.06360000  0.21329000  1
  C  C13  1  0.36766000  0.04492000  0.21332000  1
  C  C14  1  0.46063000  0.04782000  0.21333000  1
  C  C15  1  0.21873000  0.78598000  0.21331000  1
  C  C16  1  0.21584000  0.62221000  0.21331000  1
  C  C17  1  0.21058000  0.32544000  0.21331000  1
  C  C18  1  0.21348000  0.48921000  0.21331000  1
  C  C19  1  0.27320000  0.95073000  0.74422000  1
  C  C20  1  0.19728000  0.92245000  0.68237000  1
  C  C21  1  0.21465000  0.05570000  0.80467000  1
  C  C22  1  0.29058000  0.08393000  0.68242000  1
  C  C23  1  0.21466000  0.05572000  0.62195000  1
  C  C24  1  0.13868000  0.02736000  0.74419000  1
  C  C25  1  0.23203000  0.18890000  0.74424000  1
  C  C26  1  0.15605000  0.16068000  0.68243000  1
  C  C27  1  0.21464000  0.05569000  0.90993000  1
  C  C28  1  0.21466000  0.05573000  0.51669000  1
  N  N1  1  0.18201000  0.76839000  0.64013000  1
  N  N2  1  0.05939000  0.98659000  0.77066000  1
  N  N3  1  0.33952000  0.82693000  0.77068000  1
  N  N4  1  0.37555000  0.10342000  0.64026000  1
  N  N5  1  0.25429000  0.32203000  0.77197000  1
  N  N6  1  0.09547000  0.26300000  0.64017000  1
  N  N7  1  0.21464000  0.05568000  0.99383000  1
  N  N8  1  0.21467000  0.05575000  0.43278000  1
  O  O1  1  0.09284000  0.06747000  0.13256000  1
  O  O2  1  0.09286000  0.06749000  0.29404000  1
  O  O3  1  0.33649000  0.04352000  0.29406000  1
  O  O4  1  0.33642000  0.04437000  0.13258000  1
  O  O5  1  0.21971000  0.84095000  0.29405000  1
  O  O6  1  0.21969000  0.84093000  0.13257000  1
  O  O7  1  0.20961000  0.27049000  0.29405000  1
  O  O8  1  0.20960000  0.27047000  0.13257000  1
  F  F1  1  0.64419000  0.93289000  0.06282000  1
  F  F2  1  0.64640000  0.90401000  0.35308000  1
  F  F3  1  0.77423000  0.32688000  0.21982000  1
  F  F4  1  0.80104000  0.93612000  0.06339000  1
  F  F5  1  0.61759000  0.32144000  0.22563000  1
  F  F6  1  0.80288000  0.91189000  0.35413000  1
