# generated using pymatgen
data_CuH10C19N3O4
_symmetry_space_group_name_H-M   'P 1'
_cell_length_a   19.18890000
_cell_length_b   14.85350000
_cell_length_c   9.13031000
_cell_angle_alpha   90.00120000
_cell_angle_beta   90.01020000
_cell_angle_gamma   83.38380000
_symmetry_Int_Tables_number   1
_chemical_formula_structural   CuH10C19N3O4
_chemical_formula_sum   'Cu2 H20 C38 N6 O8'
_cell_volume   2585.01114849
_cell_formula_units_Z   2
loop_
 _symmetry_equiv_pos_site_id
 _symmetry_equiv_pos_as_xyz
  1  'x, y, z'
loop_
 _atom_site_type_symbol
 _atom_site_label
 _atom_site_symmetry_multiplicity
 _atom_site_fract_x
 _atom_site_fract_y
 _atom_site_fract_z
 _atom_site_occupancy
  Cu  Cu1  1  0.21619000  0.20270000  0.92352000  1
  Cu  Cu2  1  0.21621000  0.20270000  0.21161000  1
  H  H1  1  0.00426000  0.20820000  0.82662000  1
  H  H2  1  0.87214000  0.20568000  0.82663000  1
  H  H3  1  0.87218000  0.20567000  0.30847000  1
  H  H4  1  0.00431000  0.20817000  0.30847000  1
  H  H5  1  0.56022000  0.19974000  0.82666000  1
  H  H6  1  0.42810000  0.19721000  0.82668000  1
  H  H7  1  0.42815000  0.19722000  0.30851000  1
  H  H8  1  0.56027000  0.19973000  0.30850000  1
  H  H9  1  0.21955000  0.92904000  0.30849000  1
  H  H10  1  0.21747000  0.78801000  0.44128000  1
  H  H11  1  0.21497000  0.61741000  0.44128000  1
  H  H12  1  0.21288000  0.47636000  0.30849000  1
  H  H13  1  0.21285000  0.47636000  0.82666000  1
  H  H14  1  0.21492000  0.61740000  0.69386000  1
  H  H15  1  0.21743000  0.78799000  0.69384000  1
  H  H16  1  0.21952000  0.92903000  0.82664000  1
  H  H17  1  0.13035000  0.31445000  0.70659000  1
  H  H18  1  0.13038000  0.31446000  0.42844000  1
  H  H19  1  0.30206000  0.09095000  0.42853000  1
  H  H20  1  0.30204000  0.09094000  0.70671000  1
  C  C1  1  0.97463000  0.20763000  0.93476000  1
  C  C2  1  0.90180000  0.20624000  0.93476000  1
  C  C3  1  0.86539000  0.20555000  0.06755000  1
  C  C4  1  0.90183000  0.20623000  0.20035000  1
  C  C5  1  0.97465000  0.20761000  0.20034000  1
  C  C6  1  0.64597000  0.20137000  0.06758000  1
  C  C7  1  0.78643000  0.20405000  0.06757000  1
  C  C8  1  0.53058000  0.19918000  0.93479000  1
  C  C9  1  0.45775000  0.19778000  0.93480000  1
  C  C10  1  0.45778000  0.19777000  0.20039000  1
  C  C11  1  0.53061000  0.19916000  0.20038000  1
  C  C12  1  0.56700000  0.19987000  0.06758000  1
  C  C13  1  0.08856000  0.20979000  0.06755000  1
  C  C14  1  0.01105000  0.20832000  0.06754000  1
  C  C15  1  0.34385000  0.19561000  0.06758000  1
  C  C16  1  0.42136000  0.19708000  0.06759000  1
  C  C17  1  0.21343000  0.51464000  0.20036000  1
  C  C18  1  0.21342000  0.51464000  0.93478000  1
  C  C19  1  0.21481000  0.60867000  0.93478000  1
  C  C20  1  0.21551000  0.65568000  0.06757000  1
  C  C21  1  0.21482000  0.60868000  0.20036000  1
  C  C22  1  0.21549000  0.65568000  0.80198000  1
  C  C23  1  0.21688000  0.74971000  0.80197000  1
  C  C24  1  0.21758000  0.79673000  0.93476000  1
  C  C25  1  0.21690000  0.74972000  0.06756000  1
  C  C26  1  0.21760000  0.79674000  0.20035000  1
  C  C27  1  0.21691000  0.74972000  0.33316000  1
  C  C28  1  0.21553000  0.65569000  0.33315000  1
  C  C29  1  0.21897000  0.89076000  0.93477000  1
  C  C30  1  0.21899000  0.89077000  0.20035000  1
  C  C31  1  0.22115000  0.03785000  0.06756000  1
  C  C32  1  0.21967000  0.93778000  0.06756000  1
  C  C33  1  0.21126000  0.36755000  0.06757000  1
  C  C34  1  0.21273000  0.46762000  0.06758000  1
  C  C35  1  0.16888000  0.26429000  0.64420000  1
  C  C36  1  0.16890000  0.26429000  0.49087000  1
  C  C37  1  0.26353000  0.14110000  0.49094000  1
  C  C38  1  0.26352000  0.14111000  0.64427000  1
  N  N1  1  0.74591000  0.25468000  0.16640000  1
  N  N2  1  0.67673000  0.25336000  0.16640000  1
  N  N3  1  0.68701000  0.15076000  0.96874000  1
  N  N4  1  0.75620000  0.15208000  0.96874000  1
  N  N5  1  0.21619000  0.20270000  0.72090000  1
  N  N6  1  0.21622000  0.20270000  0.41423000  1
  O  O1  1  0.11456000  0.21029000  0.94002000  1
  O  O2  1  0.11457000  0.21028000  0.19508000  1
  O  O3  1  0.31784000  0.19512000  0.19511000  1
  O  O4  1  0.31783000  0.19511000  0.94005000  1
  O  O5  1  0.22165000  0.07143000  0.19509000  1
  O  O6  1  0.22163000  0.07144000  0.94003000  1
  O  O7  1  0.21077000  0.33397000  0.94004000  1
  O  O8  1  0.21076000  0.33397000  0.19510000  1
