# generated using pymatgen
data_CuH15C22N2O7
_symmetry_space_group_name_H-M   'P 1'
_cell_length_a   14.85350000
_cell_length_b   16.10930000
_cell_length_c   14.58630000
_cell_angle_alpha   90.00240000
_cell_angle_beta   90.00910000
_cell_angle_gamma   83.54710000
_symmetry_Int_Tables_number   1
_chemical_formula_structural   CuH15C22N2O7
_chemical_formula_sum   'Cu2 H30 C44 N4 O14'
_cell_volume   3468.09044182
_cell_formula_units_Z   2
loop_
 _symmetry_equiv_pos_site_id
 _symmetry_equiv_pos_as_xyz
  1  'x, y, z'
loop_
 _atom_site_type_symbol
 _atom_site_label
 _atom_site_symmetry_multiplicity
 _atom_site_fract_x
 _atom_site_fract_y
 _atom_site_fract_z
 _atom_site_occupancy
  Cu  Cu1  1  0.24466000  0.12766000  0.02686000  1
  Cu  Cu2  1  0.24470000  0.12766000  0.20718000  1
  H  H1  1  0.91251000  0.02766000  0.80322000  1
  H  H2  1  0.80852000  0.06798000  0.74756000  1
  H  H3  1  0.80581000  0.00432000  0.84936000  1
  H  H4  1  0.57681000  0.22766000  0.80324000  1
  H  H5  1  0.68070000  0.18741000  0.74757000  1
  H  H6  1  0.68346000  0.25101000  0.84938000  1
  H  H7  1  0.80859000  0.06797000  0.48647000  1
  H  H8  1  0.91255000  0.02765000  0.43080000  1
  H  H9  1  0.80590000  0.00430000  0.38466000  1
  H  H10  1  0.57686000  0.22765000  0.43082000  1
  H  H11  1  0.68356000  0.25100000  0.38468000  1
  H  H12  1  0.68085000  0.18733000  0.48648000  1
  H  H13  1  0.97101000  0.13164000  0.96621000  1
  H  H14  1  0.51830000  0.12369000  0.96621000  1
  H  H15  1  0.51835000  0.12368000  0.26781000  1
  H  H16  1  0.97105000  0.13163000  0.26783000  1
  H  H17  1  0.24185000  0.47763000  0.29218000  1
  H  H18  1  0.24373000  0.57556000  0.34806000  1
  H  H19  1  0.24751000  0.77769000  0.94187000  1
  H  H20  1  0.24563000  0.67976000  0.88599000  1
  H  H21  1  0.24317000  0.54900000  0.96622000  1
  H  H22  1  0.24620000  0.70633000  0.26783000  1
  H  H23  1  0.39355000  0.91376000  0.60518000  1
  H  H24  1  0.47629000  0.98980000  0.60519000  1
  H  H25  1  0.47025000  0.91912000  0.51072000  1
  H  H26  1  0.01307000  0.26552000  0.62885000  1
  H  H27  1  0.09581000  0.34156000  0.62887000  1
  H  H28  1  0.01912000  0.33620000  0.72333000  1
  H  H29  1  0.13370000  0.23029000  0.52995000  1
  H  H30  1  0.35568000  0.02503000  0.70410000  1
  C  C1  1  0.55660000  0.12435000  0.03389000  1
  C  C2  1  0.55662000  0.12435000  0.20013000  1
  C  C3  1  0.65065000  0.12600000  0.20014000  1
  C  C4  1  0.69766000  0.12683000  0.11702000  1
  C  C5  1  0.65064000  0.12601000  0.03390000  1
  C  C6  1  0.69769000  0.12682000  0.28326000  1
  C  C7  1  0.79172000  0.12848000  0.28327000  1
  C  C8  1  0.83873000  0.12931000  0.20015000  1
  C  C9  1  0.79170000  0.12849000  0.11702000  1
  C  C10  1  0.83871000  0.12931000  0.03390000  1
  C  C11  1  0.79168000  0.12849000  0.95077000  1
  C  C12  1  0.69764000  0.12684000  0.95078000  1
  C  C13  1  0.93276000  0.13097000  0.20015000  1
  C  C14  1  0.93274000  0.13097000  0.03390000  1
  C  C15  1  0.84098000  0.05334000  0.81502000  1
  C  C16  1  0.64834000  0.20199000  0.81503000  1
  C  C17  1  0.84103000  0.05332000  0.41901000  1
  C  C18  1  0.64838000  0.20198000  0.41902000  1
  C  C19  1  0.07985000  0.13355000  0.11702000  1
  C  C20  1  0.97977000  0.13179000  0.11703000  1
  C  C21  1  0.40951000  0.12177000  0.11702000  1
  C  C22  1  0.50959000  0.12352000  0.11701000  1
  C  C23  1  0.24549000  0.67102000  0.03390000  1
  C  C24  1  0.24385000  0.58429000  0.03390000  1
  C  C25  1  0.24387000  0.58431000  0.20015000  1
  C  C26  1  0.24552000  0.67103000  0.20014000  1
  C  C27  1  0.24633000  0.71438000  0.11702000  1
  C  C28  1  0.24303000  0.54094000  0.11702000  1
  C  C29  1  0.24125000  0.44691000  0.11703000  1
  C  C30  1  0.24811000  0.80842000  0.11701000  1
  C  C31  1  0.25130000  0.97566000  0.11701000  1
  C  C32  1  0.24954000  0.88337000  0.11701000  1
  C  C33  1  0.23806000  0.27966000  0.11703000  1
  C  C34  1  0.23982000  0.37195000  0.11703000  1
  C  C35  1  0.18350000  0.18422000  0.66500000  1
  C  C36  1  0.18351000  0.18422000  0.56902000  1
  C  C37  1  0.30587000  0.07109000  0.56905000  1
  C  C38  1  0.30586000  0.07110000  0.66503000  1
  C  C39  1  0.24467000  0.12766000  0.71300000  1
  C  C40  1  0.24469000  0.12766000  0.52104000  1
  C  C41  1  0.24470000  0.12766000  0.41697000  1
  C  C42  1  0.24466000  0.12766000  0.81707000  1
  C  C43  1  0.42937000  0.95691000  0.56268000  1
  C  C44  1  0.05999000  0.29841000  0.67137000  1
  N  N1  1  0.24308000  0.54205000  0.28677000  1
  N  N2  1  0.24628000  0.71327000  0.94728000  1
  N  N3  1  0.24465000  0.12766000  0.90003000  1
  N  N4  1  0.24471000  0.12766000  0.33402000  1
  O  O1  1  0.83933000  0.12851000  0.86761000  1
  O  O2  1  0.64995000  0.12682000  0.86761000  1
  O  O3  1  0.83942000  0.12850000  0.36643000  1
  O  O4  1  0.65004000  0.12681000  0.36643000  1
  O  O5  1  0.11342000  0.13414000  0.03720000  1
  O  O6  1  0.11345000  0.13413000  0.19685000  1
  O  O7  1  0.37594000  0.12119000  0.19685000  1
  O  O8  1  0.37591000  0.12117000  0.03719000  1
  O  O9  1  0.25190000  0.00663000  0.19684000  1
  O  O10  1  0.25187000  0.00664000  0.03719000  1
  O  O11  1  0.23747000  0.24868000  0.03720000  1
  O  O12  1  0.23748000  0.24868000  0.19685000  1
  O  O13  1  0.36584000  0.01565000  0.51646000  1
  O  O14  1  0.12352000  0.23967000  0.71758000  1
