# generated using pymatgen
data_CuH19C24N5O7
_symmetry_space_group_name_H-M   'P 1'
_cell_length_a   12.81140000
_cell_length_b   19.18890000
_cell_length_c   13.33040000
_cell_angle_alpha   89.99360000
_cell_angle_beta   95.43760000
_cell_angle_gamma   83.59400000
_symmetry_Int_Tables_number   1
_chemical_formula_structural   CuH19C24N5O7
_chemical_formula_sum   'Cu2 H38 C48 N10 O14'
_cell_volume   3241.79576910
_cell_formula_units_Z   2
loop_
 _symmetry_equiv_pos_site_id
 _symmetry_equiv_pos_as_xyz
  1  'x, y, z'
loop_
 _atom_site_type_symbol
 _atom_site_label
 _atom_site_symmetry_multiplicity
 _atom_site_fract_x
 _atom_site_fract_y
 _atom_site_fract_z
 _atom_site_occupancy
  Cu  Cu1  1  0.13341000  0.17860000  0.07977000  1
  Cu  Cu2  1  0.13343000  0.17860000  0.27708000  1
  H  H1  1  0.55325000  0.22558000  0.49940000  1
  H  H2  1  0.67021000  0.17913000  0.56338000  1
  H  H3  1  0.57259000  0.12958000  0.50117000  1
  H  H4  1  0.59662000  0.17808000  0.79347000  1
  H  H5  1  0.71359000  0.13163000  0.85745000  1
  H  H6  1  0.69424000  0.22763000  0.85568000  1
  H  H7  1  0.81484000  0.18127000  0.31446000  1
  H  H8  1  0.45205000  0.17594000  0.37242000  1
  H  H9  1  0.45198000  0.17594000  0.04240000  1
  H  H10  1  0.81480000  0.18127000  0.98443000  1
  H  H11  1  0.13751000  0.02901000  0.99336000  1
  H  H12  1  0.13611000  0.94824000  0.92573000  1
  H  H13  1  0.17489000  0.77672000  0.37374000  1
  H  H14  1  0.13107000  0.85728000  0.43014000  1
  H  H15  1  0.16994000  0.57403000  0.37324000  1
  H  H16  1  0.12311000  0.50099000  0.42937000  1
  H  H17  1  0.12202000  0.32890000  0.99187000  1
  H  H18  1  0.12420000  0.40960000  0.92462000  1
  H  H19  1  0.13983000  0.96667000  0.34404000  1
  H  H20  1  0.13686000  0.83458000  0.01374000  1
  H  H21  1  0.12704000  0.39049000  0.34284000  1
  H  H22  1  0.12994000  0.52265000  0.01308000  1
  H  H23  1  0.31678000  0.94230000  0.86635000  1
  H  H24  1  0.39995000  0.93415000  0.76449000  1
  H  H25  1  0.25913000  0.95658000  0.73852000  1
  H  H26  1  0.48938000  0.05740000  0.53978000  1
  H  H27  1  0.50194000  0.00216000  0.65030000  1
  H  H28  1  0.46772000  0.09568000  0.66030000  1
  H  H29  1  0.76494000  0.35507000  0.70649000  1
  H  H30  1  0.77745000  0.29980000  0.81708000  1
  H  H31  1  0.79911000  0.26152000  0.69656000  1
  H  H32  1  0.95006000  0.41490000  0.49050000  1
  H  H33  1  0.00770000  0.40062000  0.61834000  1
  H  H34  1  0.86688000  0.42305000  0.59237000  1
  H  H35  1  0.26300000  0.09269000  0.94305000  1
  H  H36  1  0.26304000  0.09269000  0.43745000  1
  H  H37  1  0.00385000  0.26450000  0.41380000  1
  H  H38  1  0.00380000  0.26451000  0.91939000  1
  C  C1  1  0.60607000  0.17820000  0.31237000  1
  C  C2  1  0.49660000  0.17659000  0.30241000  1
  C  C3  1  0.49657000  0.17659000  0.12050000  1
  C  C4  1  0.60604000  0.17820000  0.13046000  1
  C  C5  1  0.66079000  0.17901000  0.22639000  1
  C  C6  1  0.77026000  0.18062000  0.23635000  1
  C  C7  1  0.77023000  0.18062000  0.05444000  1
  C  C8  1  0.66076000  0.17901000  0.04448000  1
  C  C9  1  0.61148000  0.17827000  0.49683000  1
  C  C10  1  0.65535000  0.17894000  0.86002000  1
  C  C11  1  0.94150000  0.18314000  0.16096000  1
  C  C12  1  0.82499000  0.18142000  0.15037000  1
  C  C13  1  0.32534000  0.17406000  0.19588000  1
  C  C14  1  0.44185000  0.17578000  0.20648000  1
  C  C15  1  0.13917000  0.93704000  0.26991000  1
  C  C16  1  0.13755000  0.86421000  0.26976000  1
  C  C17  1  0.13673000  0.82780000  0.17874000  1
  C  C18  1  0.13752000  0.86423000  0.08785000  1
  C  C19  1  0.13913000  0.93706000  0.08800000  1
  C  C20  1  0.13187000  0.60837000  0.17827000  1
  C  C21  1  0.13498000  0.74883000  0.17856000  1
  C  C22  1  0.12932000  0.49297000  0.26899000  1
  C  C23  1  0.12769000  0.42014000  0.26884000  1
  C  C24  1  0.12767000  0.42017000  0.08692000  1
  C  C25  1  0.12929000  0.49300000  0.08708000  1
  C  C26  1  0.13012000  0.52940000  0.17812000  1
  C  C27  1  0.14167000  0.05097000  0.17919000  1
  C  C28  1  0.13996000  0.97346000  0.17904000  1
  C  C29  1  0.12516000  0.30623000  0.17766000  1
  C  C30  1  0.12688000  0.38374000  0.17781000  1
  C  C31  1  0.20487000  0.13124000  0.47490000  1
  C  C32  1  0.06200000  0.22594000  0.46186000  1
  C  C33  1  0.06199000  0.22595000  0.56688000  1
  C  C34  1  0.13342000  0.17860000  0.62591000  1
  C  C35  1  0.20486000  0.13125000  0.57992000  1
  C  C36  1  0.99055000  0.27330000  0.61287000  1
  C  C37  1  0.99054000  0.27330000  0.71790000  1
  C  C38  1  0.06197000  0.22596000  0.77693000  1
  C  C39  1  0.13341000  0.17860000  0.73094000  1
  C  C40  1  0.20484000  0.13125000  0.78997000  1
  C  C41  1  0.27629000  0.08390000  0.74398000  1
  C  C42  1  0.27629000  0.08390000  0.63896000  1
  C  C43  1  0.06197000  0.22596000  0.88195000  1
  C  C44  1  0.20484000  0.13126000  0.89500000  1
  C  C45  1  0.32922000  0.96407000  0.79187000  1
  C  C46  1  0.45667000  0.04906000  0.61241000  1
  C  C47  1  0.81016000  0.30814000  0.74445000  1
  C  C48  1  0.93761000  0.39313000  0.56499000  1
  N  N1  1  0.19392000  0.70843000  0.11624000  1
  N  N2  1  0.19239000  0.63925000  0.11610000  1
  N  N3  1  0.07295000  0.64929000  0.24061000  1
  N  N4  1  0.07449000  0.71848000  0.24075000  1
  N  N5  1  0.13647000  0.97468000  0.99425000  1
  N  N6  1  0.14309000  0.82897000  0.36447000  1
  N  N7  1  0.13625000  0.52720000  0.36380000  1
  N  N8  1  0.12338000  0.38319000  0.99296000  1
  N  N9  1  0.13340000  0.17861000  0.94098000  1
  N  N10  1  0.13344000  0.17859000  0.41587000  1
  O  O1  1  0.66503000  0.17906000  0.40770000  1
  O  O2  1  0.60180000  0.17815000  0.94915000  1
  O  O3  1  0.98059000  0.18372000  0.07717000  1
  O  O4  1  0.98061000  0.18371000  0.25187000  1
  O  O5  1  0.28625000  0.17348000  0.27968000  1
  O  O6  1  0.28623000  0.17348000  0.10498000  1
  O  O7  1  0.14226000  0.07698000  0.26659000  1
  O  O8  1  0.14224000  0.07699000  0.09189000  1
  O  O9  1  0.12458000  0.28022000  0.09026000  1
  O  O10  1  0.12459000  0.28021000  0.26496000  1
  O  O11  1  0.34707000  0.03606000  0.80354000  1
  O  O12  1  0.34845000  0.03698000  0.59242000  1
  O  O13  1  0.91838000  0.32022000  0.76444000  1
  O  O14  1  0.91977000  0.32114000  0.55332000  1
