# generated using pymatgen
data_CuH12C19N3(O3F2)2
_symmetry_space_group_name_H-M   'P 1'
_cell_length_a   15.99530000
_cell_length_b   19.18890000
_cell_length_c   9.13031000
_cell_angle_alpha   89.99600000
_cell_angle_beta   90.01110000
_cell_angle_gamma   83.31100000
_symmetry_Int_Tables_number   1
_chemical_formula_structural   CuH12C19N3(O3F2)2
_chemical_formula_sum   'Cu2 H24 C38 N6 O12 F8'
_cell_volume   2783.31042387
_cell_formula_units_Z   2
loop_
 _symmetry_equiv_pos_site_id
 _symmetry_equiv_pos_as_xyz
  1  'x, y, z'
loop_
 _atom_site_type_symbol
 _atom_site_label
 _atom_site_symmetry_multiplicity
 _atom_site_fract_x
 _atom_site_fract_y
 _atom_site_fract_z
 _atom_site_occupancy
  Cu  Cu1  1  0.15781000  0.26761000  0.92143000  1
  Cu  Cu2  1  0.15782000  0.26761000  0.20951000  1
  H  H1  1  0.72214000  0.31643000  0.84239000  1
  H  H2  1  0.57843000  0.31460000  0.84202000  1
  H  H3  1  0.60594000  0.15008000  0.08750000  1
  H  H4  1  0.74939000  0.15246000  0.08983000  1
  H  H5  1  0.71918000  0.33959000  0.26151000  1
  H  H6  1  0.57615000  0.33302000  0.26562000  1
  H  H7  1  0.10453000  0.00490000  0.65241000  1
  H  H8  1  0.21971000  0.99238000  0.65297000  1
  H  H9  1  0.16344000  0.07029000  0.57596000  1
  H  H10  1  0.26235000  0.90402000  0.47881000  1
  H  H11  1  0.29239000  0.88792000  0.29032000  1
  H  H12  1  0.23656000  0.82595000  0.38824000  1
  H  H13  1  0.09638000  0.54292000  0.65236000  1
  H  H14  1  0.15270000  0.46495000  0.57593000  1
  H  H15  1  0.21156000  0.53030000  0.65293000  1
  H  H16  1  0.25708000  0.60908000  0.47874000  1
  H  H17  1  0.23395000  0.69244000  0.38826000  1
  H  H18  1  0.28751000  0.61858000  0.29036000  1
  H  H19  1  0.16293000  0.05567000  0.30642000  1
  H  H20  1  0.16056000  0.92358000  0.82457000  1
  H  H21  1  0.15273000  0.47952000  0.30636000  1
  H  H22  1  0.15504000  0.61167000  0.82454000  1
  H  H23  1  0.05445000  0.35390000  0.42633000  1
  H  H24  1  0.26120000  0.18132000  0.70463000  1
  C  C1  1  0.57404000  0.26638000  0.06549000  1
  C  C2  1  0.60936000  0.26716000  0.90502000  1
  C  C3  1  0.70608000  0.26832000  0.90492000  1
  C  C4  1  0.74159000  0.26884000  0.06546000  1
  C  C5  1  0.71721000  0.20169000  0.14516000  1
  C  C6  1  0.62051000  0.20022000  0.14413000  1
  C  C7  1  0.59909000  0.33291000  0.14740000  1
  C  C8  1  0.69566000  0.33521000  0.14439000  1
  C  C9  1  0.83628000  0.27023000  0.06545000  1
  C  C10  1  0.47935000  0.26498000  0.06550000  1
  C  C11  1  0.00471000  0.27272000  0.06545000  1
  C  C12  1  0.91177000  0.27134000  0.06544000  1
  C  C13  1  0.31092000  0.26250000  0.06550000  1
  C  C14  1  0.40386000  0.26387000  0.06551000  1
  C  C15  1  0.16240000  0.02603000  0.19828000  1
  C  C16  1  0.16111000  0.95321000  0.19828000  1
  C  C17  1  0.16046000  0.91680000  0.06549000  1
  C  C18  1  0.16108000  0.95323000  0.93269000  1
  C  C19  1  0.16237000  0.02605000  0.93270000  1
  C  C20  1  0.15658000  0.69738000  0.06546000  1
  C  C21  1  0.15906000  0.83783000  0.06547000  1
  C  C22  1  0.15455000  0.58200000  0.19824000  1
  C  C23  1  0.15325000  0.50917000  0.19823000  1
  C  C24  1  0.15323000  0.50919000  0.93264000  1
  C  C25  1  0.15452000  0.58202000  0.93266000  1
  C  C26  1  0.15518000  0.61841000  0.06546000  1
  C  C27  1  0.16263000  0.03092000  0.66468000  1
  C  C28  1  0.24241000  0.88253000  0.37323000  1
  C  C29  1  0.15334000  0.50434000  0.66464000  1
  C  C30  1  0.23792000  0.63478000  0.37326000  1
  C  C31  1  0.16440000  0.13996000  0.06549000  1
  C  C32  1  0.16303000  0.06245000  0.06550000  1
  C  C33  1  0.15123000  0.39526000  0.06545000  1
  C  C34  1  0.15260000  0.47277000  0.06544000  1
  C  C35  1  0.10082000  0.31517000  0.64210000  1
  C  C36  1  0.10084000  0.31517000  0.48876000  1
  C  C37  1  0.21481000  0.22005000  0.48885000  1
  C  C38  1  0.21480000  0.22005000  0.64219000  1
  N  N1  1  0.20608000  0.79726000  0.96665000  1
  N  N2  1  0.20486000  0.72808000  0.96665000  1
  N  N3  1  0.10958000  0.73848000  0.16429000  1
  N  N4  1  0.11080000  0.80766000  0.16429000  1
  N  N5  1  0.15780000  0.26761000  0.71881000  1
  N  N6  1  0.15783000  0.26761000  0.41214000  1
  O  O1  1  0.03589000  0.27318000  0.93792000  1
  O  O2  1  0.03591000  0.27318000  0.19298000  1
  O  O3  1  0.27977000  0.26183000  0.19302000  1
  O  O4  1  0.27969000  0.26225000  0.93796000  1
  O  O5  1  0.16307000  0.06595000  0.80256000  1
  O  O6  1  0.16220000  0.91829000  0.33313000  1
  O  O7  1  0.15254000  0.46930000  0.80254000  1
  O  O8  1  0.15675000  0.61654000  0.33306000  1
  O  O9  1  0.16487000  0.16597000  0.19302000  1
  O  O10  1  0.16485000  0.16597000  0.93796000  1
  O  O11  1  0.15077000  0.36925000  0.93793000  1
  O  O12  1  0.15077000  0.36925000  0.19299000  1
  F  F1  1  0.58849000  0.20950000  0.82778000  1
  F  F2  1  0.59097000  0.19580000  0.28625000  1
  F  F3  1  0.71487000  0.39594000  0.07573000  1
  F  F4  1  0.74531000  0.21102000  0.82868000  1
  F  F5  1  0.55828000  0.39337000  0.08491000  1
  F  F6  1  0.74738000  0.19953000  0.28792000  1
  F  F7  1  0.04566000  0.36105000  0.71657000  1
  F  F8  1  0.27003000  0.17422000  0.41431000  1
