# generated using pymatgen
data_CuH16C23N4(O3F)2
_symmetry_space_group_name_H-M   'P 1'
_cell_length_a   15.94450000
_cell_length_b   14.97150000
_cell_length_c   13.33040000
_cell_angle_alpha   89.99990000
_cell_angle_beta   90.01000000
_cell_angle_gamma   83.55300000
_symmetry_Int_Tables_number   1
_chemical_formula_structural   CuH16C23N4(O3F)2
_chemical_formula_sum   'Cu2 H32 C46 N8 O12 F4'
_cell_volume   3162.01742286
_cell_formula_units_Z   2
loop_
 _symmetry_equiv_pos_site_id
 _symmetry_equiv_pos_as_xyz
  1  'x, y, z'
loop_
 _atom_site_type_symbol
 _atom_site_label
 _atom_site_symmetry_multiplicity
 _atom_site_fract_x
 _atom_site_fract_y
 _atom_site_fract_z
 _atom_site_occupancy
  Cu  Cu1  1  0.16736000  0.20089000  0.02142000  1
  Cu  Cu2  1  0.16738000  0.20088000  0.21873000  1
  H  H1  1  0.59190000  0.00574000  0.06634000  1
  H  H2  1  0.67669000  0.00741000  0.99215000  1
  H  H3  1  0.77390000  0.06845000  0.27063000  1
  H  H4  1  0.78070000  0.01207000  0.16162000  1
  H  H5  1  0.75085000  0.25679000  0.90680000  1
  H  H6  1  0.76460000  0.14401000  0.90672000  1
  H  H7  1  0.54474000  0.38747000  0.06613000  1
  H  H8  1  0.63019000  0.38990000  0.99322000  1
  H  H9  1  0.64571000  0.38782000  0.23762000  1
  H  H10  1  0.73787000  0.33211000  0.27409000  1
  H  H11  1  0.65325000  0.20049000  0.35824000  1
  H  H12  1  0.56113000  0.25580000  0.32110000  1
  H  H13  1  0.16720000  0.45067000  0.78504000  1
  H  H14  1  0.22633000  0.53455000  0.83763000  1
  H  H15  1  0.11074000  0.55180000  0.83380000  1
  H  H16  1  0.22421000  0.85056000  0.83405000  1
  H  H17  1  0.16793000  0.95194000  0.78536000  1
  H  H18  1  0.10869000  0.86794000  0.83756000  1
  H  H19  1  0.12640000  0.74687000  0.44752000  1
  H  H20  1  0.10668000  0.86198000  0.40934000  1
  H  H21  1  0.21290000  0.80202000  0.40049000  1
  H  H22  1  0.32248000  0.59689000  0.20725000  1
  H  H23  1  0.32200000  0.69041000  0.29277000  1
  H  H24  1  0.33138000  0.57713000  0.34040000  1
  H  H25  1  0.16841000  0.76014000  0.95506000  1
  H  H26  1  0.16629000  0.64164000  0.95506000  1
  H  H27  1  0.16334000  0.47238000  0.28510000  1
  H  H28  1  0.17144000  0.92939000  0.28508000  1
  H  H29  1  0.27063000  0.09035000  0.87291000  1
  H  H30  1  0.27067000  0.09034000  0.36730000  1
  H  H31  1  0.06411000  0.31141000  0.36724000  1
  H  H32  1  0.06406000  0.31142000  0.87284000  1
  C  C1  1  0.69524000  0.20141000  0.02506000  1
  C  C2  1  0.64843000  0.12666000  0.07254000  1
  C  C3  1  0.74983000  0.20243000  0.12007000  1
  C  C4  1  0.63049000  0.27403000  0.07257000  1
  C  C5  1  0.58491000  0.19933000  0.12008000  1
  C  C6  1  0.70425000  0.12764000  0.16755000  1
  C  C7  1  0.68631000  0.27508000  0.16756000  1
  C  C8  1  0.63953000  0.20030000  0.21511000  1
  C  C9  1  0.84483000  0.20422000  0.12006000  1
  C  C10  1  0.48991000  0.19754000  0.12009000  1
  C  C11  1  0.01380000  0.20741000  0.12006000  1
  C  C12  1  0.92055000  0.20565000  0.12005000  1
  C  C13  1  0.32093000  0.19435000  0.12009000  1
  C  C14  1  0.41418000  0.19612000  0.12009000  1
  C  C15  1  0.17073000  0.89141000  0.02911000  1
  C  C16  1  0.16908000  0.79811000  0.02912000  1
  C  C17  1  0.16827000  0.75146000  0.12007000  1
  C  C18  1  0.16911000  0.79812000  0.21102000  1
  C  C19  1  0.17076000  0.89141000  0.21102000  1
  C  C20  1  0.16566000  0.60366000  0.21103000  1
  C  C21  1  0.16400000  0.51036000  0.21103000  1
  C  C22  1  0.16398000  0.51036000  0.02913000  1
  C  C23  1  0.16563000  0.60365000  0.02912000  1
  C  C24  1  0.16647000  0.65030000  0.12008000  1
  C  C25  1  0.16724000  0.50217000  0.84483000  1
  C  C26  1  0.16778000  0.90032000  0.84500000  1
  C  C27  1  0.14423000  0.79676000  0.39216000  1
  C  C28  1  0.30094000  0.62287000  0.28227000  1
  C  C29  1  0.17333000  0.03735000  0.12007000  1
  C  C30  1  0.17157000  0.93806000  0.12006000  1
  C  C31  1  0.16140000  0.36441000  0.12008000  1
  C  C32  1  0.16316000  0.46371000  0.12009000  1
  C  C33  1  0.22431000  0.13995000  0.41004000  1
  C  C34  1  0.11045000  0.26180000  0.41001000  1
  C  C35  1  0.11045000  0.26181000  0.51503000  1
  C  C36  1  0.16737000  0.20088000  0.56756000  1
  C  C37  1  0.22430000  0.13995000  0.51507000  1
  C  C38  1  0.05351000  0.32273000  0.56753000  1
  C  C39  1  0.05350000  0.32274000  0.67255000  1
  C  C40  1  0.11043000  0.26182000  0.72508000  1
  C  C41  1  0.16736000  0.20088000  0.67259000  1
  C  C42  1  0.22429000  0.13996000  0.72512000  1
  C  C43  1  0.28123000  0.07903000  0.67263000  1
  C  C44  1  0.28123000  0.07903000  0.56760000  1
  C  C45  1  0.11043000  0.26182000  0.83010000  1
  C  C46  1  0.22428000  0.13996000  0.83015000  1
  N  N1  1  0.62022000  0.04461000  0.01375000  1
  N  N2  1  0.73817000  0.04609000  0.21196000  1
  N  N3  1  0.71936000  0.19967000  0.91520000  1
  N  N4  1  0.58301000  0.35034000  0.01384000  1
  N  N5  1  0.70187000  0.35312000  0.21115000  1
  N  N6  1  0.60176000  0.19675000  0.31053000  1
  N  N7  1  0.16735000  0.20089000  0.88263000  1
  N  N8  1  0.16738000  0.20087000  0.35751000  1
  O  O1  1  0.04509000  0.20801000  0.03271000  1
  O  O2  1  0.04510000  0.20800000  0.20741000  1
  O  O3  1  0.28965000  0.19376000  0.20743000  1
  O  O4  1  0.28963000  0.19376000  0.03273000  1
  O  O5  1  0.16388000  0.45894000  0.94002000  1
  O  O6  1  0.17102000  0.94329000  0.94035000  1
  O  O7  1  0.12466000  0.76709000  0.29351000  1
  O  O8  1  0.21109000  0.62911000  0.29471000  1
  O  O9  1  0.17393000  0.07067000  0.20742000  1
  O  O10  1  0.17391000  0.07068000  0.03272000  1
  O  O11  1  0.16080000  0.33110000  0.03273000  1
  O  O12  1  0.16082000  0.33109000  0.20743000  1
  F  F1  1  0.99778000  0.38239000  0.51801000  1
  F  F2  1  0.99776000  0.38239000  0.72205000  1
  F  F3  1  0.33696000  0.01937000  0.72214000  1
  F  F4  1  0.33697000  0.01938000  0.51810000  1
