# generated using pymatgen
data_CuH18C25N3(O3F)2
_symmetry_space_group_name_H-M   'P 1'
_cell_length_a   14.85350000
_cell_length_b   17.01930000
_cell_length_c   15.50040000
_cell_angle_alpha   88.96610000
_cell_angle_beta   87.17560000
_cell_angle_gamma   83.50940000
_symmetry_Int_Tables_number   1
_chemical_formula_structural   CuH18C25N3(O3F)2
_chemical_formula_sum   'Cu2 H36 C50 N6 O12 F4'
_cell_volume   3888.28955887
_cell_formula_units_Z   2
loop_
 _symmetry_equiv_pos_site_id
 _symmetry_equiv_pos_as_xyz
  1  'x, y, z'
loop_
 _atom_site_type_symbol
 _atom_site_label
 _atom_site_symmetry_multiplicity
 _atom_site_fract_x
 _atom_site_fract_y
 _atom_site_fract_z
 _atom_site_occupancy
  Cu  Cu1  1  0.21400000  0.16841000  0.02433000  1
  Cu  Cu2  1  0.20417000  0.17704000  0.19385000  1
  H  H1  1  0.89377000  0.06318000  0.82114000  1
  H  H2  1  0.79295000  0.09862000  0.76598000  1
  H  H3  1  0.78448000  0.04332000  0.86616000  1
  H  H4  1  0.55870000  0.25222000  0.80708000  1
  H  H5  1  0.66551000  0.21150000  0.75757000  1
  H  H6  1  0.66289000  0.27650000  0.84880000  1
  H  H7  1  0.75260000  0.13401000  0.46060000  1
  H  H8  1  0.85949000  0.09323000  0.41111000  1
  H  H9  1  0.75529000  0.06895000  0.36938000  1
  H  H10  1  0.52441000  0.28227000  0.39704000  1
  H  H11  1  0.63371000  0.30213000  0.35202000  1
  H  H12  1  0.62523000  0.24683000  0.45220000  1
  H  H13  1  0.94368000  0.16926000  0.96704000  1
  H  H14  1  0.49095000  0.16175000  0.96760000  1
  H  H15  1  0.47450000  0.17619000  0.25112000  1
  H  H16  1  0.92722000  0.18370000  0.25058000  1
  H  H17  1  0.20545000  0.01205000  0.28036000  1
  H  H18  1  0.19867000  0.92428000  0.34512000  1
  H  H19  1  0.20390000  0.80390000  0.91941000  1
  H  H20  1  0.12156000  0.75754000  0.98349000  1
  H  H21  1  0.21428000  0.54155000  0.29877000  1
  H  H22  1  0.29662000  0.58791000  0.23470000  1
  H  H23  1  0.21279000  0.33340000  0.93782000  1
  H  H24  1  0.21951000  0.42118000  0.87306000  1
  H  H25  1  0.22123000  0.92697000  0.98509000  1
  H  H26  1  0.21686000  0.55273000  0.93848000  1
  H  H27  1  0.19694000  0.41848000  0.23310000  1
  H  H28  1  0.20133000  0.79272000  0.27970000  1
  H  H29  1  0.21527000  0.68149000  0.00732000  1
  H  H30  1  0.20293000  0.66396000  0.21086000  1
  H  H31  1  0.11073000  0.25890000  0.88947000  1
  H  H32  1  0.07654000  0.28889000  0.47790000  1
  H  H33  1  0.30745000  0.08655000  0.32871000  1
  H  H34  1  0.34164000  0.05657000  0.74028000  1
  H  H35  1  0.12956000  0.24244000  0.61924000  1
  H  H36  1  0.28863000  0.10302000  0.59893000  1
  C  C1  1  0.52554000  0.16562000  0.03118000  1
  C  C2  1  0.51648000  0.17358000  0.18746000  1
  C  C3  1  0.61051000  0.17514000  0.18734000  1
  C  C4  1  0.66207000  0.17195000  0.10915000  1
  C  C5  1  0.61959000  0.16718000  0.03106000  1
  C  C6  1  0.65300000  0.17990000  0.26543000  1
  C  C7  1  0.74704000  0.18147000  0.26532000  1
  C  C8  1  0.79860000  0.17827000  0.18712000  1
  C  C9  1  0.75611000  0.17351000  0.10903000  1
  C  C10  1  0.80767000  0.17031000  0.03084000  1
  C  C11  1  0.76518000  0.16555000  0.95275000  1
  C  C12  1  0.67114000  0.16399000  0.95287000  1
  C  C13  1  0.89264000  0.17983000  0.18700000  1
  C  C14  1  0.90171000  0.17187000  0.03072000  1
  C  C15  1  0.82168000  0.08801000  0.83042000  1
  C  C16  1  0.62950000  0.22852000  0.81997000  1
  C  C17  1  0.78869000  0.11693000  0.39822000  1
  C  C18  1  0.59650000  0.25744000  0.38776000  1
  C  C19  1  0.04428000  0.17829000  0.10868000  1
  C  C20  1  0.94419000  0.17664000  0.10881000  1
  C  C21  1  0.37390000  0.16716000  0.10950000  1
  C  C22  1  0.47399000  0.16882000  0.10938000  1
  C  C23  1  0.21676000  0.89685000  0.05120000  1
  C  C24  1  0.21485000  0.81488000  0.05732000  1
  C  C25  1  0.20936000  0.77788000  0.13851000  1
  C  C26  1  0.20579000  0.82285000  0.21359000  1
  C  C27  1  0.20771000  0.90482000  0.20748000  1
  C  C28  1  0.20334000  0.53058000  0.16087000  1
  C  C29  1  0.20141000  0.44860000  0.16698000  1
  C  C30  1  0.21047000  0.44064000  0.01070000  1
  C  C31  1  0.21239000  0.52261000  0.00459000  1
  C  C32  1  0.20883000  0.56758000  0.07968000  1
  C  C33  1  0.20740000  0.69409000  0.14476000  1
  C  C34  1  0.21079000  0.65136000  0.07343000  1
  C  C35  1  0.21524000  0.02906000  0.11979000  1
  C  C36  1  0.21319000  0.94182000  0.12628000  1
  C  C37  1  0.20294000  0.31640000  0.09839000  1
  C  C38  1  0.20498000  0.40364000  0.09190000  1
  C  C39  1  0.16255000  0.21349000  0.85599000  1
  C  C40  1  0.16781000  0.20889000  0.76577000  1
  C  C41  1  0.23144000  0.15313000  0.72465000  1
  C  C42  1  0.28983000  0.10197000  0.77376000  1
  C  C43  1  0.28457000  0.10657000  0.86399000  1
  C  C44  1  0.25038000  0.13656000  0.45242000  1
  C  C45  1  0.25563000  0.13196000  0.36219000  1
  C  C46  1  0.13361000  0.23889000  0.35420000  1
  C  C47  1  0.12836000  0.24348000  0.44443000  1
  C  C48  1  0.18674000  0.19232000  0.49353000  1
  C  C49  1  0.23682000  0.14843000  0.63242000  1
  C  C50  1  0.18137000  0.19703000  0.58576000  1
  N  N1  1  0.20359000  0.95093000  0.28407000  1
  N  N2  1  0.18100000  0.78518000  0.98039000  1
  N  N3  1  0.23718000  0.56028000  0.23779000  1
  N  N4  1  0.21458000  0.39452000  0.93411000  1
  N  N5  1  0.22093000  0.16233000  0.90510000  1
  N  N6  1  0.19725000  0.18312000  0.31308000  1
  O  O1  1  0.81738000  0.16158000  0.87457000  1
  O  O2  1  0.62800000  0.15998000  0.87469000  1
  O  O3  1  0.79019000  0.18547000  0.34349000  1
  O  O4  1  0.60080000  0.18387000  0.34362000  1
  O  O5  1  0.08222000  0.17503000  0.03359000  1
  O  O6  1  0.07351000  0.18267000  0.18368000  1
  O  O7  1  0.33596000  0.17044000  0.18459000  1
  O  O8  1  0.34467000  0.16277000  0.03450000  1
  O  O9  1  0.21157000  0.06216000  0.19265000  1
  O  O10  1  0.22028000  0.05451000  0.04256000  1
  O  O11  1  0.20660000  0.28330000  0.02553000  1
  O  O12  1  0.19791000  0.29094000  0.17562000  1
  F  F1  1  0.09361000  0.24730000  0.72967000  1
  F  F2  1  0.34096000  0.05691000  0.91157000  1
  F  F3  1  0.32461000  0.09819000  0.48851000  1
  F  F4  1  0.07722000  0.28854000  0.30661000  1
