# generated using pymatgen
data_CuH23C21N2O9
_symmetry_space_group_name_H-M   'P 1'
_cell_length_a   15.99530000
_cell_length_b   14.97150000
_cell_length_c   9.13031000
_cell_angle_alpha   90.00230000
_cell_angle_beta   90.01110000
_cell_angle_gamma   83.54860000
_symmetry_Int_Tables_number   1
_chemical_formula_structural   CuH23C21N2O9
_chemical_formula_sum   'Cu2 H46 C42 N4 O18'
_cell_volume   2172.62270681
_cell_formula_units_Z   2
loop_
 _symmetry_equiv_pos_site_id
 _symmetry_equiv_pos_as_xyz
  1  'x, y, z'
loop_
 _atom_site_type_symbol
 _atom_site_label
 _atom_site_symmetry_multiplicity
 _atom_site_fract_x
 _atom_site_fract_y
 _atom_site_fract_z
 _atom_site_occupancy
  Cu  Cu1  1  0.23588000  0.18659000  0.92588000  1
  Cu  Cu2  1  0.23590000  0.18659000  0.21397000  1
  H  H1  1  0.58209000  0.00366000  0.25273000  1
  H  H2  1  0.61750000  0.01079000  0.43860000  1
  H  H3  1  0.68801000  0.95588000  0.30520000  1
  H  H4  1  0.89658000  0.02093000  0.44313000  1
  H  H5  1  0.93451000  0.01437000  0.25793000  1
  H  H6  1  0.84184000  0.96088000  0.31037000  1
  H  H7  1  0.61079000  0.07285000  0.64082000  1
  H  H8  1  0.66273000  0.17279000  0.62824000  1
  H  H9  1  0.56184000  0.17465000  0.72252000  1
  H  H10  1  0.89100000  0.07519000  0.64655000  1
  H  H11  1  0.91519000  0.17777000  0.73002000  1
  H  H12  1  0.81709000  0.17403000  0.62892000  1
  H  H13  1  0.56256000  0.46689000  0.13436000  1
  H  H14  1  0.63310000  0.42470000  0.27763000  1
  H  H15  1  0.53872000  0.37091000  0.23763000  1
  H  H16  1  0.84215000  0.47184000  0.11348000  1
  H  H17  1  0.89133000  0.37799000  0.21622000  1
  H  H18  1  0.78668000  0.43077000  0.26571000  1
  H  H19  1  0.80046000  0.24913000  0.84686000  1
  H  H20  1  0.65674000  0.24679000  0.84648000  1
  H  H21  1  0.68343000  0.03602000  0.09193000  1
  H  H22  1  0.82689000  0.03908000  0.09425000  1
  H  H23  1  0.79762000  0.27880000  0.26598000  1
  H  H24  1  0.65455000  0.27038000  0.27008000  1
  H  H25  1  0.23573000  0.43636000  0.58077000  1
  H  H26  1  0.29467000  0.52024000  0.65756000  1
  H  H27  1  0.17944000  0.53750000  0.65196000  1
  H  H28  1  0.29256000  0.83625000  0.65232000  1
  H  H29  1  0.23646000  0.93763000  0.58124000  1
  H  H30  1  0.17740000  0.85364000  0.65746000  1
  H  H31  1  0.19506000  0.73259000  0.54800000  1
  H  H32  1  0.17540000  0.84771000  0.49226000  1
  H  H33  1  0.28129000  0.78773000  0.47934000  1
  H  H34  1  0.39052000  0.58258000  0.19721000  1
  H  H35  1  0.39004000  0.67611000  0.32207000  1
  H  H36  1  0.39939000  0.56283000  0.39162000  1
  H  H37  1  0.23694000  0.74584000  0.82900000  1
  H  H38  1  0.23482000  0.62733000  0.82901000  1
  H  H39  1  0.23188000  0.45809000  0.31086000  1
  H  H40  1  0.23995000  0.91510000  0.31084000  1
  H  H41  1  0.12093000  0.31091000  0.83932000  1
  H  H42  1  0.07896000  0.35599000  0.66910000  1
  H  H43  1  0.35470000  0.06703000  0.30077000  1
  H  H44  1  0.40206000  0.02947000  0.47132000  1
  H  H45  1  0.13296000  0.29714000  0.43080000  1
  H  H46  1  0.33885000  0.07604000  0.70907000  1
  C  C1  1  0.65211000  0.18501000  0.06994000  1
  C  C2  1  0.68744000  0.18601000  0.90947000  1
  C  C3  1  0.78417000  0.18750000  0.90938000  1
  C  C4  1  0.81968000  0.18817000  0.06991000  1
  C  C5  1  0.79496000  0.10215000  0.14960000  1
  C  C6  1  0.69825000  0.10025000  0.14857000  1
  C  C7  1  0.67750000  0.27024000  0.15187000  1
  C  C8  1  0.77408000  0.27319000  0.14886000  1
  C  C9  1  0.91437000  0.18995000  0.06991000  1
  C  C10  1  0.55741000  0.18322000  0.06995000  1
  C  C11  1  0.63762000  0.01239000  0.32250000  1
  C  C12  1  0.87678000  0.02021000  0.32670000  1
  C  C13  1  0.62336000  0.13459000  0.70019000  1
  C  C14  1  0.86334000  0.13671000  0.70406000  1
  C  C15  1  0.59075000  0.40477000  0.18978000  1
  C  C16  1  0.83007000  0.41024000  0.17371000  1
  C  C17  1  0.08282000  0.19313000  0.06990000  1
  C  C18  1  0.98986000  0.19137000  0.06989000  1
  C  C19  1  0.38897000  0.18004000  0.06995000  1
  C  C20  1  0.48192000  0.18180000  0.06996000  1
  C  C21  1  0.23925000  0.87711000  0.93712000  1
  C  C22  1  0.23761000  0.78381000  0.93713000  1
  C  C23  1  0.23679000  0.73717000  0.06992000  1
  C  C24  1  0.23763000  0.78382000  0.20271000  1
  C  C25  1  0.23928000  0.87712000  0.20271000  1
  C  C26  1  0.23419000  0.58937000  0.20272000  1
  C  C27  1  0.23254000  0.49606000  0.20273000  1
  C  C28  1  0.23252000  0.49606000  0.93714000  1
  C  C29  1  0.23417000  0.58936000  0.93714000  1
  C  C30  1  0.23500000  0.63601000  0.06993000  1
  C  C31  1  0.23576000  0.48786000  0.66806000  1
  C  C32  1  0.23631000  0.88601000  0.66831000  1
  C  C33  1  0.21283000  0.78247000  0.46718000  1
  C  C34  1  0.36904000  0.60857000  0.30673000  1
  C  C35  1  0.24184000  0.02306000  0.06992000  1
  C  C36  1  0.24008000  0.92376000  0.06991000  1
  C  C37  1  0.22995000  0.35012000  0.06994000  1
  C  C38  1  0.23170000  0.44941000  0.06994000  1
  C  C39  1  0.17914000  0.24752000  0.64657000  1
  C  C40  1  0.17916000  0.24752000  0.49323000  1
  C  C41  1  0.29266000  0.12566000  0.49330000  1
  C  C42  1  0.29264000  0.12566000  0.64663000  1
  N  N1  1  0.12164000  0.31016000  0.72497000  1
  N  N2  1  0.35217000  0.06516000  0.41500000  1
  N  N3  1  0.23588000  0.18659000  0.72326000  1
  N  N4  1  0.23591000  0.18659000  0.41659000  1
  O  O1  1  0.66736000  0.09594000  0.29448000  1
  O  O2  1  0.82545000  0.10096000  0.29625000  1
  O  O3  1  0.66539000  0.10938000  0.83217000  1
  O  O4  1  0.82393000  0.11117000  0.83329000  1
  O  O5  1  0.63567000  0.34897000  0.08530000  1
  O  O6  1  0.79396000  0.35230000  0.07623000  1
  O  O7  1  0.11400000  0.19372000  0.94238000  1
  O  O8  1  0.11402000  0.19372000  0.19744000  1
  O  O9  1  0.35782000  0.17919000  0.19747000  1
  O  O10  1  0.35774000  0.17972000  0.94241000  1
  O  O11  1  0.23242000  0.44464000  0.80705000  1
  O  O12  1  0.23954000  0.92898000  0.80752000  1
  O  O13  1  0.19332000  0.75281000  0.32315000  1
  O  O14  1  0.27948000  0.61482000  0.32490000  1
  O  O15  1  0.24244000  0.05638000  0.19745000  1
  O  O16  1  0.24242000  0.05638000  0.94239000  1
  O  O17  1  0.22935000  0.31680000  0.94240000  1
  O  O18  1  0.22937000  0.31680000  0.19747000  1
