# generated using pymatgen
data_CuH5C21N3O4F7
_symmetry_space_group_name_H-M   'P 1'
_cell_length_a   15.94450000
_cell_length_b   17.01930000
_cell_length_c   17.66630000
_cell_angle_alpha   86.12410000
_cell_angle_beta   90.00780000
_cell_angle_gamma   83.44150000
_symmetry_Int_Tables_number   1
_chemical_formula_structural   CuH5C21N3O4F7
_chemical_formula_sum   'Cu2 H10 C42 N6 O8 F14'
_cell_volume   4751.58638620
_cell_formula_units_Z   2
loop_
 _symmetry_equiv_pos_site_id
 _symmetry_equiv_pos_as_xyz
  1  'x, y, z'
loop_
 _atom_site_type_symbol
 _atom_site_label
 _atom_site_symmetry_multiplicity
 _atom_site_fract_x
 _atom_site_fract_y
 _atom_site_fract_z
 _atom_site_occupancy
  Cu  Cu1  1  0.14631000  0.18292000  0.08408000  1
  Cu  Cu2  1  0.14632000  0.18293000  0.23297000  1
  H  H1  1  0.15092000  0.94348000  0.04961000  1
  H  H2  1  0.14432000  0.57162000  0.00868000  1
  H  H3  1  0.14170000  0.42237000  0.26744000  1
  H  H4  1  0.14831000  0.79423000  0.30837000  1
  H  H5  1  0.14656000  0.69687000  0.06914000  1
  H  H6  1  0.14608000  0.66897000  0.24791000  1
  H  H7  1  0.24982000  0.08544000  0.97836000  1
  H  H8  1  0.04280000  0.28041000  0.82187000  1
  H  H9  1  0.24983000  0.08545000  0.35141000  1
  H  H10  1  0.04280000  0.28041000  0.48245000  1
  C  C1  1  0.67419000  0.18339000  0.08680000  1
  C  C2  1  0.62753000  0.11746000  0.12693000  1
  C  C3  1  0.72877000  0.18429000  0.15843000  1
  C  C4  1  0.60928000  0.24743000  0.11847000  1
  C  C5  1  0.56386000  0.18156000  0.15861000  1
  C  C6  1  0.68335000  0.11833000  0.19856000  1
  C  C7  1  0.66510000  0.24836000  0.19009000  1
  C  C8  1  0.61847000  0.18242000  0.23027000  1
  C  C9  1  0.82377000  0.18587000  0.15832000  1
  C  C10  1  0.46886000  0.17998000  0.15873000  1
  C  C11  1  0.99274000  0.18869000  0.15814000  1
  C  C12  1  0.89949000  0.18713000  0.15823000  1
  C  C13  1  0.29989000  0.17717000  0.15891000  1
  C  C14  1  0.39313000  0.17872000  0.15881000  1
  C  C15  1  0.15033000  0.90999000  0.10768000  1
  C  C16  1  0.14888000  0.82771000  0.11305000  1
  C  C17  1  0.14816000  0.78657000  0.18436000  1
  C  C18  1  0.14889000  0.82773000  0.25031000  1
  C  C19  1  0.15035000  0.91000000  0.24494000  1
  C  C20  1  0.14376000  0.53814000  0.20400000  1
  C  C21  1  0.14229000  0.45586000  0.20936000  1
  C  C22  1  0.14228000  0.45585000  0.07210000  1
  C  C23  1  0.14373000  0.53813000  0.06674000  1
  C  C24  1  0.14448000  0.57927000  0.13269000  1
  C  C25  1  0.14667000  0.70247000  0.18985000  1
  C  C26  1  0.14597000  0.66338000  0.12720000  1
  C  C27  1  0.15262000  0.03870000  0.16792000  1
  C  C28  1  0.15107000  0.95114000  0.17362000  1
  C  C29  1  0.14001000  0.32715000  0.14913000  1
  C  C30  1  0.14156000  0.41472000  0.14342000  1
  C  C31  1  0.20336000  0.12920000  0.94325000  1
  C  C32  1  0.20336000  0.12919000  0.86400000  1
  C  C33  1  0.14631000  0.18293000  0.82087000  1
  C  C34  1  0.08925000  0.23665000  0.85699000  1
  C  C35  1  0.08924000  0.23665000  0.93624000  1
  C  C36  1  0.14632000  0.18294000  0.58210000  1
  C  C37  1  0.14631000  0.18293000  0.73494000  1
  C  C38  1  0.20338000  0.12920000  0.46006000  1
  C  C39  1  0.20337000  0.12920000  0.38081000  1
  C  C40  1  0.08926000  0.23666000  0.37380000  1
  C  C41  1  0.08926000  0.23666000  0.45305000  1
  C  C42  1  0.14632000  0.18293000  0.49618000  1
  N  N1  1  0.13571000  0.25273000  0.69190000  1
  N  N2  1  0.13572000  0.25273000  0.61662000  1
  N  N3  1  0.15692000  0.11314000  0.62571000  1
  N  N4  1  0.15692000  0.11314000  0.70100000  1
  N  N5  1  0.14631000  0.18292000  0.97936000  1
  N  N6  1  0.14632000  0.18293000  0.33769000  1
  O  O1  1  0.02402000  0.18921000  0.09220000  1
  O  O2  1  0.02403000  0.18921000  0.22402000  1
  O  O3  1  0.26860000  0.17665000  0.22485000  1
  O  O4  1  0.26860000  0.17664000  0.09303000  1
  O  O5  1  0.15315000  0.06809000  0.23192000  1
  O  O6  1  0.15314000  0.06809000  0.10009000  1
  O  O7  1  0.13947000  0.29776000  0.08513000  1
  O  O8  1  0.13949000  0.29776000  0.21695000  1
  F  F1  1  0.60711000  0.05036000  0.09454000  1
  F  F2  1  0.57023000  0.31359000  0.07744000  1
  F  F3  1  0.58875000  0.18195000  0.30378000  1
  F  F4  1  0.70388000  0.18387000  0.01328000  1
  F  F5  1  0.68545000  0.31552000  0.22246000  1
  F  F6  1  0.72248000  0.05217000  0.23956000  1
  F  F7  1  0.12706000  0.80014000  0.04639000  1
  F  F8  1  0.15087000  0.94989000  0.30879000  1
  F  F9  1  0.16562000  0.56570000  0.27066000  1
  F  F10  1  0.14175000  0.41596000  0.00825000  1
  F  F11  1  0.25985000  0.07735000  0.83001000  1
  F  F12  1  0.03381000  0.28863000  0.97123000  1
  F  F13  1  0.25985000  0.07738000  0.50085000  1
  F  F14  1  0.03386000  0.28864000  0.33205000  1
