# generated using pymatgen
data_CuH14C21NO7F4
_symmetry_space_group_name_H-M   'P 1'
_cell_length_a   15.99530000
_cell_length_b   12.81140000
_cell_length_c   14.42150000
_cell_angle_alpha   84.57430000
_cell_angle_beta   90.01170000
_cell_angle_gamma   83.76410000
_symmetry_Int_Tables_number   1
_chemical_formula_structural   CuH14C21NO7F4
_chemical_formula_sum   'Cu2 H28 C42 N2 O14 F8'
_cell_volume   2924.47298188
_cell_formula_units_Z   2
loop_
 _symmetry_equiv_pos_site_id
 _symmetry_equiv_pos_as_xyz
  1  'x, y, z'
loop_
 _atom_site_type_symbol
 _atom_site_label
 _atom_site_symmetry_multiplicity
 _atom_site_fract_x
 _atom_site_fract_y
 _atom_site_fract_z
 _atom_site_occupancy
  Cu  Cu1  1  0.15661000  0.10431000  0.12405000  1
  Cu  Cu2  1  0.15663000  0.10433000  0.30644000  1
  H  H1  1  0.72137000  0.17770000  0.06784000  1
  H  H2  1  0.57765000  0.17494000  0.06784000  1
  H  H3  1  0.60370000  0.92764000  0.24404000  1
  H  H4  1  0.74716000  0.93123000  0.24521000  1
  H  H5  1  0.71863000  0.21255000  0.33026000  1
  H  H6  1  0.57553000  0.20267000  0.33369000  1
  H  H7  1  0.15981000  0.78573000  0.08950000  1
  H  H8  1  0.15341000  0.42290000  0.03593000  1
  H  H9  1  0.15343000  0.42290000  0.34098000  1
  H  H10  1  0.15983000  0.78575000  0.39456000  1
  H  H11  1  0.39907000  0.05457000  0.72048000  1
  H  H12  1  0.35486000  0.17505000  0.76955000  1
  H  H13  1  0.42571000  0.18072000  0.67375000  1
  H  H14  1  0.20591000  0.44388000  0.70869000  1
  H  H15  1  0.20013000  0.34854000  0.62635000  1
  H  H16  1  0.29305000  0.34588000  0.69941000  1
  H  H17  1  0.94889000  0.37206000  0.66105000  1
  H  H18  1  0.05459000  0.40314000  0.64828000  1
  H  H19  1  0.02275000  0.32785000  0.75313000  1
  H  H20  1  0.89810000  0.10445000  0.84940000  1
  H  H21  1  0.92085000  0.18002000  0.74390000  1
  H  H22  1  0.98040000  0.18783000  0.85122000  1
  H  H23  1  0.02998000  0.83351000  0.62357000  1
  H  H24  1  0.08019000  0.91560000  0.53867000  1
  H  H25  1  0.00669000  0.97352000  0.62087000  1
  H  H26  1  0.36884000  0.89174000  0.87492000  1
  H  H27  1  0.26716000  0.92366000  0.92171000  1
  H  H28  1  0.33061000  0.02758000  0.87562000  1
  C  C1  1  0.57283000  0.10247000  0.21541000  1
  C  C2  1  0.60816000  0.10363000  0.11372000  1
  C  C3  1  0.70489000  0.10538000  0.11351000  1
  C  C4  1  0.74040000  0.10618000  0.21508000  1
  C  C5  1  0.71542000  0.00524000  0.27402000  1
  C  C6  1  0.61871000  0.00302000  0.27355000  1
  C  C7  1  0.59847000  0.20249000  0.25886000  1
  C  C8  1  0.69507000  0.20595000  0.25667000  1
  C  C9  1  0.83511000  0.10827000  0.21490000  1
  C  C10  1  0.47813000  0.10037000  0.21559000  1
  C  C11  1  0.00356000  0.11200000  0.21458000  1
  C  C12  1  0.91060000  0.10994000  0.21475000  1
  C  C13  1  0.30967000  0.09664000  0.21590000  1
  C  C14  1  0.40263000  0.09871000  0.21574000  1
  C  C15  1  0.15613000  0.57695000  0.09144000  1
  C  C16  1  0.15420000  0.46747000  0.10064000  1
  C  C17  1  0.15420000  0.46748000  0.26878000  1
  C  C18  1  0.15614000  0.57696000  0.25958000  1
  C  C19  1  0.15710000  0.63169000  0.17091000  1
  C  C20  1  0.15903000  0.74117000  0.16170000  1
  C  C21  1  0.15904000  0.74117000  0.32985000  1
  C  C22  1  0.15711000  0.63170000  0.33905000  1
  C  C23  1  0.16206000  0.91243000  0.23138000  1
  C  C24  1  0.16000000  0.79591000  0.24118000  1
  C  C25  1  0.15117000  0.29622000  0.19911000  1
  C  C26  1  0.15323000  0.41273000  0.18931000  1
  C  C27  1  0.21570000  0.02963000  0.75243000  1
  C  C28  1  0.13992000  0.00951000  0.69228000  1
  C  C29  1  0.15661000  0.10431000  0.80661000  1
  C  C30  1  0.23240000  0.12440000  0.68267000  1
  C  C31  1  0.15662000  0.10433000  0.62388000  1
  C  C32  1  0.08079000  0.08415000  0.74782000  1
  C  C33  1  0.17332000  0.19908000  0.73821000  1
  C  C34  1  0.09749000  0.17900000  0.67808000  1
  C  C35  1  0.15660000  0.10430000  0.91187000  1
  C  C36  1  0.15662000  0.10434000  0.51863000  1
  C  C37  1  0.37387000  0.13854000  0.70467000  1
  C  C38  1  0.22349000  0.36003000  0.69709000  1
  C  C39  1  0.01553000  0.34131000  0.67614000  1
  C  C40  1  0.94983000  0.13547000  0.80770000  1
  C  C41  1  0.05781000  0.90922000  0.61152000  1
  C  C42  1  0.31125000  0.94847000  0.86667000  1
  N  N1  1  0.15660000  0.10430000  0.99577000  1
  N  N2  1  0.15663000  0.10435000  0.43472000  1
  O  O1  1  0.03475000  0.11269000  0.13379000  1
  O  O2  1  0.03476000  0.11270000  0.29527000  1
  O  O3  1  0.27852000  0.09565000  0.29672000  1
  O  O4  1  0.27844000  0.09625000  0.13519000  1
  O  O5  1  0.16276000  0.95154000  0.30883000  1
  O  O6  1  0.16275000  0.95152000  0.14735000  1
  O  O7  1  0.15048000  0.25711000  0.12165000  1
  O  O8  1  0.15048000  0.25713000  0.28313000  1
  O  O9  1  0.30801000  0.14758000  0.63871000  1
  O  O10  1  0.18924000  0.29635000  0.76949000  1
  O  O11  1  0.03444000  0.24964000  0.62990000  1
  O  O12  1  0.00553000  0.04962000  0.78456000  1
  O  O13  1  0.12634000  0.90642000  0.67349000  1
  O  O14  1  0.27650000  0.94282000  0.77803000  1
  F  F1  1  0.58677000  0.01694000  0.07210000  1
  F  F2  1  0.58913000  0.99640000  0.36409000  1
  F  F3  1  0.71482000  0.29724000  0.20553000  1
  F  F4  1  0.74361000  0.01924000  0.07248000  1
  F  F5  1  0.55820000  0.29337000  0.21167000  1
  F  F6  1  0.74557000  0.00201000  0.36467000  1
  F  F7  1  0.15702000  0.62831000  0.00472000  1
  F  F8  1  0.15622000  0.58034000  0.42577000  1
