# generated using pymatgen
data_CuH16C19N4O5F2
_symmetry_space_group_name_H-M   'P 1'
_cell_length_a   15.99530000
_cell_length_b   14.97150000
_cell_length_c   11.29570000
_cell_angle_alpha   94.11750000
_cell_angle_beta   85.92250000
_cell_angle_gamma   83.54860000
_symmetry_Int_Tables_number   1
_chemical_formula_structural   CuH16C19N4O5F2
_chemical_formula_sum   'Cu2 H32 C38 N8 O10 F4'
_cell_volume   2672.38717542
_cell_formula_units_Z   2
loop_
 _symmetry_equiv_pos_site_id
 _symmetry_equiv_pos_as_xyz
  1  'x, y, z'
loop_
 _atom_site_type_symbol
 _atom_site_label
 _atom_site_symmetry_multiplicity
 _atom_site_fract_x
 _atom_site_fract_y
 _atom_site_fract_z
 _atom_site_occupancy
  Cu  Cu1  1  0.22840000  0.13107000  0.00923000  1
  Cu  Cu2  1  0.21512000  0.14534000  0.24344000  1
  H  H1  1  0.65777000  0.98607000  0.33907000  1
  H  H2  1  0.64589000  0.09947000  0.37024000  1
  H  H3  1  0.80027000  0.99332000  0.34408000  1
  H  H4  1  0.77994000  0.10696000  0.36973000  1
  H  H5  1  0.61203000  0.36124000  0.20891000  1
  H  H6  1  0.64049000  0.32031000  0.06599000  1
  H  H7  1  0.75355000  0.36660000  0.19023000  1
  H  H8  1  0.84661000  0.31265000  0.14785000  1
  H  H9  1  0.67423000  0.05990000  0.83322000  1
  H  H10  1  0.68730000  0.99171000  0.94417000  1
  H  H11  1  0.88774000  0.07348000  0.89914000  1
  H  H12  1  0.83008000  0.99636000  0.95496000  1
  H  H13  1  0.79662000  0.18970000  0.94498000  1
  H  H14  1  0.65292000  0.18733000  0.94467000  1
  H  H15  1  0.66829000  0.98873000  0.14422000  1
  H  H16  1  0.81163000  0.99190000  0.14611000  1
  H  H17  1  0.77444000  0.24014000  0.28573000  1
  H  H18  1  0.63119000  0.23192000  0.28906000  1
  H  H19  1  0.23392000  0.68552000  0.93046000  1
  H  H20  1  0.23181000  0.56701000  0.93047000  1
  H  H21  1  0.20663000  0.42165000  0.32221000  1
  H  H22  1  0.21470000  0.87866000  0.32219000  1
  H  H23  1  0.06002000  0.39412000  0.54597000  1
  H  H24  1  0.98129000  0.39640000  0.66810000  1
  H  H25  1  0.98304000  0.31238000  0.54593000  1
  H  H26  1  0.46223000  0.88002000  0.58456000  1
  H  H27  1  0.38350000  0.88230000  0.70670000  1
  H  H28  1  0.46048000  0.96404000  0.70673000  1
  H  H29  1  0.13545000  0.23087000  0.83288000  1
  H  H30  1  0.10218000  0.26665000  0.41974000  1
  H  H31  1  0.30808000  0.04555000  0.41977000  1
  H  H32  1  0.34134000  0.00978000  0.83294000  1
  C  C1  1  0.63798000  0.13663000  0.12634000  1
  C  C2  1  0.68071000  0.12968000  0.99588000  1
  C  C3  1  0.77744000  0.13116000  0.99581000  1
  C  C4  1  0.80554000  0.13979000  0.12632000  1
  C  C5  1  0.77715000  0.05771000  0.19111000  1
  C  C6  1  0.68049000  0.05577000  0.19027000  1
  C  C7  1  0.65958000  0.22592000  0.19295000  1
  C  C8  1  0.75631000  0.22872000  0.19051000  1
  C  C9  1  0.90024000  0.14157000  0.12632000  1
  C  C10  1  0.54328000  0.13484000  0.12635000  1
  C  C11  1  0.06869000  0.14475000  0.12631000  1
  C  C12  1  0.97573000  0.14299000  0.12630000  1
  C  C13  1  0.37484000  0.13166000  0.12635000  1
  C  C14  1  0.46779000  0.13342000  0.12636000  1
  C  C15  1  0.23125000  0.82215000  0.01837000  1
  C  C16  1  0.22960000  0.72885000  0.01837000  1
  C  C17  1  0.22266000  0.68879000  0.12633000  1
  C  C18  1  0.21737000  0.74202000  0.23429000  1
  C  C19  1  0.21902000  0.83532000  0.23428000  1
  C  C20  1  0.21393000  0.54757000  0.23429000  1
  C  C21  1  0.21228000  0.45427000  0.23430000  1
  C  C22  1  0.22451000  0.44110000  0.01838000  1
  C  C23  1  0.22616000  0.53439000  0.01837000  1
  C  C24  1  0.22087000  0.58763000  0.12634000  1
  C  C25  1  0.22771000  0.97468000  0.12632000  1
  C  C26  1  0.22595000  0.87538000  0.12632000  1
  C  C27  1  0.21582000  0.30174000  0.12634000  1
  C  C28  1  0.21757000  0.40103000  0.12635000  1
  C  C29  1  0.13842000  0.22771000  0.59515000  1
  C  C30  1  0.14550000  0.22011000  0.47049000  1
  C  C31  1  0.25899000  0.09825000  0.47052000  1
  C  C32  1  0.25191000  0.10584000  0.59518000  1
  C  C33  1  0.19162000  0.17058000  0.65749000  1
  C  C34  1  0.18454000  0.17817000  0.78215000  1
  C  C35  1  0.29803000  0.05631000  0.78217000  1
  C  C36  1  0.30511000  0.04871000  0.65752000  1
  C  C37  1  0.02328000  0.35132000  0.60125000  1
  C  C38  1  0.42024000  0.92510000  0.65142000  1
  N  N1  1  0.63650000  0.04784000  0.30746000  1
  N  N2  1  0.80949000  0.05483000  0.30980000  1
  N  N3  1  0.61291000  0.30526000  0.14773000  1
  N  N4  1  0.78256000  0.30955000  0.13805000  1
  N  N5  1  0.65642000  0.05284000  0.92262000  1
  N  N6  1  0.82622000  0.05793000  0.91703000  1
  N  N7  1  0.23774000  0.12103000  0.84450000  1
  N  N8  1  0.20578000  0.15538000  0.40817000  1
  O  O1  1  0.10575000  0.13902000  0.02264000  1
  O  O2  1  0.09400000  0.15166000  0.23000000  1
  O  O3  1  0.33780000  0.13713000  0.23003000  1
  O  O4  1  0.34949000  0.12502000  0.02267000  1
  O  O5  1  0.22242000  0.01431000  0.23001000  1
  O  O6  1  0.23417000  0.00168000  0.02264000  1
  O  O7  1  0.22110000  0.26210000  0.02266000  1
  O  O8  1  0.20935000  0.27474000  0.23002000  1
  O  O9  1  0.07846000  0.29207000  0.66226000  1
  O  O10  1  0.36506000  0.98435000  0.59040000  1
  F  F1  1  0.23842000  0.86111000  0.91389000  1
  F  F2  1  0.24598000  0.71083000  0.33532000  1
  F  F3  1  0.17386000  0.59112000  0.33531000  1
  F  F4  1  0.22919000  0.38942000  0.91395000  1
