# generated using pymatgen
data_CuH6C21N3O4F5
_symmetry_space_group_name_H-M   'P 1'
_cell_length_a   14.85350000
_cell_length_b   19.18890000
_cell_length_c   11.29570000
_cell_angle_alpha   94.09210000
_cell_angle_beta   85.91050000
_cell_angle_gamma   83.38380000
_symmetry_Int_Tables_number   1
_chemical_formula_structural   CuH6C21N3O4F5
_chemical_formula_sum   'Cu2 H12 C42 N6 O8 F10'
_cell_volume   3179.63771369
_cell_formula_units_Z   2
loop_
 _symmetry_equiv_pos_site_id
 _symmetry_equiv_pos_as_xyz
  1  'x, y, z'
loop_
 _atom_site_type_symbol
 _atom_site_label
 _atom_site_symmetry_multiplicity
 _atom_site_fract_x
 _atom_site_fract_y
 _atom_site_fract_z
 _atom_site_occupancy
  Cu  Cu1  1  0.19465000  0.19442000  0.98288000  1
  Cu  Cu2  1  0.18030000  0.20555000  0.21709000  1
  H  H1  1  0.92582000  0.19402000  0.90411000  1
  H  H2  1  0.47314000  0.18734000  0.90411000  1
  H  H3  1  0.44913000  0.20595000  0.29583000  1
  H  H4  1  0.90180000  0.21263000  0.29585000  1
  H  H5  1  0.18096000  0.99736000  0.29587000  1
  H  H6  1  0.20245000  0.84665000  0.90413000  1
  H  H7  1  0.16998000  0.42120000  0.29582000  1
  H  H8  1  0.19651000  0.53473000  0.90410000  1
  H  H9  1  0.09415000  0.27223000  0.80653000  1
  H  H10  1  0.05818000  0.30012000  0.39339000  1
  H  H11  1  0.28080000  0.12775000  0.39341000  1
  H  H12  1  0.31677000  0.09986000  0.80659000  1
  C  C1  1  0.50603000  0.19208000  0.99202000  1
  C  C2  1  0.49280000  0.20234000  0.20793000  1
  C  C3  1  0.58682000  0.20373000  0.20794000  1
  C  C4  1  0.64046000  0.19929000  0.09998000  1
  C  C5  1  0.60007000  0.19347000  0.99202000  1
  C  C6  1  0.62722000  0.20955000  0.31590000  1
  C  C7  1  0.72125000  0.21094000  0.31591000  1
  C  C8  1  0.77489000  0.20651000  0.20795000  1
  C  C9  1  0.73449000  0.20068000  0.09998000  1
  C  C10  1  0.78813000  0.19625000  0.99202000  1
  C  C11  1  0.74773000  0.19043000  0.88406000  1
  C  C12  1  0.65370000  0.18904000  0.88406000  1
  C  C13  1  0.86892000  0.20790000  0.20794000  1
  C  C14  1  0.88216000  0.19764000  0.99203000  1
  C  C15  1  0.02263000  0.20493000  0.09998000  1
  C  C16  1  0.92255000  0.20346000  0.09999000  1
  C  C17  1  0.35232000  0.19504000  0.09998000  1
  C  C18  1  0.45240000  0.19651000  0.09997000  1
  C  C19  1  0.18579000  0.96355000  0.20795000  1
  C  C20  1  0.18439000  0.89072000  0.20795000  1
  C  C21  1  0.19032000  0.84918000  0.09999000  1
  C  C22  1  0.19762000  0.88048000  0.99203000  1
  C  C23  1  0.19900000  0.95330000  0.99204000  1
  C  C24  1  0.18615000  0.62976000  0.09997000  1
  C  C25  1  0.18882000  0.77021000  0.09997000  1
  C  C26  1  0.17733000  0.51950000  0.20792000  1
  C  C27  1  0.17593000  0.44667000  0.20791000  1
  C  C28  1  0.18917000  0.43643000  0.99199000  1
  C  C29  1  0.19056000  0.50926000  0.99200000  1
  C  C30  1  0.18464000  0.55079000  0.09997000  1
  C  C31  1  0.19456000  0.07234000  0.09999000  1
  C  C32  1  0.19309000  0.99484000  0.10000000  1
  C  C33  1  0.18039000  0.32763000  0.09997000  1
  C  C34  1  0.18186000  0.40514000  0.09996000  1
  C  C35  1  0.09736000  0.26976000  0.56880000  1
  C  C36  1  0.10502000  0.26384000  0.44414000  1
  C  C37  1  0.22772000  0.16884000  0.44416000  1
  C  C38  1  0.22007000  0.17476000  0.56882000  1
  C  C39  1  0.15488000  0.22522000  0.63113000  1
  C  C40  1  0.14723000  0.23114000  0.75580000  1
  C  C41  1  0.26994000  0.13614000  0.75582000  1
  C  C42  1  0.27759000  0.13022000  0.63116000  1
  N  N1  1  0.24438000  0.72587000  0.01963000  1
  N  N2  1  0.24306000  0.65669000  0.01963000  1
  N  N3  1  0.13061000  0.67462000  0.18032000  1
  N  N4  1  0.13193000  0.74381000  0.18033000  1
  N  N5  1  0.20475000  0.18660000  0.81814000  1
  N  N6  1  0.17020000  0.21338000  0.38182000  1
  O  O1  1  0.06256000  0.20050000  0.99630000  1
  O  O2  1  0.04986000  0.21035000  0.20367000  1
  O  O3  1  0.31238000  0.19948000  0.20366000  1
  O  O4  1  0.32510000  0.18961000  0.99629000  1
  O  O5  1  0.18870000  0.10328000  0.20367000  1
  O  O6  1  0.20141000  0.09343000  0.99631000  1
  O  O7  1  0.18625000  0.29669000  0.99629000  1
  O  O8  1  0.17353000  0.30655000  0.20365000  1
  F  F1  1  0.57642000  0.21392000  0.42161000  1
  F  F2  1  0.75911000  0.21661000  0.42160000  1
  F  F3  1  0.79853000  0.18605000  0.77835000  1
  F  F4  1  0.61584000  0.18336000  0.77836000  1
  F  F5  1  0.17844000  0.86126000  0.31347000  1
  F  F6  1  0.20590000  0.98364000  0.88738000  1
  F  F7  1  0.17269000  0.55876000  0.31341000  1
  F  F8  1  0.19474000  0.39623000  0.88736000  1
  F  F9  1  0.03363000  0.31909000  0.62727000  1
  F  F10  1  0.34133000  0.08088000  0.57269000  1
