# generated using pymatgen
data_CuH18C22N6(O2F)2
_symmetry_space_group_name_H-M   'P 1'
_cell_length_a   15.99530000
_cell_length_b   14.97150000
_cell_length_c   14.18490000
_cell_angle_alpha   76.79450000
_cell_angle_beta   103.13400000
_cell_angle_gamma   83.54860000
_symmetry_Int_Tables_number   1
_chemical_formula_structural   CuH18C22N6(O2F)2
_chemical_formula_sum   'Cu2 H36 C44 N12 O8 F4'
_cell_volume   3171.86622033
_cell_formula_units_Z   2
loop_
 _symmetry_equiv_pos_site_id
 _symmetry_equiv_pos_as_xyz
  1  'x, y, z'
loop_
 _atom_site_type_symbol
 _atom_site_label
 _atom_site_symmetry_multiplicity
 _atom_site_fract_x
 _atom_site_fract_y
 _atom_site_fract_z
 _atom_site_occupancy
  Cu  Cu1  1  0.17383000  0.18422000  0.03302000  1
  Cu  Cu2  1  0.21863000  0.13613000  0.23035000  1
  H  H1  1  0.68500000  0.95139000  0.31092000  1
  H  H2  1  0.68085000  0.05648000  0.33718000  1
  H  H3  1  0.82874000  0.95730000  0.31514000  1
  H  H4  1  0.81477000  0.06411000  0.33675000  1
  H  H5  1  0.60698000  0.36122000  0.20125000  1
  H  H6  1  0.60000000  0.35835000  0.08084000  1
  H  H7  1  0.74386000  0.37155000  0.18551000  1
  H  H8  1  0.82641000  0.32889000  0.14981000  1
  H  H9  1  0.57600000  0.15992000  0.88473000  1
  H  H10  1  0.61659000  0.06219000  0.97820000  1
  H  H11  1  0.80586000  0.15595000  0.94027000  1
  H  H12  1  0.76205000  0.06397000  0.98730000  1
  H  H13  1  0.72611000  0.25996000  0.97889000  1
  H  H14  1  0.58234000  0.25768000  0.97863000  1
  H  H15  1  0.64719000  0.00593000  0.14675000  1
  H  H16  1  0.79101000  0.00860000  0.14835000  1
  H  H17  1  0.78844000  0.21966000  0.26598000  1
  H  H18  1  0.64601000  0.21056000  0.26878000  1
  H  H19  1  0.14869000  0.39685000  0.94741000  1
  H  H20  1  0.13347000  0.51676000  0.87930000  1
  H  H21  1  0.16008000  0.01328000  0.94737000  1
  H  H22  1  0.14432000  0.92663000  0.87932000  1
  H  H23  1  0.13323000  0.61066000  0.29597000  1
  H  H24  1  0.21020000  0.51267000  0.37804000  1
  H  H25  1  0.29415000  0.68765000  0.37806000  1
  H  H26  1  0.33385000  0.62967000  0.29599000  1
  H  H27  1  0.15982000  0.75965000  0.96665000  1
  H  H28  1  0.15770000  0.64114000  0.96666000  1
  H  H29  1  0.22967000  0.39146000  0.29671000  1
  H  H30  1  0.23774000  0.84847000  0.29670000  1
  H  H31  1  0.29621000  0.05280000  0.82225000  1
  H  H32  1  0.39856000  0.94293000  0.56946000  1
  H  H33  1  0.35531000  0.98938000  0.37892000  1
  H  H34  1  0.09624000  0.26755000  0.44112000  1
  H  H35  1  0.99390000  0.37743000  0.69390000  1
  H  H36  1  0.03714000  0.33099000  0.88445000  1
  C  C1  1  0.61245000  0.15860000  0.13169000  1
  C  C2  1  0.62283000  0.18639000  0.02178000  1
  C  C3  1  0.71954000  0.18789000  0.02171000  1
  C  C4  1  0.78001000  0.16176000  0.13167000  1
  C  C5  1  0.76768000  0.06243000  0.18626000  1
  C  C6  1  0.67081000  0.06071000  0.18555000  1
  C  C7  1  0.65057000  0.23015000  0.18781000  1
  C  C8  1  0.74669000  0.23360000  0.18575000  1
  C  C9  1  0.87471000  0.16354000  0.13167000  1
  C  C10  1  0.51775000  0.15681000  0.13170000  1
  C  C11  1  0.04315000  0.16672000  0.13167000  1
  C  C12  1  0.95019000  0.16497000  0.13166000  1
  C  C13  1  0.34931000  0.15363000  0.13170000  1
  C  C14  1  0.44227000  0.15539000  0.13171000  1
  C  C15  1  0.17894000  0.87287000  0.04072000  1
  C  C16  1  0.17730000  0.77957000  0.04072000  1
  C  C17  1  0.19713000  0.71076000  0.13168000  1
  C  C18  1  0.21861000  0.73524000  0.22264000  1
  C  C19  1  0.22026000  0.82854000  0.22263000  1
  C  C20  1  0.21517000  0.54079000  0.22264000  1
  C  C21  1  0.21352000  0.44748000  0.22265000  1
  C  C22  1  0.17221000  0.49181000  0.04073000  1
  C  C23  1  0.17386000  0.58511000  0.04072000  1
  C  C24  1  0.19534000  0.60959000  0.13168000  1
  C  C25  1  0.20217000  0.99665000  0.13167000  1
  C  C26  1  0.20042000  0.89735000  0.13167000  1
  C  C27  1  0.19028000  0.32371000  0.13169000  1
  C  C28  1  0.19204000  0.42300000  0.13169000  1
  C  C29  1  0.34264000  0.00297000  0.52670000  1
  C  C30  1  0.31880000  0.02858000  0.42166000  1
  C  C31  1  0.20531000  0.15044000  0.42163000  1
  C  C32  1  0.22914000  0.12484000  0.52667000  1
  C  C33  1  0.29781000  0.05111000  0.57920000  1
  C  C34  1  0.18431000  0.17298000  0.57917000  1
  C  C35  1  0.20815000  0.14738000  0.68420000  1
  C  C36  1  0.27681000  0.07364000  0.73673000  1
  C  C37  1  0.32165000  0.02551000  0.68422000  1
  C  C38  1  0.11564000  0.24671000  0.52664000  1
  C  C39  1  0.07081000  0.29484000  0.57914000  1
  C  C40  1  0.09465000  0.26925000  0.68417000  1
  C  C41  1  0.16331000  0.19552000  0.73670000  1
  C  C42  1  0.04981000  0.31739000  0.73668000  1
  C  C43  1  0.07365000  0.29179000  0.84170000  1
  C  C44  1  0.18715000  0.16992000  0.84173000  1
  N  N1  1  0.65589000  0.02157000  0.28429000  1
  N  N2  1  0.82946000  0.02794000  0.28626000  1
  N  N3  1  0.59268000  0.32153000  0.14971000  1
  N  N4  1  0.75994000  0.32840000  0.14155000  1
  N  N5  1  0.58037000  0.12906000  0.96005000  1
  N  N6  1  0.74878000  0.13564000  0.95534000  1
  N  N7  1  0.14962000  0.46640000  0.94802000  1
  N  N8  1  0.15944000  0.94348000  0.94804000  1
  N  N9  1  0.18669000  0.55888000  0.30670000  1
  N  N10  1  0.28526000  0.67616000  0.30671000  1
  N  N11  1  0.14232000  0.21805000  0.89423000  1
  N  N12  1  0.25014000  0.10230000  0.36914000  1
  O  O1  1  0.05451000  0.18861000  0.04432000  1
  O  O2  1  0.09418000  0.14602000  0.21903000  1
  O  O3  1  0.33798000  0.13148000  0.21905000  1
  O  O4  1  0.29825000  0.17459000  0.04434000  1
  O  O5  1  0.22260000  0.00867000  0.21903000  1
  O  O6  1  0.18293000  0.05126000  0.04432000  1
  O  O7  1  0.16985000  0.31168000  0.04433000  1
  O  O8  1  0.20954000  0.26909000  0.21904000  1
  F  F1  1  0.38577000  0.95163000  0.73646000  1
  F  F2  1  0.00202000  0.36368000  0.52691000  1
  F  F3  1  0.16108000  0.23376000  0.36079000  1
  F  F4  1  0.26493000  0.12222000  0.90259000  1
