# generated using pymatgen
data_CuH15C17NO7F3
_symmetry_space_group_name_H-M   'P 1'
_cell_length_a   15.99530000
_cell_length_b   9.06520000
_cell_length_c   14.47230000
_cell_angle_alpha   90.00520000
_cell_angle_beta   90.01020000
_cell_angle_gamma   84.24520000
_symmetry_Int_Tables_number   1
_chemical_formula_structural   CuH15C17NO7F3
_chemical_formula_sum   'Cu2 H30 C34 N2 O14 F6'
_cell_volume   2087.91590616
_cell_formula_units_Z   2
loop_
 _symmetry_equiv_pos_site_id
 _symmetry_equiv_pos_as_xyz
  1  'x, y, z'
loop_
 _atom_site_type_symbol
 _atom_site_label
 _atom_site_symmetry_multiplicity
 _atom_site_fract_x
 _atom_site_fract_y
 _atom_site_fract_z
 _atom_site_occupancy
  Cu  Cu1  1  0.17034000  0.04565000  0.18146000  1
  Cu  Cu2  1  0.17035000  0.04567000  0.36321000  1
  H  H1  1  0.73563000  0.14879000  0.13160000  1
  H  H2  1  0.59188000  0.14493000  0.13136000  1
  H  H3  1  0.61616000  0.79732000  0.28622000  1
  H  H4  1  0.75965000  0.80236000  0.28769000  1
  H  H5  1  0.73313000  0.19778000  0.39602000  1
  H  H6  1  0.58996000  0.18389000  0.39860000  1
  H  H7  1  0.97947000  0.98723000  0.57774000  1
  H  H8  1  0.90510000  0.13497000  0.61779000  1
  H  H9  1  0.92586000  0.97254000  0.68835000  1
  H  H10  1  0.90623000  0.14372000  0.92755000  1
  H  H11  1  0.97981000  0.99561000  0.96862000  1
  H  H12  1  0.92499000  0.97875000  0.85902000  1
  H  H13  1  0.28111000  0.59916000  0.61887000  1
  H  H14  1  0.34894000  0.69781000  0.68972000  1
  H  H15  1  0.31153000  0.77328000  0.57846000  1
  H  H16  1  0.27681000  0.60029000  0.92884000  1
  H  H17  1  0.30609000  0.77508000  0.96934000  1
  H  H18  1  0.34758000  0.69649000  0.86046000  1
  H  H19  1  0.32231000  0.40437000  0.61847000  1
  H  H20  1  0.23434000  0.46523000  0.69072000  1
  H  H21  1  0.21837000  0.37812000  0.57919000  1
  H  H22  1  0.33089000  0.38822000  0.92810000  1
  H  H23  1  0.22765000  0.36238000  0.96980000  1
  H  H24  1  0.24136000  0.45969000  0.86125000  1
  H  H25  1  0.30324000  0.94387000  0.85214000  1
  H  H26  1  0.30364000  0.94398000  0.69300000  1
  H  H27  1  0.06657000  0.89882000  0.69411000  1
  H  H28  1  0.06579000  0.90096000  0.85305000  1
  H  H29  1  0.14511000  0.29356000  0.85291000  1
  H  H30  1  0.13977000  0.29041000  0.69367000  1
  C  C1  1  0.58655000  0.04306000  0.27234000  1
  C  C2  1  0.62189000  0.04469000  0.17110000  1
  C  C3  1  0.71863000  0.04714000  0.17105000  1
  C  C4  1  0.75414000  0.04826000  0.27232000  1
  C  C5  1  0.72844000  0.90639000  0.32260000  1
  C  C6  1  0.63171000  0.90327000  0.32195000  1
  C  C7  1  0.61290000  0.18364000  0.32403000  1
  C  C8  1  0.70952000  0.18851000  0.32213000  1
  C  C9  1  0.84886000  0.05120000  0.27232000  1
  C  C10  1  0.49183000  0.04011000  0.27235000  1
  C  C11  1  0.01734000  0.05645000  0.27232000  1
  C  C12  1  0.92437000  0.05355000  0.27231000  1
  C  C13  1  0.32335000  0.03487000  0.27235000  1
  C  C14  1  0.41632000  0.03777000  0.27236000  1
  C  C15  1  0.17442000  0.77593000  0.27233000  1
  C  C16  1  0.17153000  0.61216000  0.27233000  1
  C  C17  1  0.16627000  0.31539000  0.27233000  1
  C  C18  1  0.16918000  0.47916000  0.27233000  1
  C  C19  1  0.17035000  0.04567000  0.67954000  1
  C  C20  1  0.23829000  0.92459000  0.71874000  1
  C  C21  1  0.23810000  0.92415000  0.82583000  1
  C  C22  1  0.17034000  0.04565000  0.86513000  1
  C  C23  1  0.08266000  0.01244000  0.82623000  1
  C  C24  1  0.08306000  0.01159000  0.71911000  1
  C  C25  1  0.18930000  0.20031000  0.71903000  1
  C  C26  1  0.19128000  0.19927000  0.82616000  1
  C  C27  1  0.17033000  0.04564000  0.97002000  1
  C  C28  1  0.17035000  0.04568000  0.57465000  1
  C  C29  1  0.95486000  0.04844000  0.64026000  1
  C  C30  1  0.95517000  0.05524000  0.90560000  1
  C  C31  1  0.29491000  0.71132000  0.64106000  1
  C  C32  1  0.29173000  0.71162000  0.90653000  1
  C  C33  1  0.25934000  0.37784000  0.64125000  1
  C  C34  1  0.26670000  0.36673000  0.90645000  1
  N  N1  1  0.17033000  0.04563000  0.05363000  1
  N  N2  1  0.17036000  0.04569000  0.49104000  1
  O  O1  1  0.04854000  0.05742000  0.19186000  1
  O  O2  1  0.04855000  0.05744000  0.35278000  1
  O  O3  1  0.29218000  0.03347000  0.35280000  1
  O  O4  1  0.29211000  0.03432000  0.19189000  1
  O  O5  1  0.17540000  0.83090000  0.35279000  1
  O  O6  1  0.17538000  0.83088000  0.19188000  1
  O  O7  1  0.16530000  0.26044000  0.35279000  1
  O  O8  1  0.16530000  0.26042000  0.19187000  1
  O  O9  1  0.01912000  0.11794000  0.68437000  1
  O  O10  1  0.01964000  0.12150000  0.85974000  1
  O  O11  1  0.22277000  0.78279000  0.68408000  1
  O  O12  1  0.22153000  0.78232000  0.85952000  1
  O  O13  1  0.26765000  0.23684000  0.68341000  1
  O  O14  1  0.27168000  0.23036000  0.85878000  1
  F  F1  1  0.59988000  0.92284000  0.12237000  1
  F  F2  1  0.60208000  0.89396000  0.41161000  1
  F  F3  1  0.72992000  0.31683000  0.27882000  1
  F  F4  1  0.75674000  0.92607000  0.12294000  1
  F  F5  1  0.57328000  0.31139000  0.28461000  1
  F  F6  1  0.75857000  0.90184000  0.41266000  1
