# generated using pymatgen
data_CuH10C18N4(OF)4
_symmetry_space_group_name_H-M   'P 1'
_cell_length_a   15.94450000
_cell_length_b   16.10930000
_cell_length_c   14.47230000
_cell_angle_alpha   90.00810000
_cell_angle_beta   90.00940000
_cell_angle_gamma   83.47860000
_symmetry_Int_Tables_number   1
_chemical_formula_structural   CuH10C18N4(OF)4
_chemical_formula_sum   'Cu2 H20 C36 N8 O8 F8'
_cell_volume   3693.22605286
_cell_formula_units_Z   2
loop_
 _symmetry_equiv_pos_site_id
 _symmetry_equiv_pos_as_xyz
  1  'x, y, z'
loop_
 _atom_site_type_symbol
 _atom_site_label
 _atom_site_symmetry_multiplicity
 _atom_site_fract_x
 _atom_site_fract_y
 _atom_site_fract_z
 _atom_site_occupancy
  Cu  Cu1  1  0.14720000  0.12111000  0.12646000  1
  Cu  Cu2  1  0.14721000  0.12113000  0.30821000  1
  H  H1  1  0.14582000  0.54245000  0.06534000  1
  H  H2  1  0.14861000  0.69980000  0.36933000  1
  H  H3  1  0.93225000  0.13161000  0.63771000  1
  H  H4  1  0.98564000  0.21677000  0.64153000  1
  H  H5  1  0.93225000  0.13686000  0.79643000  1
  H  H6  1  0.98902000  0.21957000  0.79064000  1
  H  H7  1  0.24118000  0.29995000  0.63055000  1
  H  H8  1  0.29625000  0.20490000  0.64874000  1
  H  H9  1  0.25344000  0.29252000  0.78665000  1
  H  H10  1  0.24261000  0.23759000  0.87992000  1
  H  H11  1  0.26493000  0.93088000  0.63835000  1
  H  H12  1  0.15925000  0.94268000  0.64965000  1
  H  H13  1  0.23353000  0.96882000  0.87970000  1
  H  H14  1  0.15435000  0.94914000  0.80864000  1
  H  H15  1  0.28130000  0.06377000  0.79713000  1
  H  H16  1  0.28171000  0.06383000  0.63800000  1
  H  H17  1  0.04423000  0.03836000  0.63911000  1
  H  H18  1  0.04344000  0.03957000  0.79804000  1
  H  H19  1  0.11998000  0.26082000  0.79792000  1
  H  H20  1  0.11465000  0.25905000  0.63868000  1
  C  C1  1  0.67508000  0.12160000  0.12982000  1
  C  C2  1  0.62836000  0.05212000  0.17355000  1
  C  C3  1  0.72966000  0.12256000  0.21733000  1
  C  C4  1  0.61024000  0.18911000  0.17358000  1
  C  C5  1  0.56475000  0.11968000  0.21733000  1
  C  C6  1  0.68418000  0.05305000  0.26106000  1
  C  C7  1  0.66605000  0.19009000  0.26108000  1
  C  C8  1  0.61936000  0.12060000  0.30487000  1
  C  C9  1  0.82467000  0.12422000  0.21732000  1
  C  C10  1  0.46975000  0.11801000  0.21735000  1
  C  C11  1  0.99363000  0.12719000  0.21732000  1
  C  C12  1  0.90039000  0.12555000  0.21731000  1
  C  C13  1  0.30078000  0.11505000  0.21734000  1
  C  C14  1  0.39402000  0.11669000  0.21735000  1
  C  C15  1  0.14797000  0.66447000  0.13356000  1
  C  C16  1  0.14644000  0.57775000  0.13356000  1
  C  C17  1  0.14644000  0.57778000  0.30111000  1
  C  C18  1  0.14798000  0.66450000  0.30111000  1
  C  C19  1  0.14874000  0.70784000  0.21733000  1
  C  C20  1  0.14567000  0.53440000  0.21734000  1
  C  C21  1  0.14401000  0.44037000  0.21734000  1
  C  C22  1  0.15040000  0.80188000  0.21732000  1
  C  C23  1  0.15337000  0.96912000  0.21732000  1
  C  C24  1  0.15173000  0.87682000  0.21732000  1
  C  C25  1  0.14104000  0.27312000  0.21734000  1
  C  C26  1  0.14268000  0.36542000  0.21734000  1
  C  C27  1  0.14721000  0.12113000  0.62454000  1
  C  C28  1  0.21630000  0.05290000  0.66374000  1
  C  C29  1  0.21612000  0.05265000  0.77082000  1
  C  C30  1  0.14720000  0.12112000  0.81013000  1
  C  C31  1  0.05950000  0.10240000  0.77123000  1
  C  C32  1  0.05991000  0.10191000  0.66411000  1
  C  C33  1  0.16503000  0.20828000  0.66403000  1
  C  C34  1  0.16702000  0.20769000  0.77116000  1
  C  C35  1  0.14719000  0.12111000  0.91502000  1
  C  C36  1  0.14721000  0.12113000  0.51965000  1
  N  N1  1  0.98904000  0.15454000  0.62080000  1
  N  N2  1  0.99003000  0.15797000  0.81303000  1
  N  N3  1  0.24083000  0.23570000  0.62067000  1
  N  N4  1  0.24699000  0.23166000  0.80820000  1
  N  N5  1  0.21006000  0.97022000  0.62258000  1
  N  N6  1  0.21439000  0.96866000  0.81060000  1
  N  N7  1  0.14719000  0.12110000  0.99863000  1
  N  N8  1  0.14722000  0.12114000  0.43604000  1
  O  O1  1  0.02492000  0.12774000  0.13687000  1
  O  O2  1  0.02493000  0.12775000  0.29778000  1
  O  O3  1  0.26949000  0.11451000  0.29780000  1
  O  O4  1  0.26948000  0.11449000  0.13688000  1
  O  O5  1  0.15393000  0.00010000  0.29778000  1
  O  O6  1  0.15391000  0.00008000  0.13687000  1
  O  O7  1  0.14049000  0.24215000  0.13688000  1
  O  O8  1  0.14049000  0.24216000  0.29779000  1
  F  F1  1  0.60787000  0.98140000  0.12868000  1
  F  F2  1  0.57125000  0.25883000  0.12876000  1
  F  F3  1  0.58965000  0.12010000  0.39457000  1
  F  F4  1  0.70477000  0.12210000  0.04011000  1
  F  F5  1  0.68648000  0.26087000  0.30593000  1
  F  F6  1  0.72324000  0.98332000  0.30585000  1
  F  F7  1  0.14870000  0.70579000  0.05192000  1
  F  F8  1  0.14573000  0.53714000  0.38323000  1
