# generated using pymatgen
data_CuH15C24N3(O2F)3
_symmetry_space_group_name_H-M   'P 1'
_cell_length_a   14.85350000
_cell_length_b   17.01930000
_cell_length_c   14.42150000
_cell_angle_alpha   86.12820000
_cell_angle_beta   90.00550000
_cell_angle_gamma   83.50940000
_symmetry_Int_Tables_number   1
_chemical_formula_structural   CuH15C24N3(O2F)3
_chemical_formula_sum   'Cu2 H30 C48 N6 O12 F6'
_cell_volume   3613.95524206
_cell_formula_units_Z   2
loop_
 _symmetry_equiv_pos_site_id
 _symmetry_equiv_pos_as_xyz
  1  'x, y, z'
loop_
 _atom_site_type_symbol
 _atom_site_label
 _atom_site_symmetry_multiplicity
 _atom_site_fract_x
 _atom_site_fract_y
 _atom_site_fract_z
 _atom_site_occupancy
  Cu  Cu1  1  0.22114000  0.18269000  0.99534000  1
  Cu  Cu2  1  0.22116000  0.18270000  0.17773000  1
  H  H1  1  0.88910000  0.08779000  0.77673000  1
  H  H2  1  0.78508000  0.12604000  0.71738000  1
  H  H3  1  0.78242000  0.06564000  0.82517000  1
  H  H4  1  0.55321000  0.27755000  0.76160000  1
  H  H5  1  0.65714000  0.23935000  0.70834000  1
  H  H6  1  0.65983000  0.29970000  0.80649000  1
  H  H7  1  0.78509000  0.12610000  0.46473000  1
  H  H8  1  0.88910000  0.08784000  0.41148000  1
  H  H9  1  0.78248000  0.06568000  0.36658000  1
  H  H10  1  0.55321000  0.27760000  0.39634000  1
  H  H11  1  0.65989000  0.29974000  0.34790000  1
  H  H12  1  0.65723000  0.23935000  0.45570000  1
  H  H13  1  0.94749000  0.18645000  0.93371000  1
  H  H14  1  0.49479000  0.17891000  0.93431000  1
  H  H15  1  0.49482000  0.17893000  0.23935000  1
  H  H16  1  0.94751000  0.18648000  0.23877000  1
  H  H17  1  0.22747000  0.01331000  0.27081000  1
  H  H18  1  0.22445000  0.92224000  0.34048000  1
  H  H19  1  0.20494000  0.82352000  0.88246000  1
  H  H20  1  0.12633000  0.77390000  0.95140000  1
  H  H21  1  0.23737000  0.54187000  0.29062000  1
  H  H22  1  0.31598000  0.59149000  0.22168000  1
  H  H23  1  0.21491000  0.35208000  0.90227000  1
  H  H24  1  0.21786000  0.44315000  0.83259000  1
  H  H25  1  0.22609000  0.94324000  0.95312000  1
  H  H26  1  0.21901000  0.57138000  0.90298000  1
  H  H27  1  0.21621000  0.42214000  0.21996000  1
  H  H28  1  0.22331000  0.79401000  0.27010000  1
  H  H29  1  0.22142000  0.69663000  0.97704000  1
  H  H30  1  0.22090000  0.66875000  0.19604000  1
  C  C1  1  0.53308000  0.17955000  0.00271000  1
  C  C2  1  0.53309000  0.17956000  0.17085000  1
  C  C3  1  0.62712000  0.18113000  0.17073000  1
  C  C4  1  0.67413000  0.18191000  0.08660000  1
  C  C5  1  0.62712000  0.18112000  0.00259000  1
  C  C6  1  0.67415000  0.18192000  0.25474000  1
  C  C7  1  0.76818000  0.18349000  0.25462000  1
  C  C8  1  0.81520000  0.18427000  0.17049000  1
  C  C9  1  0.76817000  0.18348000  0.08648000  1
  C  C10  1  0.81518000  0.18426000  0.00234000  1
  C  C11  1  0.76816000  0.18347000  0.91833000  1
  C  C12  1  0.67413000  0.18190000  0.91846000  1
  C  C13  1  0.90923000  0.18584000  0.17036000  1
  C  C14  1  0.90922000  0.18583000  0.00222000  1
  C  C15  1  0.81755000  0.11215000  0.78672000  1
  C  C16  1  0.62476000  0.25319000  0.77547000  1
  C  C17  1  0.81755000  0.11219000  0.39761000  1
  C  C18  1  0.62476000  0.25324000  0.38636000  1
  C  C19  1  0.05632000  0.18828000  0.08610000  1
  C  C20  1  0.95624000  0.18662000  0.08623000  1
  C  C21  1  0.38599000  0.17711000  0.08698000  1
  C  C22  1  0.48607000  0.17877000  0.08684000  1
  C  C23  1  0.22546000  0.90976000  0.02426000  1
  C  C24  1  0.22390000  0.82748000  0.03083000  1
  C  C25  1  0.22313000  0.78635000  0.11819000  1
  C  C26  1  0.22393000  0.82750000  0.19897000  1
  C  C27  1  0.22549000  0.90978000  0.19240000  1
  C  C28  1  0.21841000  0.53791000  0.14225000  1
  C  C29  1  0.21684000  0.45563000  0.14882000  1
  C  C30  1  0.21682000  0.45561000  0.98068000  1
  C  C31  1  0.21838000  0.53789000  0.97411000  1
  C  C32  1  0.21918000  0.57904000  0.05489000  1
  C  C33  1  0.22154000  0.70224000  0.12491000  1
  C  C34  1  0.22078000  0.66314000  0.04817000  1
  C  C35  1  0.22792000  0.03848000  0.09805000  1
  C  C36  1  0.22626000  0.95091000  0.10504000  1
  C  C37  1  0.21438000  0.32691000  0.07503000  1
  C  C38  1  0.21605000  0.41448000  0.06804000  1
  C  C39  1  0.28512000  0.12663000  0.62191000  1
  C  C40  1  0.20362000  0.11142000  0.56129000  1
  C  C41  1  0.22115000  0.18269000  0.67790000  1
  C  C42  1  0.30266000  0.19788000  0.55443000  1
  C  C43  1  0.22116000  0.18270000  0.49518000  1
  C  C44  1  0.13960000  0.16744000  0.61864000  1
  C  C45  1  0.23869000  0.25393000  0.61179000  1
  C  C46  1  0.15713000  0.23875000  0.55119000  1
  C  C47  1  0.22114000  0.18268000  0.78316000  1
  C  C48  1  0.22116000  0.18271000  0.38992000  1
  N  N1  1  0.22583000  0.95200000  0.27480000  1
  N  N2  1  0.18559000  0.80169000  0.94807000  1
  N  N3  1  0.25672000  0.56370000  0.22501000  1
  N  N4  1  0.21648000  0.41339000  0.89828000  1
  N  N5  1  0.22114000  0.18268000  0.86706000  1
  N  N6  1  0.22117000  0.18271000  0.30601000  1
  O  O1  1  0.81582000  0.18347000  0.83421000  1
  O  O2  1  0.62644000  0.18187000  0.83434000  1
  O  O3  1  0.81587000  0.18351000  0.33873000  1
  O  O4  1  0.62650000  0.18191000  0.33886000  1
  O  O5  1  0.08989000  0.18883000  0.00531000  1
  O  O6  1  0.08991000  0.18885000  0.16679000  1
  O  O7  1  0.35241000  0.17657000  0.16776000  1
  O  O8  1  0.35240000  0.17653000  0.00629000  1
  O  O9  1  0.22849000  0.06787000  0.17644000  1
  O  O10  1  0.22847000  0.06786000  0.01496000  1
  O  O11  1  0.21381000  0.29752000  0.99663000  1
  O  O12  1  0.21384000  0.29753000  0.15811000  1
  F  F1  1  0.18567000  0.03838000  0.53412000  1
  F  F2  1  0.38622000  0.21349000  0.52032000  1
  F  F3  1  0.09159000  0.29622000  0.51366000  1
  F  F4  1  0.35069000  0.06916000  0.65942000  1
  F  F5  1  0.25670000  0.32699000  0.63889000  1
  F  F6  1  0.05606000  0.15180000  0.65284000  1
