# generated using pymatgen
data_CuH8C14NO4
_symmetry_space_group_name_H-M   'P 1'
_cell_length_a   12.81140000
_cell_length_b   9.06520000
_cell_length_c   15.50040000
_cell_angle_alpha   92.88290000
_cell_angle_beta   92.59030000
_cell_angle_gamma   84.52360000
_symmetry_Int_Tables_number   1
_chemical_formula_structural   CuH8C14NO4
_chemical_formula_sum   'Cu2 H16 C28 N2 O8'
_cell_volume   1788.22142400
_cell_formula_units_Z   2
loop_
 _symmetry_equiv_pos_site_id
 _symmetry_equiv_pos_as_xyz
  1  'x, y, z'
loop_
 _atom_site_type_symbol
 _atom_site_label
 _atom_site_symmetry_multiplicity
 _atom_site_fract_x
 _atom_site_fract_y
 _atom_site_fract_z
 _atom_site_occupancy
  Cu  Cu1  1  0.20206000  0.06339000  0.12965000  1
  Cu  Cu2  1  0.19079000  0.07947000  0.29892000  1
  H  H1  1  0.87013000  0.08816000  0.33099000  1
  H  H2  1  0.70153000  0.08925000  0.39621000  1
  H  H3  1  0.50390000  0.08162000  0.38071000  1
  H  H4  1  0.52271000  0.05470000  0.09758000  1
  H  H5  1  0.69131000  0.05360000  0.03237000  1
  H  H6  1  0.88897000  0.06124000  0.04786000  1
  H  H7  1  0.08373000  0.23186000  0.99223000  1
  H  H8  1  0.09467000  0.21634000  0.82880000  1
  H  H9  1  0.04456000  0.28769000  0.57983000  1
  H  H10  1  0.05549000  0.27216000  0.41638000  1
  H  H11  1  0.30913000  0.91098000  0.43634000  1
  H  H12  1  0.29820000  0.92653000  0.59978000  1
  H  H13  1  0.34831000  0.85517000  0.84874000  1
  H  H14  1  0.33737000  0.87069000  0.01219000  1
  H  H15  1  0.10530000  0.20121000  0.72247000  1
  H  H16  1  0.28757000  0.94166000  0.70609000  1
  C  C1  1  0.66141000  0.08151000  0.32919000  1
  C  C2  1  0.55247000  0.07728000  0.32065000  1
  C  C3  1  0.56284000  0.06244000  0.16459000  1
  C  C4  1  0.67179000  0.06667000  0.17313000  1
  C  C5  1  0.72106000  0.07620000  0.25544000  1
  C  C6  1  0.83001000  0.08041000  0.26398000  1
  C  C7  1  0.84038000  0.06558000  0.10792000  1
  C  C8  1  0.73144000  0.06136000  0.09938000  1
  C  C9  1  0.00562000  0.07960000  0.19932000  1
  C  C10  1  0.88967000  0.07510000  0.19022000  1
  C  C11  1  0.38724000  0.06326000  0.22925000  1
  C  C12  1  0.50318000  0.06775000  0.23835000  1
  C  C13  1  0.20151000  0.80177000  0.21469000  1
  C  C14  1  0.19790000  0.63795000  0.21440000  1
  C  C15  1  0.19135000  0.34108000  0.21389000  1
  C  C16  1  0.19497000  0.50491000  0.21417000  1
  C  C17  1  0.14310000  0.14732000  0.96004000  1
  C  C18  1  0.14913000  0.13876000  0.86994000  1
  C  C19  1  0.22204000  0.03495000  0.83039000  1
  C  C20  1  0.28894000  0.93970000  0.88095000  1
  C  C21  1  0.28291000  0.94827000  0.97104000  1
  C  C22  1  0.24373000  0.00410000  0.55863000  1
  C  C23  1  0.24975000  0.99553000  0.46853000  1
  C  C24  1  0.10995000  0.19460000  0.45753000  1
  C  C25  1  0.10393000  0.20315000  0.54763000  1
  C  C26  1  0.17082000  0.10791000  0.59818000  1
  C  C27  1  0.22820000  0.02619000  0.73830000  1
  C  C28  1  0.16466000  0.11668000  0.69027000  1
  N  N1  1  0.20999000  0.05208000  0.01059000  1
  N  N2  1  0.18286000  0.09078000  0.41798000  1
  O  O1  1  0.04951000  0.07399000  0.12743000  1
  O  O2  1  0.03954000  0.08822000  0.27731000  1
  O  O3  1  0.34334000  0.06887000  0.30114000  1
  O  O4  1  0.35331000  0.05462000  0.15127000  1
  O  O5  1  0.19773000  0.86386000  0.28972000  1
  O  O6  1  0.20771000  0.84963000  0.13984000  1
  O  O7  1  0.18514000  0.29323000  0.28873000  1
  O  O8  1  0.19513000  0.27899000  0.13885000  1
