# generated using pymatgen
data_CuH13C21NO7F4
_symmetry_space_group_name_H-M   'P 1'
_cell_length_a   15.94450000
_cell_length_b   15.99530000
_cell_length_c   14.58630000
_cell_angle_alpha   89.99510000
_cell_angle_beta   90.01450000
_cell_angle_gamma   83.48620000
_symmetry_Int_Tables_number   1
_chemical_formula_structural   CuH13C21NO7F4
_chemical_formula_sum   'Cu2 H26 C42 N2 O14 F8'
_cell_volume   3696.03240181
_cell_formula_units_Z   2
loop_
 _symmetry_equiv_pos_site_id
 _symmetry_equiv_pos_as_xyz
  1  'x, y, z'
loop_
 _atom_site_type_symbol
 _atom_site_label
 _atom_site_symmetry_multiplicity
 _atom_site_fract_x
 _atom_site_fract_y
 _atom_site_fract_z
 _atom_site_occupancy
  Cu  Cu1  1  0.25201000  0.15354000  0.97780000  1
  Cu  Cu2  1  0.25204000  0.15354000  0.15813000  1
  H  H1  1  0.73279000  0.30636000  0.86220000  1
  H  H2  1  0.78120000  0.34575000  0.96504000  1
  H  H3  1  0.68770000  0.40091000  0.91676000  1
  H  H4  1  0.74046000  0.39307000  0.23117000  1
  H  H5  1  0.66694000  0.33054000  0.17948000  1
  H  H6  1  0.72366000  0.40003000  0.11023000  1
  H  H7  1  0.72314000  0.15609000  0.37626000  1
  H  H8  1  0.70105000  0.25395000  0.31750000  1
  H  H9  1  0.79901000  0.18676000  0.29653000  1
  H  H10  1  0.89876000  0.96126000  0.25632000  1
  H  H11  1  0.80111000  0.02177000  0.28407000  1
  H  H12  1  0.89205000  0.07295000  0.24527000  1
  H  H13  1  0.68245000  0.89525000  0.00141000  1
  H  H14  1  0.60067000  0.98064000  0.01298000  1
  H  H15  1  0.68202000  0.96120000  0.10047000  1
  H  H16  1  0.87554000  0.18895000  0.78873000  1
  H  H17  1  0.92779000  0.13224000  0.88150000  1
  H  H18  1  0.87967000  0.24124000  0.89623000  1
  H  H19  1  0.31078000  0.71805000  0.20760000  1
  H  H20  1  0.30858000  0.57434000  0.20784000  1
  H  H21  1  0.11062000  0.60123000  0.05417000  1
  H  H22  1  0.11349000  0.74468000  0.05272000  1
  H  H23  1  0.33860000  0.71516000  0.94525000  1
  H  H24  1  0.33069000  0.57210000  0.94268000  1
  H  H25  1  0.14864000  0.25702000  0.48086000  1
  H  H26  1  0.35543000  0.05006000  0.65507000  1
  C  C1  1  0.77989000  0.15403000  0.98113000  1
  C  C2  1  0.73316000  0.08405000  0.02453000  1
  C  C3  1  0.83448000  0.15499000  0.06796000  1
  C  C4  1  0.71506000  0.22201000  0.02454000  1
  C  C5  1  0.66957000  0.15209000  0.06797000  1
  C  C6  1  0.78899000  0.08497000  0.11136000  1
  C  C7  1  0.77088000  0.22300000  0.11135000  1
  C  C8  1  0.72419000  0.15300000  0.15482000  1
  C  C9  1  0.92948000  0.15666000  0.06795000  1
  C  C10  1  0.57457000  0.15041000  0.06798000  1
  C  C11  1  0.72084000  0.33724000  0.92980000  1
  C  C12  1  0.72844000  0.35610000  0.16920000  1
  C  C13  1  0.73021000  0.18813000  0.30969000  1
  C  C14  1  0.85592000  0.01801000  0.23684000  1
  C  C15  1  0.66865000  0.96116000  0.02553000  1
  C  C16  1  0.87368000  0.17933000  0.86394000  1
  C  C17  1  0.09845000  0.15965000  0.06795000  1
  C  C18  1  0.00520000  0.15800000  0.06794000  1
  C  C19  1  0.40559000  0.14743000  0.06798000  1
  C  C20  1  0.49884000  0.14908000  0.06798000  1
  C  C21  1  0.25054000  0.56976000  0.06796000  1
  C  C22  1  0.25150000  0.60509000  0.16840000  1
  C  C23  1  0.25289000  0.70182000  0.16846000  1
  C  C24  1  0.25350000  0.73732000  0.06797000  1
  C  C25  1  0.17271000  0.71268000  0.01808000  1
  C  C26  1  0.17094000  0.61598000  0.01873000  1
  C  C27  1  0.33057000  0.59505000  0.01668000  1
  C  C28  1  0.33333333  0.69163000  0.01856000  1
  C  C29  1  0.25518000  0.83202000  0.06797000  1
  C  C30  1  0.24886000  0.47506000  0.06795000  1
  C  C31  1  0.25817000  0.00046000  0.06798000  1
  C  C32  1  0.25652000  0.90750000  0.06799000  1
  C  C33  1  0.24588000  0.30662000  0.06795000  1
  C  C34  1  0.24753000  0.39957000  0.06794000  1
  C  C35  1  0.19503000  0.21057000  0.61593000  1
  C  C36  1  0.19504000  0.21057000  0.51995000  1
  C  C37  1  0.30902000  0.09650000  0.52000000  1
  C  C38  1  0.30902000  0.09651000  0.61598000  1
  C  C39  1  0.25201000  0.15354000  0.66394000  1
  C  C40  1  0.25203000  0.15354000  0.47198000  1
  C  C41  1  0.25204000  0.15354000  0.36792000  1
  C  C42  1  0.25200000  0.15354000  0.76802000  1
  N  N1  1  0.25199000  0.15354000  0.85097000  1
  N  N2  1  0.25205000  0.15354000  0.28496000  1
  O  O1  1  0.66783000  0.29203000  0.98307000  1
  O  O2  1  0.79732000  0.29350000  0.15680000  1
  O  O3  1  0.68681000  0.14694000  0.24216000  1
  O  O4  1  0.82970000  0.00834000  0.14593000  1
  O  O5  1  0.71779000  0.01204000  0.97398000  1
  O  O6  1  0.79714000  0.14840000  0.88594000  1
  O  O7  1  0.12973000  0.16021000  0.98812000  1
  O  O8  1  0.12975000  0.16021000  0.14778000  1
  O  O9  1  0.37432000  0.14687000  0.14780000  1
  O  O10  1  0.37429000  0.14687000  0.98814000  1
  O  O11  1  0.25873000  0.03165000  0.14780000  1
  O  O12  1  0.25871000  0.03165000  0.98815000  1
  O  O13  1  0.24506000  0.27547000  0.98812000  1
  O  O14  1  0.24558000  0.27540000  0.14778000  1
  F  F1  1  0.18213000  0.58401000  0.21675000  1
  F  F2  1  0.16561000  0.58642000  0.92977000  1
  F  F3  1  0.40641000  0.71107000  0.06154000  1
  F  F4  1  0.18397000  0.74084000  0.21619000  1
  F  F5  1  0.40331000  0.55447000  0.05579000  1
  F  F6  1  0.17010000  0.74284000  0.92872000  1
  F  F7  1  0.13948000  0.26615000  0.66164000  1
  F  F8  1  0.36489000  0.04060000  0.47504000  1
