# generated using pymatgen
data_CuH7C14N2(O2F)2
_symmetry_space_group_name_H-M   'P 1'
_cell_length_a   10.65460000
_cell_length_b   12.81140000
_cell_length_c   11.29570000
_cell_angle_alpha   88.71550000
_cell_angle_beta   85.87620000
_cell_angle_gamma   84.26320000
_symmetry_Int_Tables_number   1
_chemical_formula_structural   CuH7C14N2(O2F)2
_chemical_formula_sum   'Cu2 H14 C28 N4 O8 F4'
_cell_volume   1529.99252130
_cell_formula_units_Z   2
loop_
 _symmetry_equiv_pos_site_id
 _symmetry_equiv_pos_as_xyz
  1  'x, y, z'
loop_
 _atom_site_type_symbol
 _atom_site_label
 _atom_site_symmetry_multiplicity
 _atom_site_fract_x
 _atom_site_fract_y
 _atom_site_fract_z
 _atom_site_occupancy
  Cu  Cu1  1  0.14242000  0.17447000  0.05052000  1
  Cu  Cu2  1  0.12273000  0.19095000  0.28295000  1
  H  H1  1  0.49725000  0.19389000  0.36139000  1
  H  H2  1  0.76791000  0.17154000  0.97206000  1
  H  H3  1  0.15096000  0.85280000  0.00649000  1
  H  H4  1  0.14716000  0.48507000  0.93822000  1
  H  H5  1  0.11420000  0.51260000  0.32698000  1
  H  H6  1  0.11800000  0.88035000  0.39525000  1
  H  H7  1  0.92819000  0.40261000  0.75444000  1
  H  H8  1  0.84857000  0.40307000  0.62241000  1
  H  H9  1  0.39612000  0.94552000  0.71287000  1
  H  H10  1  0.39625000  0.01159000  0.57377000  1
  H  H11  1  0.00452000  0.28968000  0.86174000  1
  H  H12  1  0.95517000  0.33097000  0.44414000  1
  H  H13  1  0.26063000  0.07575000  0.47171000  1
  H  H14  1  0.30999000  0.03445000  0.88934000  1
  C  C1  1  0.68901000  0.19174000  0.27372000  1
  C  C2  1  0.55798000  0.18886000  0.27402000  1
  C  C3  1  0.57615000  0.17368000  0.05974000  1
  C  C4  1  0.70718000  0.17656000  0.05944000  1
  C  C5  1  0.90306000  0.18865000  0.16610000  1
  C  C6  1  0.76361000  0.18558000  0.16643000  1
  C  C7  1  0.36209000  0.17676000  0.16737000  1
  C  C8  1  0.50154000  0.17983000  0.16704000  1
  C  C9  1  0.14524000  0.64415000  0.00896000  1
  C  C10  1  0.14134000  0.53549000  0.02069000  1
  C  C11  1  0.12317000  0.55067000  0.23497000  1
  C  C12  1  0.12706000  0.65934000  0.22324000  1
  C  C13  1  0.13810000  0.70608000  0.11023000  1
  C  C14  1  0.14199000  0.81475000  0.09850000  1
  C  C15  1  0.12382000  0.82993000  0.31278000  1
  C  C16  1  0.11993000  0.72126000  0.32451000  1
  C  C17  1  0.13900000  0.99233000  0.18729000  1
  C  C18  1  0.13485000  0.87668000  0.19978000  1
  C  C19  1  0.12615000  0.37309000  0.14618000  1
  C  C20  1  0.13030000  0.48874000  0.13369000  1
  C  C21  1  0.00893000  0.28603000  0.62440000  1
  C  C22  1  0.01943000  0.27726000  0.50069000  1
  C  C23  1  0.18780000  0.13658000  0.51590000  1
  C  C24  1  0.17730000  0.14535000  0.63961000  1
  C  C25  1  0.08786000  0.22007000  0.69386000  1
  C  C26  1  0.07735000  0.22884000  0.81757000  1
  C  C27  1  0.24572000  0.08816000  0.83278000  1
  C  C28  1  0.25623000  0.07939000  0.70907000  1
  N  N1  1  0.91854000  0.36702000  0.67405000  1
  N  N2  1  0.35318000  0.00381000  0.65884000  1
  N  N3  1  0.15629000  0.16288000  0.88704000  1
  N  N4  1  0.10887000  0.20254000  0.44643000  1
  O  O1  1  0.95858000  0.18239000  0.06309000  1
  O  O2  1  0.94114000  0.19698000  0.26888000  1
  O  O3  1  0.30658000  0.18303000  0.27038000  1
  O  O4  1  0.32401000  0.16845000  0.06459000  1
  O  O5  1  0.13167000  0.03843000  0.28600000  1
  O  O6  1  0.14911000  0.02385000  0.08021000  1
  O  O7  1  0.13349000  0.32698000  0.04747000  1
  O  O8  1  0.11603000  0.34157000  0.25326000  1
  F  F1  1  0.74393000  0.20030000  0.37711000  1
  F  F2  1  0.52115000  0.16522000  0.95634000  1
  F  F3  1  0.15595000  0.68770000  0.89844000  1
  F  F4  1  0.10921000  0.67772000  0.43503000  1
