# generated using pymatgen
data_CuH9C23N5O4F5
_symmetry_space_group_name_H-M   'P 1'
_cell_length_a   15.62520000
_cell_length_b   19.18890000
_cell_length_c   14.42150000
_cell_angle_alpha   90.00220000
_cell_angle_beta   71.92540000
_cell_angle_gamma   83.71150000
_symmetry_Int_Tables_number   1
_chemical_formula_structural   CuH9C23N5O4F5
_chemical_formula_sum   'Cu2 H18 C46 N10 O8 F10'
_cell_volume   4083.24602535
_cell_formula_units_Z   2
loop_
 _symmetry_equiv_pos_site_id
 _symmetry_equiv_pos_as_xyz
  1  'x, y, z'
loop_
 _atom_site_type_symbol
 _atom_site_label
 _atom_site_symmetry_multiplicity
 _atom_site_fract_x
 _atom_site_fract_y
 _atom_site_fract_z
 _atom_site_occupancy
  Cu  Cu1  1  0.22331000  0.17063000  0.00456000  1
  Cu  Cu2  1  0.22333000  0.17064000  0.18694000  1
  H  H1  1  0.92401000  0.25683000  0.01369000  1
  H  H2  1  0.02810000  0.20436000  0.00449000  1
  H  H3  1  0.65136000  0.14741000  0.43393000  1
  H  H4  1  0.55400000  0.18079000  0.40363000  1
  H  H5  1  0.41868000  0.13655000  0.18683000  1
  H  H6  1  0.52290000  0.08408000  0.17723000  1
  H  H7  1  0.88926000  0.17963000  0.78810000  1
  H  H8  1  0.80328000  0.14103000  0.75745000  1
  H  H9  1  0.89390000  0.17314000  0.95432000  1
  H  H10  1  0.66753000  0.16979000  0.79383000  1
  H  H11  1  0.49695000  0.16728000  0.85121000  1
  H  H12  1  0.55274000  0.16813000  0.23718000  1
  H  H13  1  0.77911000  0.17149000  0.39766000  1
  H  H14  1  0.94969000  0.17400000  0.34029000  1
  H  H15  1  0.22883000  0.95871000  0.24644000  1
  H  H16  1  0.22628000  0.82660000  0.94224000  1
  H  H17  1  0.21784000  0.38256000  0.25010000  1
  H  H18  1  0.22033000  0.51468000  0.94421000  1
  C  C1  1  0.62927000  0.16923000  0.87517000  1
  C  C2  1  0.53523000  0.16785000  0.90680000  1
  C  C3  1  0.53525000  0.16786000  0.07493000  1
  C  C4  1  0.62929000  0.16925000  0.04330000  1
  C  C5  1  0.67629000  0.16993000  0.94342000  1
  C  C6  1  0.67631000  0.16995000  0.11156000  1
  C  C7  1  0.77033000  0.17133000  0.07994000  1
  C  C8  1  0.81734000  0.17201000  0.98006000  1
  C  C9  1  0.77031000  0.17132000  0.91180000  1
  C  C10  1  0.62931000  0.16926000  0.21144000  1
  C  C11  1  0.67633000  0.16996000  0.27969000  1
  C  C12  1  0.77035000  0.17135000  0.24807000  1
  C  C13  1  0.81736000  0.17203000  0.14820000  1
  C  C14  1  0.81738000  0.17204000  0.31633000  1
  C  C15  1  0.91141000  0.17343000  0.28471000  1
  C  C16  1  0.91139000  0.17341000  0.11658000  1
  C  C17  1  0.05848000  0.17558000  0.15118000  1
  C  C18  1  0.95841000  0.17411000  0.18483000  1
  C  C19  1  0.38816000  0.16569000  0.04032000  1
  C  C20  1  0.48823000  0.16716000  0.00666000  1
  C  C21  1  0.22826000  0.92907000  0.17817000  1
  C  C22  1  0.22687000  0.85625000  0.17863000  1
  C  C23  1  0.22617000  0.81983000  0.09480000  1
  C  C24  1  0.22684000  0.85625000  0.01050000  1
  C  C25  1  0.22822000  0.92908000  0.01004000  1
  C  C26  1  0.22199000  0.60041000  0.09618000  1
  C  C27  1  0.22466000  0.74086000  0.09529000  1
  C  C28  1  0.21980000  0.48503000  0.18099000  1
  C  C29  1  0.21840000  0.41220000  0.18145000  1
  C  C30  1  0.21838000  0.41221000  0.01331000  1
  C  C31  1  0.21978000  0.48503000  0.01285000  1
  C  C32  1  0.22049000  0.52144000  0.09669000  1
  C  C33  1  0.23041000  0.04299000  0.09337000  1
  C  C34  1  0.22894000  0.96548000  0.09388000  1
  C  C35  1  0.21623000  0.29828000  0.09812000  1
  C  C36  1  0.21770000  0.37579000  0.09762000  1
  C  C37  1  0.28741000  0.12101000  0.60510000  1
  C  C38  1  0.20595000  0.10755000  0.57066000  1
  C  C39  1  0.22331000  0.17063000  0.68711000  1
  C  C40  1  0.30479000  0.18407000  0.53746000  1
  C  C41  1  0.22333000  0.17064000  0.50439000  1
  C  C42  1  0.14181000  0.15714000  0.65405000  1
  C  C43  1  0.24070000  0.23369000  0.62083000  1
  C  C44  1  0.15918000  0.22025000  0.58644000  1
  C  C45  1  0.22330000  0.17062000  0.79238000  1
  C  C46  1  0.22333000  0.17065000  0.39913000  1
  N  N1  1  0.95756000  0.21237000  0.03452000  1
  N  N2  1  0.62444000  0.16910000  0.38133000  1
  N  N3  1  0.48920000  0.12860000  0.15673000  1
  N  N4  1  0.82301000  0.16635000  0.81010000  1
  N  N5  1  0.27529000  0.70033000  0.01570000  1
  N  N6  1  0.27397000  0.63115000  0.01614000  1
  N  N7  1  0.17138000  0.64146000  0.17578000  1
  N  N8  1  0.17270000  0.71065000  0.17533000  1
  N  N9  1  0.22330000  0.17062000  0.87628000  1
  N  N10  1  0.22334000  0.17065000  0.31522000  1
  O  O1  1  0.09205000  0.17607000  0.05915000  1
  O  O2  1  0.09207000  0.17608000  0.22062000  1
  O  O3  1  0.35459000  0.16520000  0.13235000  1
  O  O4  1  0.35457000  0.16519000  0.97087000  1
  O  O5  1  0.23091000  0.06901000  0.17394000  1
  O  O6  1  0.23090000  0.06900000  0.01247000  1
  O  O7  1  0.21573000  0.27226000  0.01755000  1
  O  O8  1  0.21574000  0.27228000  0.17903000  1
  F  F1  1  0.22738000  0.82178000  0.26063000  1
  F  F2  1  0.22870000  0.96437000  0.92838000  1
  F  F3  1  0.22163000  0.51928000  0.26252000  1
  F  F4  1  0.21754000  0.37697000  0.93211000  1
  F  F5  1  0.18815000  0.04290000  0.54365000  1
  F  F6  1  0.38831000  0.19789000  0.47651000  1
  F  F7  1  0.09351000  0.27112000  0.57558000  1
  F  F8  1  0.35310000  0.07014000  0.61594000  1
  F  F9  1  0.25855000  0.29836000  0.64776000  1
  F  F10  1  0.05830000  0.14330000  0.71507000  1
