# generated using pymatgen
data_CuH18C24NO8
_symmetry_space_group_name_H-M   'P 1'
_cell_length_a   15.62520000
_cell_length_b   16.10930000
_cell_length_c   11.29570000
_cell_angle_alpha   94.11160000
_cell_angle_beta   67.89220000
_cell_angle_gamma   83.86860000
_symmetry_Int_Tables_number   1
_chemical_formula_structural   CuH18C24NO8
_chemical_formula_sum   'Cu2 H36 C48 N2 O16'
_cell_volume   2599.74519985
_cell_formula_units_Z   2
loop_
 _symmetry_equiv_pos_site_id
 _symmetry_equiv_pos_as_xyz
  1  'x, y, z'
loop_
 _atom_site_type_symbol
 _atom_site_label
 _atom_site_symmetry_multiplicity
 _atom_site_fract_x
 _atom_site_fract_y
 _atom_site_fract_z
 _atom_site_occupancy
  Cu  Cu1  1  0.24581000  0.13081000  0.99550000  1
  Cu  Cu2  1  0.23111000  0.14442000  0.23606000  1
  H  H1  1  0.06450000  0.12568000  0.84321000  1
  H  H2  1  0.07062000  0.06269000  0.96522000  1
  H  H3  1  0.12183000  0.16006000  0.94213000  1
  H  H4  1  0.49361000  0.11279000  0.56335000  1
  H  H5  1  0.58171000  0.06595000  0.61480000  1
  H  H6  1  0.58868000  0.03472000  0.45542000  1
  H  H7  1  0.41319000  0.15010000  0.38892000  1
  H  H8  1  0.42661000  0.07087000  0.26059000  1
  H  H9  1  0.34734000  0.16922000  0.29314000  1
  H  H10  1  0.97502000  0.12394000  0.58506000  1
  H  H11  1  0.99031000  0.06967000  0.70997000  1
  H  H12  1  0.95981000  0.18451000  0.73339000  1
  H  H13  1  0.92046000  0.13005000  0.92923000  1
  H  H14  1  0.70703000  0.11410000  0.71756000  1
  H  H15  1  0.53182000  0.11539000  0.79325000  1
  H  H16  1  0.55646000  0.14517000  0.30233000  1
  H  H17  1  0.76988000  0.16113000  0.51400000  1
  H  H18  1  0.94510000  0.15984000  0.43833000  1
  H  H19  1  0.15351000  0.65538000  0.48816000  1
  H  H20  1  0.28084000  0.63745000  0.43317000  1
  H  H21  1  0.21159000  0.56472000  0.52540000  1
  H  H22  1  0.19607000  0.63779000  0.79839000  1
  H  H23  1  0.32340000  0.61985000  0.74340000  1
  H  H24  1  0.26532000  0.71052000  0.70616000  1
  H  H25  1  0.24923000  0.54761000  0.91526000  1
  H  H26  1  0.22770000  0.72763000  0.31631000  1
  H  H27  1  0.05925000  0.37966000  0.61282000  1
  H  H28  1  0.97217000  0.38381000  0.77257000  1
  H  H29  1  0.97422000  0.30566000  0.64951000  1
  H  H30  1  0.50474000  0.89143000  0.45899000  1
  H  H31  1  0.41767000  0.89558000  0.61874000  1
  H  H32  1  0.50270000  0.96958000  0.58205000  1
  H  H33  1  0.14288000  0.22597000  0.86362000  1
  H  H34  1  0.10604000  0.26008000  0.46638000  1
  H  H35  1  0.33404000  0.04927000  0.36793000  1
  H  H36  1  0.37088000  0.01516000  0.76519000  1
  C  C1  1  0.66220000  0.11950000  0.82484000  1
  C  C2  1  0.56561000  0.12021000  0.86657000  1
  C  C3  1  0.55206000  0.13276000  0.08832000  1
  C  C4  1  0.64865000  0.13205000  0.04661000  1
  C  C5  1  0.70372000  0.12542000  0.91486000  1
  C  C6  1  0.69017000  0.13797000  0.13664000  1
  C  C7  1  0.78675000  0.13726000  0.09493000  1
  C  C8  1  0.84182000  0.13063000  0.96319000  1
  C  C9  1  0.80030000  0.12471000  0.87315000  1
  C  C10  1  0.63510000  0.14460000  0.26838000  1
  C  C11  1  0.67662000  0.15052000  0.35841000  1
  C  C12  1  0.77320000  0.14982000  0.31670000  1
  C  C13  1  0.82827000  0.14318000  0.18496000  1
  C  C14  1  0.81472000  0.15573000  0.40673000  1
  C  C15  1  0.91130000  0.15502000  0.36502000  1
  C  C16  1  0.92485000  0.14247000  0.14325000  1
  C  C17  1  0.06214000  0.12842000  0.94253000  1
  C  C18  1  0.56909000  0.08906000  0.53174000  1
  C  C19  1  0.41595000  0.13990000  0.28933000  1
  C  C20  1  0.94933000  0.12396000  0.69090000  1
  C  C21  1  0.06916000  0.14764000  0.18889000  1
  C  C22  1  0.96637000  0.14839000  0.23328000  1
  C  C23  1  0.40775000  0.12759000  0.04267000  1
  C  C24  1  0.51055000  0.12684000  0.99828000  1
  C  C25  1  0.24608000  0.67468000  0.00453000  1
  C  C26  1  0.24439000  0.58800000  0.00526000  1
  C  C27  1  0.23083000  0.60056000  0.22704000  1
  C  C28  1  0.23253000  0.68724000  0.22630000  1
  C  C29  1  0.24015000  0.72430000  0.11504000  1
  C  C30  1  0.23676000  0.55094000  0.11652000  1
  C  C31  1  0.23493000  0.45695000  0.11731000  1
  C  C32  1  0.24198000  0.81829000  0.11425000  1
  C  C33  1  0.21704000  0.60746000  0.45093000  1
  C  C34  1  0.25988000  0.66778000  0.78064000  1
  C  C35  1  0.24525000  0.98545000  0.11284000  1
  C  C36  1  0.24345000  0.89320000  0.11361000  1
  C  C37  1  0.23166000  0.28978000  0.11873000  1
  C  C38  1  0.23347000  0.38203000  0.11795000  1
  C  C39  1  0.14617000  0.22296000  0.62446000  1
  C  C40  1  0.15401000  0.21571000  0.49641000  1
  C  C41  1  0.27968000  0.09951000  0.44216000  1
  C  C42  1  0.27184000  0.10676000  0.57020000  1
  C  C43  1  0.20508000  0.16848000  0.66135000  1
  C  C44  1  0.19724000  0.17572000  0.78940000  1
  C  C45  1  0.32291000  0.05952000  0.73514000  1
  C  C46  1  0.33075000  0.05228000  0.60710000  1
  C  C47  1  0.01867000  0.34082000  0.68563000  1
  C  C48  1  0.45824000  0.93442000  0.54593000  1
  N  N1  1  0.25615000  0.12124000  0.82630000  1
  N  N2  1  0.22076000  0.15399000  0.40526000  1
  O  O1  1  0.97560000  0.17690000  0.02986000  1
  O  O2  1  0.62188000  0.15639000  0.49096000  1
  O  O3  1  0.48954000  0.18030000  0.20529000  1
  O  O4  1  0.85273000  0.11500000  0.73858000  1
  O  O5  1  0.11016000  0.14136000  0.06750000  1
  O  O6  1  0.09715000  0.15341000  0.28048000  1
  O  O7  1  0.36675000  0.13387000  0.16406000  1
  O  O8  1  0.37977000  0.12183000  0.95108000  1
  O  O9  1  0.22326000  0.55921000  0.33613000  1
  O  O10  1  0.25366000  0.71602000  0.89543000  1
  O  O11  1  0.23935000  0.02244000  0.21907000  1
  O  O12  1  0.25237000  0.01039000  0.00608000  1
  O  O13  1  0.23757000  0.25279000  0.01249000  1
  O  O14  1  0.22454000  0.26485000  0.22548000  1
  O  O15  1  0.07978000  0.28432000  0.72025000  1
  O  O16  1  0.39714000  0.99091000  0.51131000  1
