# generated using pymatgen
data_CuH15C22N3O7F2
_symmetry_space_group_name_H-M   'P 1'
_cell_length_a   12.81140000
_cell_length_b   19.18890000
_cell_length_c   13.44830000
_cell_angle_alpha   89.99480000
_cell_angle_beta   95.44050000
_cell_angle_gamma   83.59400000
_symmetry_Int_Tables_number   1
_chemical_formula_structural   CuH15C22N3O7F2
_chemical_formula_sum   'Cu2 H30 C44 N6 O14 F4'
_cell_volume   3270.45243961
_cell_formula_units_Z   2
loop_
 _symmetry_equiv_pos_site_id
 _symmetry_equiv_pos_as_xyz
  1  'x, y, z'
loop_
 _atom_site_type_symbol
 _atom_site_label
 _atom_site_symmetry_multiplicity
 _atom_site_fract_x
 _atom_site_fract_y
 _atom_site_fract_z
 _atom_site_occupancy
  Cu  Cu1  1  0.14995000  0.15416000  0.08041000  1
  Cu  Cu2  1  0.14998000  0.15416000  0.27600000  1
  H  H1  1  0.56981000  0.20114000  0.49637000  1
  H  H2  1  0.68678000  0.15469000  0.55979000  1
  H  H3  1  0.58915000  0.10514000  0.49812000  1
  H  H4  1  0.61315000  0.15363000  0.79662000  1
  H  H5  1  0.73012000  0.10719000  0.86005000  1
  H  H6  1  0.71077000  0.20319000  0.85829000  1
  H  H7  1  0.83139000  0.15683000  0.31305000  1
  H  H8  1  0.46861000  0.15150000  0.37050000  1
  H  H9  1  0.46852000  0.15150000  0.04337000  1
  H  H10  1  0.83133000  0.15683000  0.98591000  1
  H  H11  1  0.15639000  0.94224000  0.34237000  1
  H  H12  1  0.15340000  0.81014000  0.01496000  1
  H  H13  1  0.14360000  0.36605000  0.34118000  1
  H  H14  1  0.14648000  0.49821000  0.01432000  1
  H  H15  1  0.89042000  0.33096000  0.37619000  1
  H  H16  1  0.97953000  0.33547000  0.48679000  1
  H  H17  1  0.88037000  0.27334000  0.47910000  1
  H  H18  1  0.97029000  0.33307000  0.83737000  1
  H  H19  1  0.88387000  0.32628000  0.93366000  1
  H  H20  1  0.87696000  0.26715000  0.83036000  1
  H  H21  1  0.37245000  0.96056000  0.74317000  1
  H  H22  1  0.32440000  0.96839000  0.86390000  1
  H  H23  1  0.40646000  0.03236000  0.82104000  1
  H  H24  1  0.34865000  0.19562000  0.60447000  1
  H  H25  1  0.41403000  0.14991000  0.71441000  1
  H  H26  1  0.46089000  0.13141000  0.59402000  1
  H  H27  1  0.02037000  0.24008000  0.73260000  1
  H  H28  1  0.02037000  0.24006000  0.60037000  1
  H  H29  1  0.27960000  0.06825000  0.43497000  1
  H  H30  1  0.27954000  0.06826000  0.94490000  1
  C  C1  1  0.62263000  0.15376000  0.31097000  1
  C  C2  1  0.51315000  0.15215000  0.30111000  1
  C  C3  1  0.51312000  0.15215000  0.12079000  1
  C  C4  1  0.62259000  0.15376000  0.13066000  1
  C  C5  1  0.67734000  0.15457000  0.22575000  1
  C  C6  1  0.78681000  0.15618000  0.23562000  1
  C  C7  1  0.78677000  0.15618000  0.05531000  1
  C  C8  1  0.67730000  0.15456000  0.04544000  1
  C  C9  1  0.62804000  0.15383000  0.49382000  1
  C  C10  1  0.67188000  0.15450000  0.86260000  1
  C  C11  1  0.95805000  0.15870000  0.16090000  1
  C  C12  1  0.84154000  0.15698000  0.15039000  1
  C  C13  1  0.34188000  0.14962000  0.19551000  1
  C  C14  1  0.45839000  0.15134000  0.20602000  1
  C  C15  1  0.15572000  0.91260000  0.26889000  1
  C  C16  1  0.15410000  0.83977000  0.26874000  1
  C  C17  1  0.15328000  0.80336000  0.17852000  1
  C  C18  1  0.15406000  0.83979000  0.08843000  1
  C  C19  1  0.15567000  0.91262000  0.08858000  1
  C  C20  1  0.14842000  0.58393000  0.17806000  1
  C  C21  1  0.15153000  0.72439000  0.17834000  1
  C  C22  1  0.14587000  0.46854000  0.26798000  1
  C  C23  1  0.14424000  0.39570000  0.26783000  1
  C  C24  1  0.14422000  0.39573000  0.08751000  1
  C  C25  1  0.14583000  0.46856000  0.08766000  1
  C  C26  1  0.14667000  0.50496000  0.17790000  1
  C  C27  1  0.15822000  0.02653000  0.17896000  1
  C  C28  1  0.15651000  0.94902000  0.17882000  1
  C  C29  1  0.14171000  0.28179000  0.17745000  1
  C  C30  1  0.14342000  0.35930000  0.17760000  1
  C  C31  1  0.07851000  0.20151000  0.88433000  1
  C  C32  1  0.07852000  0.20151000  0.78023000  1
  C  C33  1  0.14996000  0.15417000  0.73465000  1
  C  C34  1  0.22139000  0.10682000  0.79317000  1
  C  C35  1  0.22138000  0.10682000  0.89727000  1
  C  C36  1  0.22141000  0.10681000  0.57619000  1
  C  C37  1  0.22142000  0.10681000  0.47208000  1
  C  C38  1  0.07855000  0.20151000  0.45915000  1
  C  C39  1  0.07854000  0.20151000  0.56325000  1
  C  C40  1  0.14997000  0.15416000  0.62177000  1
  C  C41  1  0.93664000  0.29935000  0.43770000  1
  C  C42  1  0.93134000  0.29566000  0.88048000  1
  C  C43  1  0.34303000  0.99876000  0.79880000  1
  C  C44  1  0.38930000  0.14439000  0.63373000  1
  N  N1  1  0.21047000  0.68399000  0.11656000  1
  N  N2  1  0.20894000  0.61481000  0.11643000  1
  N  N3  1  0.08950000  0.62485000  0.23985000  1
  N  N4  1  0.09104000  0.69404000  0.23999000  1
  N  N5  1  0.14993000  0.15417000  0.94285000  1
  N  N6  1  0.15000000  0.15415000  0.41357000  1
  O  O1  1  0.68159000  0.15462000  0.40547000  1
  O  O2  1  0.61834000  0.15370000  0.95094000  1
  O  O3  1  0.99713000  0.15928000  0.07784000  1
  O  O4  1  0.99716000  0.15928000  0.25101000  1
  O  O5  1  0.30280000  0.14905000  0.27857000  1
  O  O6  1  0.30277000  0.14904000  0.10540000  1
  O  O7  1  0.15881000  0.05254000  0.26560000  1
  O  O8  1  0.15878000  0.05255000  0.09243000  1
  O  O9  1  0.14113000  0.25578000  0.09082000  1
  O  O10  1  0.14114000  0.25577000  0.26399000  1
  O  O11  1  0.00926000  0.24835000  0.39564000  1
  O  O12  1  0.00827000  0.24738000  0.93577000  1
  O  O13  1  0.24976000  0.03958000  0.75431000  1
  O  O14  1  0.32445000  0.08813000  0.62089000  1
  F  F1  1  0.15470000  0.80530000  0.35691000  1
  F  F2  1  0.15622000  0.94793000  0.00123000  1
  F  F3  1  0.14801000  0.50279000  0.35627000  1
  F  F4  1  0.14322000  0.36049000  0.00004000  1
