# generated using pymatgen
data_CuH10C23N3O4F3
_symmetry_space_group_name_H-M   'P 1'
_cell_length_a   14.85350000
_cell_length_b   16.10930000
_cell_length_c   14.18490000
_cell_angle_alpha   76.81390000
_cell_angle_beta   103.14700000
_cell_angle_gamma   83.54710000
_symmetry_Int_Tables_number   1
_chemical_formula_structural   CuH10C23N3O4F3
_chemical_formula_sum   'Cu2 H20 C46 N6 O8 F6'
_cell_volume   3169.38014970
_cell_formula_units_Z   2
loop_
 _symmetry_equiv_pos_site_id
 _symmetry_equiv_pos_as_xyz
  1  'x, y, z'
loop_
 _atom_site_type_symbol
 _atom_site_label
 _atom_site_symmetry_multiplicity
 _atom_site_fract_x
 _atom_site_fract_y
 _atom_site_fract_z
 _atom_site_occupancy
  Cu  Cu1  1  0.19143000  0.13534000  0.06039000  1
  Cu  Cu2  1  0.23974000  0.09069000  0.25771000  1
  H  H1  1  0.70974000  0.16218000  0.81958000  1
  H  H2  1  0.78844000  0.22400000  0.87412000  1
  H  H3  1  0.56358000  0.15990000  0.81943000  1
  H  H4  1  0.49070000  0.21876000  0.87420000  1
  H  H5  1  0.94212000  0.01203000  0.44718000  1
  H  H6  1  0.86223000  0.06861000  0.49693000  1
  H  H7  1  0.73491000  0.00082000  0.49693000  1
  H  H8  1  0.63059000  0.07985000  0.44712000  1
  H  H9  1  0.90154000  0.15433000  0.99403000  1
  H  H10  1  0.44884000  0.14638000  0.99403000  1
  H  H11  1  0.52963000  0.07170000  0.32405000  1
  H  H12  1  0.98233000  0.07965000  0.32407000  1
  H  H13  1  0.17371000  0.57169000  0.99403000  1
  H  H14  1  0.25748000  0.65434000  0.32408000  1
  H  H15  1  0.32338000  0.01334000  0.84960000  1
  H  H16  1  0.43372000  0.91134000  0.59680000  1
  H  H17  1  0.38709000  0.95446000  0.40627000  1
  H  H18  1  0.10779000  0.21269000  0.46850000  1
  H  H19  1  0.99746000  0.31469000  0.72129000  1
  H  H20  1  0.04408000  0.27158000  0.91183000  1
  C  C1  1  0.50525000  0.13029000  0.06809000  1
  C  C2  1  0.54978000  0.08913000  0.25000000  1
  C  C3  1  0.64381000  0.09078000  0.25000000  1
  C  C4  1  0.66857000  0.11219000  0.15905000  1
  C  C5  1  0.59929000  0.13194000  0.06809000  1
  C  C6  1  0.71310000  0.07102000  0.34096000  1
  C  C7  1  0.80714000  0.07267000  0.34096000  1
  C  C8  1  0.83189000  0.09409000  0.25001000  1
  C  C9  1  0.76261000  0.11384000  0.15905000  1
  C  C10  1  0.78736000  0.13525000  0.06809000  1
  C  C11  1  0.71808000  0.15501000  0.97713000  1
  C  C12  1  0.62405000  0.15335000  0.97713000  1
  C  C13  1  0.92592000  0.09574000  0.25001000  1
  C  C14  1  0.88140000  0.13690000  0.06810000  1
  C  C15  1  0.05076000  0.11890000  0.15905000  1
  C  C16  1  0.95068000  0.11715000  0.15905000  1
  C  C17  1  0.38042000  0.10713000  0.15904000  1
  C  C18  1  0.48050000  0.10888000  0.15904000  1
  C  C19  1  0.19415000  0.67695000  0.06809000  1
  C  C20  1  0.19250000  0.59023000  0.06810000  1
  C  C21  1  0.23703000  0.54908000  0.25001000  1
  C  C22  1  0.23868000  0.63580000  0.25000000  1
  C  C23  1  0.21723000  0.69974000  0.15904000  1
  C  C24  1  0.21394000  0.52629000  0.15905000  1
  C  C25  1  0.21216000  0.43226000  0.15906000  1
  C  C26  1  0.21902000  0.79377000  0.15904000  1
  C  C27  1  0.22220000  0.96102000  0.15904000  1
  C  C28  1  0.22044000  0.86873000  0.15903000  1
  C  C29  1  0.20897000  0.26501000  0.15906000  1
  C  C30  1  0.21073000  0.35730000  0.15906000  1
  C  C31  1  0.37344000  0.96708000  0.55404000  1
  C  C32  1  0.34773000  0.99086000  0.44901000  1
  C  C33  1  0.22537000  0.10398000  0.44900000  1
  C  C34  1  0.25107000  0.08021000  0.55403000  1
  C  C35  1  0.32510000  0.01177000  0.60655000  1
  C  C36  1  0.20274000  0.12490000  0.60654000  1
  C  C37  1  0.22844000  0.10114000  0.71156000  1
  C  C38  1  0.30246000  0.03269000  0.76408000  1
  C  C39  1  0.35080000  0.98800000  0.71157000  1
  C  C40  1  0.12871000  0.19334000  0.55402000  1
  C  C41  1  0.08038000  0.23803000  0.60652000  1
  C  C42  1  0.10607000  0.21427000  0.71155000  1
  C  C43  1  0.18010000  0.14582000  0.76407000  1
  C  C44  1  0.05774000  0.25895000  0.76406000  1
  C  C45  1  0.08343000  0.23519000  0.86909000  1
  C  C46  1  0.20580000  0.12206000  0.86910000  1
  N  N1  1  0.74180000  0.18080000  0.88304000  1
  N  N2  1  0.55319000  0.17749000  0.88305000  1
  N  N3  1  0.87721000  0.05075000  0.43511000  1
  N  N4  1  0.68960000  0.04659000  0.43511000  1
  N  N5  1  0.15746000  0.16674000  0.92160000  1
  N  N6  1  0.27371000  0.05929000  0.39649000  1
  O  O1  1  0.06296000  0.13926000  0.07170000  1
  O  O2  1  0.10573000  0.09973000  0.24640000  1
  O  O3  1  0.36821000  0.08679000  0.24640000  1
  O  O4  1  0.32545000  0.12629000  0.07169000  1
  O  O5  1  0.24418000  0.97223000  0.24639000  1
  O  O6  1  0.20141000  0.01176000  0.07169000  1
  O  O7  1  0.18700000  0.25380000  0.07170000  1
  O  O8  1  0.22976000  0.21427000  0.24641000  1
  F  F1  1  0.17324000  0.73833000  0.97946000  1
  F  F2  1  0.25808000  0.48827000  0.33917000  1
  F  F3  1  0.41994000  0.91941000  0.76380000  1
  F  F4  1  0.00622000  0.30192000  0.55430000  1
  F  F5  1  0.17765000  0.18137000  0.38816000  1
  F  F6  1  0.28960000  0.07782000  0.92995000  1
