# generated using pymatgen
data_CuH9C21N5O4F3
_symmetry_space_group_name_H-M   'P 1'
_cell_length_a   14.85350000
_cell_length_b   16.10930000
_cell_length_c   17.66630000
_cell_angle_alpha   90.00440000
_cell_angle_beta   90.00240000
_cell_angle_gamma   83.54710000
_symmetry_Int_Tables_number   1
_chemical_formula_structural   CuH9C21N5O4F3
_chemical_formula_sum   'Cu2 H18 C42 N10 O8 F6'
_cell_volume   4200.40220947
_cell_formula_units_Z   2
loop_
 _symmetry_equiv_pos_site_id
 _symmetry_equiv_pos_as_xyz
  1  'x, y, z'
loop_
 _atom_site_type_symbol
 _atom_site_label
 _atom_site_symmetry_multiplicity
 _atom_site_fract_x
 _atom_site_fract_y
 _atom_site_fract_z
 _atom_site_occupancy
  Cu  Cu1  1  0.22094000  0.11596000  0.07667000  1
  Cu  Cu2  1  0.22095000  0.11596000  0.22556000  1
  H  H1  1  0.79819000  0.08831000  0.89497000  1
  H  H2  1  0.86353000  0.16246000  0.93612000  1
  H  H3  1  0.65206000  0.08600000  0.89486000  1
  H  H4  1  0.56578000  0.15725000  0.93619000  1
  H  H5  1  0.87695000  0.08018000  0.36853000  1
  H  H6  1  0.78489000  0.14801000  0.40606000  1
  H  H7  1  0.65757000  0.08022000  0.40606000  1
  H  H8  1  0.56544000  0.14799000  0.36848000  1
  H  H9  1  0.94729000  0.11993000  0.02660000  1
  H  H10  1  0.49459000  0.11198000  0.02660000  1
  H  H11  1  0.49460000  0.11199000  0.27562000  1
  H  H12  1  0.94730000  0.11994000  0.27563000  1
  H  H13  1  0.21946000  0.53729000  0.02661000  1
  H  H14  1  0.22245000  0.69463000  0.27564000  1
  H  H15  1  0.33194000  0.01334000  0.96459000  1
  H  H16  1  0.10995000  0.21858000  0.82082000  1
  H  H17  1  0.33195000  0.01334000  0.33764000  1
  H  H18  1  0.10995000  0.21858000  0.48141000  1
  C  C1  1  0.53287000  0.11265000  0.08248000  1
  C  C2  1  0.53288000  0.11265000  0.21974000  1
  C  C3  1  0.62691000  0.11431000  0.21974000  1
  C  C4  1  0.67393000  0.11513000  0.15111000  1
  C  C5  1  0.62691000  0.11430000  0.08248000  1
  C  C6  1  0.67393000  0.11513000  0.28837000  1
  C  C7  1  0.76797000  0.11679000  0.28838000  1
  C  C8  1  0.81499000  0.11762000  0.21975000  1
  C  C9  1  0.76797000  0.11679000  0.15112000  1
  C  C10  1  0.81498000  0.11761000  0.08249000  1
  C  C11  1  0.76796000  0.11679000  0.01385000  1
  C  C12  1  0.67393000  0.11513000  0.01385000  1
  C  C13  1  0.90902000  0.11927000  0.21975000  1
  C  C14  1  0.90902000  0.11926000  0.08249000  1
  C  C15  1  0.05612000  0.12185000  0.15112000  1
  C  C16  1  0.95604000  0.12009000  0.15112000  1
  C  C17  1  0.38578000  0.11007000  0.15111000  1
  C  C18  1  0.48586000  0.11182000  0.15111000  1
  C  C19  1  0.22177000  0.65932000  0.08249000  1
  C  C20  1  0.22012000  0.57259000  0.08249000  1
  C  C21  1  0.22013000  0.57261000  0.21975000  1
  C  C22  1  0.22178000  0.65933000  0.21975000  1
  C  C23  1  0.22259000  0.70268000  0.15111000  1
  C  C24  1  0.21930000  0.52924000  0.15112000  1
  C  C25  1  0.21751000  0.43521000  0.15112000  1
  C  C26  1  0.22438000  0.79672000  0.15111000  1
  C  C27  1  0.22756000  0.96396000  0.15111000  1
  C  C28  1  0.22580000  0.87167000  0.15111000  1
  C  C29  1  0.21433000  0.26796000  0.15112000  1
  C  C30  1  0.21609000  0.36025000  0.15113000  1
  C  C31  1  0.28212000  0.05940000  0.93233000  1
  C  C32  1  0.28212000  0.05940000  0.85309000  1
  C  C33  1  0.22095000  0.11596000  0.81346000  1
  C  C34  1  0.15975000  0.17252000  0.85309000  1
  C  C35  1  0.15975000  0.17252000  0.93234000  1
  C  C36  1  0.22095000  0.11597000  0.57470000  1
  C  C37  1  0.22094000  0.11597000  0.72753000  1
  C  C38  1  0.28214000  0.05941000  0.44915000  1
  C  C39  1  0.28213000  0.05940000  0.36990000  1
  C  C40  1  0.15976000  0.17253000  0.36990000  1
  C  C41  1  0.15977000  0.17253000  0.44915000  1
  C  C42  1  0.22096000  0.11597000  0.48877000  1
  N  N1  1  0.81471000  0.12128000  0.94286000  1
  N  N2  1  0.62610000  0.11798000  0.94286000  1
  N  N3  1  0.81500000  0.11617000  0.35942000  1
  N  N4  1  0.62739000  0.11200000  0.35942000  1
  N  N5  1  0.20964000  0.18952000  0.68904000  1
  N  N6  1  0.20965000  0.18952000  0.61376000  1
  N  N7  1  0.23226000  0.04242000  0.61375000  1
  N  N8  1  0.23226000  0.04242000  0.68904000  1
  N  N9  1  0.22094000  0.11595000  0.97195000  1
  N  N10  1  0.22095000  0.11597000  0.33028000  1
  O  O1  1  0.08970000  0.12243000  0.08521000  1
  O  O2  1  0.08971000  0.12244000  0.21703000  1
  O  O3  1  0.35219000  0.10950000  0.21702000  1
  O  O4  1  0.35219000  0.10947000  0.08520000  1
  O  O5  1  0.22816000  0.99494000  0.21702000  1
  O  O6  1  0.22815000  0.99493000  0.08520000  1
  O  O7  1  0.21374000  0.23698000  0.08521000  1
  O  O8  1  0.21373000  0.23699000  0.21703000  1
  F  F1  1  0.22255000  0.70064000  0.01561000  1
  F  F2  1  0.21936000  0.53197000  0.28702000  1
  F  F3  1  0.34270000  0.00482000  0.81571000  1
  F  F4  1  0.10031000  0.22723000  0.97072000  1
  F  F5  1  0.34270000  0.00486000  0.48655000  1
  F  F6  1  0.10036000  0.22725000  0.33154000  1
