# generated using pymatgen
data_CuH18C21N5O6
_symmetry_space_group_name_H-M   'P 1'
_cell_length_a   15.94450000
_cell_length_b   17.01930000
_cell_length_c   14.58630000
_cell_angle_alpha   86.12200000
_cell_angle_beta   90.01450000
_cell_angle_gamma   83.44150000
_symmetry_Int_Tables_number   1
_chemical_formula_structural   CuH18C21N5O6
_chemical_formula_sum   'Cu2 H36 C42 N10 O12'
_cell_volume   3923.16584070
_cell_formula_units_Z   2
loop_
 _symmetry_equiv_pos_site_id
 _symmetry_equiv_pos_as_xyz
  1  'x, y, z'
loop_
 _atom_site_type_symbol
 _atom_site_label
 _atom_site_symmetry_multiplicity
 _atom_site_fract_x
 _atom_site_fract_y
 _atom_site_fract_z
 _atom_site_occupancy
  Cu  Cu1  1  0.17583000  0.22531000  0.99746000  1
  Cu  Cu2  1  0.17586000  0.22530000  0.17778000  1
  H  H1  1  0.60079000  0.05320000  0.05210000  1
  H  H2  1  0.68557000  0.05468000  0.98419000  1
  H  H3  1  0.78267000  0.10852000  0.23443000  1
  H  H4  1  0.78958000  0.05879000  0.13874000  1
  H  H5  1  0.75920000  0.27460000  0.88882000  1
  H  H6  1  0.77318000  0.17515000  0.89660000  1
  H  H7  1  0.55283000  0.38986000  0.02533000  1
  H  H8  1  0.63826000  0.39200000  0.95853000  1
  H  H9  1  0.65380000  0.39017000  0.18203000  1
  H  H10  1  0.74609000  0.34104000  0.21923000  1
  H  H11  1  0.66174000  0.22496000  0.30531000  1
  H  H12  1  0.56951000  0.27374000  0.26752000  1
  H  H13  1  0.12367000  0.92754000  0.37061000  1
  H  H14  1  0.18312000  0.00151000  0.41195000  1
  H  H15  1  0.23926000  0.91386000  0.36978000  1
  H  H16  1  0.30733000  0.79406000  0.87466000  1
  H  H17  1  0.32027000  0.88076000  0.93500000  1
  H  H18  1  0.32356000  0.78429000  0.99726000  1
  H  H19  1  0.11258000  0.53628000  0.80552000  1
  H  H20  1  0.16871000  0.44845000  0.76364000  1
  H  H21  1  0.22811000  0.52261000  0.80475000  1
  H  H22  1  0.02810000  0.66658000  0.17785000  1
  H  H23  1  0.03139000  0.57011000  0.24010000  1
  H  H24  1  0.04427000  0.65682000  0.30045000  1
  H  H25  1  0.18043000  0.98586000  0.95571000  1
  H  H26  1  0.17384000  0.61401000  0.90613000  1
  H  H27  1  0.17125000  0.46475000  0.21953000  1
  H  H28  1  0.17786000  0.83660000  0.26911000  1
  H  H29  1  0.17609000  0.73925000  0.97936000  1
  H  H30  1  0.17562000  0.71135000  0.19588000  1
  H  H31  1  0.29609000  0.11208000  0.43055000  1
  H  H32  1  0.33444000  0.07596000  0.54180000  1
  H  H33  1  0.05561000  0.33854000  0.74470000  1
  H  H34  1  0.01726000  0.37466000  0.63345000  1
  H  H35  1  0.07235000  0.32280000  0.49284000  1
  H  H36  1  0.27936000  0.12781000  0.68241000  1
  C  C1  1  0.70371000  0.22577000  0.00075000  1
  C  C2  1  0.65706000  0.15984000  0.04935000  1
  C  C3  1  0.75830000  0.22667000  0.08751000  1
  C  C4  1  0.63881000  0.28982000  0.03911000  1
  C  C5  1  0.59339000  0.22394000  0.08773000  1
  C  C6  1  0.71289000  0.16071000  0.13611000  1
  C  C7  1  0.69463000  0.29074000  0.12586000  1
  C  C8  1  0.64801000  0.22480000  0.17452000  1
  C  C9  1  0.85330000  0.22825000  0.08738000  1
  C  C10  1  0.49840000  0.22236000  0.08787000  1
  C  C11  1  0.02227000  0.23107000  0.08715000  1
  C  C12  1  0.92902000  0.22951000  0.08727000  1
  C  C13  1  0.32942000  0.21955000  0.08809000  1
  C  C14  1  0.42267000  0.22110000  0.08797000  1
  C  C15  1  0.17986000  0.95237000  0.02604000  1
  C  C16  1  0.17841000  0.87009000  0.03255000  1
  C  C17  1  0.17769000  0.82895000  0.11891000  1
  C  C18  1  0.17844000  0.87010000  0.19879000  1
  C  C19  1  0.17990000  0.95238000  0.19229000  1
  C  C20  1  0.17329000  0.58052000  0.14270000  1
  C  C21  1  0.17183000  0.49824000  0.14920000  1
  C  C22  1  0.17180000  0.49824000  0.98295000  1
  C  C23  1  0.17325000  0.58052000  0.97646000  1
  C  C24  1  0.17401000  0.62166000  0.05633000  1
  C  C25  1  0.17620000  0.74485000  0.12556000  1
  C  C26  1  0.17550000  0.70576000  0.04969000  1
  C  C27  1  0.18182000  0.95714000  0.35985000  1
  C  C28  1  0.29324000  0.82323000  0.93947000  1
  C  C29  1  0.17001000  0.49299000  0.81559000  1
  C  C30  1  0.05841000  0.62757000  0.23564000  1
  C  C31  1  0.18215000  0.08109000  0.09900000  1
  C  C32  1  0.18060000  0.99352000  0.10591000  1
  C  C33  1  0.16954000  0.36953000  0.07624000  1
  C  C34  1  0.17109000  0.45710000  0.06933000  1
  C  C35  1  0.11879000  0.27904000  0.63135000  1
  C  C36  1  0.11880000  0.27904000  0.53537000  1
  C  C37  1  0.23291000  0.17157000  0.54390000  1
  C  C38  1  0.23290000  0.17158000  0.63988000  1
  C  C39  1  0.17584000  0.22531000  0.68360000  1
  C  C40  1  0.17586000  0.22530000  0.49164000  1
  C  C41  1  0.17587000  0.22531000  0.38757000  1
  C  C42  1  0.17582000  0.22531000  0.78767000  1
  N  N1  1  0.62902000  0.08748000  0.00134000  1
  N  N2  1  0.74698000  0.08879000  0.18237000  1
  N  N3  1  0.72783000  0.22423000  0.90047000  1
  N  N4  1  0.59117000  0.35711000  0.98013000  1
  N  N5  1  0.71004000  0.35957000  0.16025000  1
  N  N6  1  0.61026000  0.22167000  0.26196000  1
  N  N7  1  0.29237000  0.11558000  0.50157000  1
  N  N8  1  0.05933000  0.33504000  0.67368000  1
  N  N9  1  0.17582000  0.22531000  0.87063000  1
  N  N10  1  0.17588000  0.22530000  0.30462000  1
  O  O1  1  0.05354000  0.23159000  0.00729000  1
  O  O2  1  0.05357000  0.23159000  0.16694000  1
  O  O3  1  0.29815000  0.21902000  0.16795000  1
  O  O4  1  0.29812000  0.21902000  0.00830000  1
  O  O5  1  0.18106000  0.99711000  0.27052000  1
  O  O6  1  0.20376000  0.83541000  0.95091000  1
  O  O7  1  0.17065000  0.45322000  0.90504000  1
  O  O8  1  0.14790000  0.61545000  0.22426000  1
  O  O9  1  0.18269000  0.11047000  0.17651000  1
  O  O10  1  0.18266000  0.11047000  0.01685000  1
  O  O11  1  0.16900000  0.34014000  0.99873000  1
  O  O12  1  0.16904000  0.34014000  0.15839000  1
