# generated using pymatgen
data_CuH8C21N4(OF)4
_symmetry_space_group_name_H-M   'P 1'
_cell_length_a   14.85350000
_cell_length_b   12.81140000
_cell_length_c   17.66630000
_cell_angle_alpha   84.57030000
_cell_angle_beta   90.00240000
_cell_angle_gamma   83.83600000
_symmetry_Int_Tables_number   1
_chemical_formula_structural   CuH8C21N4(OF)4
_chemical_formula_sum   'Cu2 H16 C42 N8 O8 F8'
_cell_volume   3327.18363781
_cell_formula_units_Z   2
loop_
 _symmetry_equiv_pos_site_id
 _symmetry_equiv_pos_as_xyz
  1  'x, y, z'
loop_
 _atom_site_type_symbol
 _atom_site_label
 _atom_site_symmetry_multiplicity
 _atom_site_fract_x
 _atom_site_fract_y
 _atom_site_fract_z
 _atom_site_occupancy
  Cu  Cu1  1  0.17796000  0.15484000  0.08030000  1
  Cu  Cu2  1  0.17798000  0.15485000  0.22919000  1
  H  H1  1  0.90434000  0.15986000  0.02988000  1
  H  H2  1  0.45159000  0.14982000  0.03057000  1
  H  H3  1  0.45161000  0.14982000  0.27959000  1
  H  H4  1  0.90434000  0.15986000  0.27891000  1
  H  H5  1  0.21130000  0.74799000  0.96523000  1
  H  H6  1  0.16678000  0.63848000  0.93126000  1
  H  H7  1  0.16743000  0.67448000  0.37800000  1
  H  H8  1  0.20760000  0.55218000  0.34491000  1
  H  H9  1  0.18141000  0.83626000  0.05209000  1
  H  H10  1  0.17453000  0.47343000  0.00836000  1
  H  H11  1  0.17453000  0.47341000  0.25738000  1
  H  H12  1  0.18142000  0.83626000  0.30112000  1
  H  H13  1  0.28845000  0.02529000  0.97711000  1
  H  H14  1  0.06748000  0.28439000  0.81555000  1
  H  H15  1  0.28846000  0.02530000  0.35016000  1
  H  H16  1  0.06748000  0.28440000  0.47614000  1
  C  C1  1  0.48988000  0.15066000  0.08640000  1
  C  C2  1  0.48989000  0.15067000  0.22365000  1
  C  C3  1  0.58393000  0.15276000  0.22351000  1
  C  C4  1  0.63095000  0.15380000  0.15481000  1
  C  C5  1  0.58393000  0.15275000  0.08625000  1
  C  C6  1  0.63095000  0.15380000  0.29207000  1
  C  C7  1  0.72500000  0.15589000  0.29193000  1
  C  C8  1  0.77202000  0.15693000  0.22323000  1
  C  C9  1  0.72499000  0.15589000  0.15467000  1
  C  C10  1  0.77201000  0.15693000  0.08597000  1
  C  C11  1  0.72499000  0.15589000  0.01741000  1
  C  C12  1  0.63095000  0.15380000  0.01755000  1
  C  C13  1  0.86606000  0.15902000  0.22309000  1
  C  C14  1  0.86606000  0.15901000  0.08583000  1
  C  C15  1  0.01317000  0.16228000  0.15424000  1
  C  C16  1  0.91308000  0.16006000  0.15439000  1
  C  C17  1  0.34277000  0.14741000  0.15525000  1
  C  C18  1  0.44286000  0.14962000  0.15510000  1
  C  C19  1  0.17745000  0.62747000  0.05368000  1
  C  C20  1  0.17537000  0.51799000  0.06119000  1
  C  C21  1  0.17537000  0.51799000  0.19845000  1
  C  C22  1  0.17745000  0.62747000  0.19094000  1
  C  C23  1  0.17849000  0.68221000  0.11855000  1
  C  C24  1  0.18057000  0.79169000  0.11104000  1
  C  C25  1  0.18058000  0.79169000  0.24830000  1
  C  C26  1  0.17849000  0.68221000  0.25581000  1
  C  C27  1  0.18383000  0.96296000  0.16791000  1
  C  C28  1  0.18161000  0.84644000  0.17591000  1
  C  C29  1  0.17211000  0.34673000  0.14157000  1
  C  C30  1  0.17432000  0.46325000  0.13357000  1
  C  C31  1  0.23886000  0.08344000  0.94086000  1
  C  C32  1  0.23886000  0.08343000  0.86162000  1
  C  C33  1  0.17797000  0.15484000  0.81709000  1
  C  C34  1  0.11706000  0.22624000  0.85181000  1
  C  C35  1  0.11705000  0.22624000  0.93106000  1
  C  C36  1  0.17797000  0.15486000  0.57832000  1
  C  C37  1  0.17797000  0.15485000  0.73116000  1
  C  C38  1  0.23888000  0.08345000  0.45768000  1
  C  C39  1  0.23887000  0.08344000  0.37843000  1
  C  C40  1  0.11707000  0.22626000  0.36863000  1
  C  C41  1  0.11707000  0.22626000  0.44787000  1
  C  C42  1  0.17798000  0.15485000  0.49239000  1
  N  N1  1  0.18193000  0.67823000  0.97783000  1
  N  N2  1  0.18098000  0.63040000  0.33173000  1
  N  N3  1  0.16703000  0.24771000  0.68629000  1
  N  N4  1  0.16704000  0.24771000  0.61101000  1
  N  N5  1  0.18892000  0.06200000  0.62376000  1
  N  N6  1  0.18892000  0.06200000  0.69904000  1
  N  N7  1  0.17796000  0.15484000  0.97558000  1
  N  N8  1  0.17798000  0.15485000  0.33390000  1
  O  O1  1  0.04675000  0.16302000  0.08827000  1
  O  O2  1  0.04676000  0.16302000  0.22009000  1
  O  O3  1  0.30919000  0.14668000  0.22121000  1
  O  O4  1  0.30918000  0.14665000  0.08939000  1
  O  O5  1  0.18458000  0.00206000  0.23114000  1
  O  O6  1  0.18457000  0.00205000  0.09932000  1
  O  O7  1  0.17136000  0.30763000  0.07834000  1
  O  O8  1  0.17136000  0.30763000  0.21016000  1
  F  F1  1  0.58663000  0.15283000  0.35934000  1
  F  F2  1  0.76934000  0.15687000  0.35906000  1
  F  F3  1  0.76931000  0.15685000  0.95015000  1
  F  F4  1  0.58660000  0.15281000  0.95043000  1
  F  F5  1  0.29917000  0.01454000  0.82897000  1
  F  F6  1  0.05788000  0.29532000  0.96470000  1
  F  F7  1  0.29917000  0.01458000  0.49981000  1
  F  F8  1  0.05793000  0.29534000  0.32552000  1
