# generated using pymatgen
data_CuH14C22N7O4F
_symmetry_space_group_name_H-M   'P 1'
_cell_length_a   15.62520000
_cell_length_b   19.18890000
_cell_length_c   14.58630000
_cell_angle_alpha   89.99600000
_cell_angle_beta   71.92890000
_cell_angle_gamma   83.71150000
_symmetry_Int_Tables_number   1
_chemical_formula_structural   CuH14C22N7O4F
_chemical_formula_sum   'Cu2 H28 C44 N14 O8 F2'
_cell_volume   4130.00729596
_cell_formula_units_Z   2
loop_
 _symmetry_equiv_pos_site_id
 _symmetry_equiv_pos_as_xyz
  1  'x, y, z'
loop_
 _atom_site_type_symbol
 _atom_site_label
 _atom_site_symmetry_multiplicity
 _atom_site_fract_x
 _atom_site_fract_y
 _atom_site_fract_z
 _atom_site_occupancy
  Cu  Cu1  1  0.21370000  0.20453000  0.98134000  1
  Cu  Cu2  1  0.21374000  0.20453000  0.16165000  1
  H  H1  1  0.91440000  0.29074000  0.99037000  1
  H  H2  1  0.01849000  0.23826000  0.98127000  1
  H  H3  1  0.64178000  0.18128000  0.40584000  1
  H  H4  1  0.54443000  0.21466000  0.37589000  1
  H  H5  1  0.40908000  0.17044000  0.16154000  1
  H  H6  1  0.51331000  0.11797000  0.15205000  1
  H  H7  1  0.87964000  0.21356000  0.76733000  1
  H  H8  1  0.79366000  0.17495000  0.73703000  1
  H  H9  1  0.88429000  0.20705000  0.93166000  1
  H  H10  1  0.65791000  0.20371000  0.77300000  1
  H  H11  1  0.48734000  0.20120000  0.82973000  1
  H  H12  1  0.54316000  0.20201000  0.21132000  1
  H  H13  1  0.76953000  0.20536000  0.36998000  1
  H  H14  1  0.94011000  0.20787000  0.31327000  1
  H  H15  1  0.21722000  0.05493000  0.90086000  1
  H  H16  1  0.21601000  0.97416000  0.83957000  1
  H  H17  1  0.24935000  0.80257000  0.23470000  1
  H  H18  1  0.21172000  0.88323000  0.30239000  1
  H  H19  1  0.24510000  0.59989000  0.23606000  1
  H  H20  1  0.20489000  0.52695000  0.30463000  1
  H  H21  1  0.20392000  0.35485000  0.90521000  1
  H  H22  1  0.20578000  0.43555000  0.84295000  1
  H  H23  1  0.21924000  0.99260000  0.22048000  1
  H  H24  1  0.21667000  0.86051000  0.91972000  1
  H  H25  1  0.20826000  0.41644000  0.22409000  1
  H  H26  1  0.21072000  0.54859000  0.92167000  1
  H  H27  1  0.10243000  0.29072000  0.52141000  1
  H  H28  1  0.32503000  0.11835000  0.62158000  1
  C  C1  1  0.61965000  0.20315000  0.85341000  1
  C  C2  1  0.52562000  0.20176000  0.88469000  1
  C  C3  1  0.52565000  0.20176000  0.05091000  1
  C  C4  1  0.61968000  0.20315000  0.01964000  1
  C  C5  1  0.66666667  0.20384000  0.92089000  1
  C  C6  1  0.66666667  0.20384000  0.08712000  1
  C  C7  1  0.76073000  0.20523000  0.05586000  1
  C  C8  1  0.80773000  0.20592000  0.95712000  1
  C  C9  1  0.76070000  0.20523000  0.88963000  1
  C  C10  1  0.61972000  0.20314000  0.18587000  1
  C  C11  1  0.66674000  0.20384000  0.25336000  1
  C  C12  1  0.76077000  0.20523000  0.22209000  1
  C  C13  1  0.80776000  0.20592000  0.12335000  1
  C  C14  1  0.80780000  0.20592000  0.28958000  1
  C  C15  1  0.90182000  0.20731000  0.25832000  1
  C  C16  1  0.90179000  0.20731000  0.09209000  1
  C  C17  1  0.04888000  0.20948000  0.12630000  1
  C  C18  1  0.94881000  0.20800000  0.15957000  1
  C  C19  1  0.37856000  0.19959000  0.01669000  1
  C  C20  1  0.47863000  0.20107000  0.98342000  1
  C  C21  1  0.21867000  0.96296000  0.15298000  1
  C  C22  1  0.21727000  0.89013000  0.15344000  1
  C  C23  1  0.21657000  0.85373000  0.07056000  1
  C  C24  1  0.21723000  0.89015000  0.98721000  1
  C  C25  1  0.21862000  0.96298000  0.98675000  1
  C  C26  1  0.21239000  0.63430000  0.07193000  1
  C  C27  1  0.21506000  0.77476000  0.07104000  1
  C  C28  1  0.21021000  0.51892000  0.15577000  1
  C  C29  1  0.20881000  0.44609000  0.15623000  1
  C  C30  1  0.20878000  0.44611000  0.98999000  1
  C  C31  1  0.21017000  0.51894000  0.98954000  1
  C  C32  1  0.21089000  0.55534000  0.07243000  1
  C  C33  1  0.22081000  0.07689000  0.06915000  1
  C  C34  1  0.21934000  0.99938000  0.06964000  1
  C  C35  1  0.20663000  0.33218000  0.07384000  1
  C  C36  1  0.20810000  0.40969000  0.07334000  1
  C  C37  1  0.15236000  0.25203000  0.63986000  1
  C  C38  1  0.15238000  0.25203000  0.54388000  1
  C  C39  1  0.27508000  0.15703000  0.50313000  1
  C  C40  1  0.27507000  0.15703000  0.59911000  1
  C  C41  1  0.21371000  0.20453000  0.66748000  1
  C  C42  1  0.21373000  0.20453000  0.47551000  1
  C  C43  1  0.21374000  0.20453000  0.37144000  1
  C  C44  1  0.21370000  0.20454000  0.77155000  1
  N  N1  1  0.94796000  0.24627000  0.01096000  1
  N  N2  1  0.61486000  0.20297000  0.35385000  1
  N  N3  1  0.47961000  0.16249000  0.13179000  1
  N  N4  1  0.81339000  0.20028000  0.78908000  1
  N  N5  1  0.26568000  0.73424000  0.99235000  1
  N  N6  1  0.26437000  0.66505000  0.99279000  1
  N  N7  1  0.16179000  0.67535000  0.15062000  1
  N  N8  1  0.16311000  0.74454000  0.15018000  1
  N  N9  1  0.21632000  0.00061000  0.90205000  1
  N  N10  1  0.22204000  0.85488000  0.23795000  1
  N  N11  1  0.21617000  0.55313000  0.23986000  1
  N  N12  1  0.20509000  0.40914000  0.90571000  1
  N  N13  1  0.21369000  0.20454000  0.85451000  1
  N  N14  1  0.21375000  0.20453000  0.28848000  1
  O  O1  1  0.08245000  0.20997000  0.03531000  1
  O  O2  1  0.08248000  0.20997000  0.19496000  1
  O  O3  1  0.34499000  0.19909000  0.10768000  1
  O  O4  1  0.34496000  0.19910000  0.94803000  1
  O  O5  1  0.22132000  0.10290000  0.14880000  1
  O  O6  1  0.22129000  0.10290000  0.98916000  1
  O  O7  1  0.20613000  0.30617000  0.99418000  1
  O  O8  1  0.20615000  0.30617000  0.15383000  1
  F  F1  1  0.09258000  0.29832000  0.70546000  1
  F  F2  1  0.33522000  0.11047000  0.43817000  1
