# generated using pymatgen
data_CuH14C25NO4
_symmetry_space_group_name_H-M   'P 1'
_cell_length_a   14.97150000
_cell_length_b   15.62520000
_cell_length_c   14.18490000
_cell_angle_alpha   94.26840000
_cell_angle_beta   103.14400000
_cell_angle_gamma   83.93920000
_symmetry_Int_Tables_number   1
_chemical_formula_structural   CuH14C25NO4
_chemical_formula_sum   'Cu2 H28 C50 N2 O8'
_cell_volume   3208.95677544
_cell_formula_units_Z   2
loop_
 _symmetry_equiv_pos_site_id
 _symmetry_equiv_pos_as_xyz
  1  'x, y, z'
loop_
 _atom_site_type_symbol
 _atom_site_label
 _atom_site_symmetry_multiplicity
 _atom_site_fract_x
 _atom_site_fract_y
 _atom_site_fract_z
 _atom_site_occupancy
  Cu  Cu1  1  0.12248000  0.21111000  0.06498000  1
  Cu  Cu2  1  0.16641000  0.16666000  0.24613000  1
  H  H1  1  0.91004000  0.15569000  0.30851000  1
  H  H2  1  0.74053000  0.15276000  0.30744000  1
  H  H3  1  0.62184000  0.15067000  0.30667000  1
  H  H4  1  0.45232000  0.14773000  0.30560000  1
  H  H5  1  0.37885000  0.22208000  0.00260000  1
  H  H6  1  0.54836000  0.22503000  0.00368000  1
  H  H7  1  0.66705000  0.22711000  0.00445000  1
  H  H8  1  0.83657000  0.23005000  0.00552000  1
  H  H9  1  0.16330000  0.90050000  0.21566000  1
  H  H10  1  0.18173000  0.82503000  0.29604000  1
  H  H11  1  0.20996000  0.70952000  0.41905000  1
  H  H12  1  0.21612000  0.55954000  0.45543000  1
  H  H13  1  0.19907000  0.40293000  0.39844000  1
  H  H14  1  0.12559000  0.47727000  0.09545000  1
  H  H15  1  0.10715000  0.55276000  0.01507000  1
  H  H16  1  0.07893000  0.66824000  0.89207000  1
  H  H17  1  0.07278000  0.81823000  0.85568000  1
  H  H18  1  0.08982000  0.97485000  0.91266000  1
  H  H19  1  0.19037000  0.14240000  0.89145000  1
  H  H20  1  0.24248000  0.08965000  0.81001000  1
  H  H21  1  0.32225000  0.00893000  0.68537000  1
  H  H22  1  0.34284000  0.98810000  0.52027000  1
  H  H23  1  0.30043000  0.03103000  0.34535000  1
  H  H24  1  0.09852000  0.23538000  0.41965000  1
  H  H25  1  0.04640000  0.28812000  0.50111000  1
  H  H26  1  0.96665000  0.36884000  0.62573000  1
  H  H27  1  0.94606000  0.38967000  0.79084000  1
  H  H28  1  0.98845000  0.34675000  0.96577000  1
  C  C1  1  0.85552000  0.17172000  0.24027000  1
  C  C2  1  0.76207000  0.17010000  0.23968000  1
  C  C3  1  0.69510000  0.18977000  0.15588000  1
  C  C4  1  0.72158000  0.21108000  0.07268000  1
  C  C5  1  0.81503000  0.21271000  0.07327000  1
  C  C6  1  0.52682000  0.20768000  0.07144000  1
  C  C7  1  0.43337000  0.20605000  0.07084000  1
  C  C8  1  0.47387000  0.16507000  0.23784000  1
  C  C9  1  0.56731000  0.16670000  0.23844000  1
  C  C10  1  0.59378000  0.18801000  0.15523000  1
  C  C11  1  0.98144000  0.19476000  0.15770000  1
  C  C12  1  0.88199000  0.19303000  0.15707000  1
  C  C13  1  0.30745000  0.18301000  0.15341000  1
  C  C14  1  0.40690000  0.18475000  0.15404000  1
  C  C15  1  0.19580000  0.54109000  0.37465000  1
  C  C16  1  0.18641000  0.45476000  0.34322000  1
  C  C17  1  0.14590000  0.49573000  0.17623000  1
  C  C18  1  0.15530000  0.58207000  0.20764000  1
  C  C19  1  0.18025000  0.60474000  0.30685000  1
  C  C20  1  0.13975000  0.64572000  0.13985000  1
  C  C21  1  0.14914000  0.73205000  0.17126000  1
  C  C22  1  0.17409000  0.75473000  0.27046000  1
  C  C23  1  0.18964000  0.69107000  0.33826000  1
  C  C24  1  0.11480000  0.62305000  0.04064000  1
  C  C25  1  0.09925000  0.68671000  0.97285000  1
  C  C26  1  0.10864000  0.77304000  0.00426000  1
  C  C27  1  0.13359000  0.79571000  0.10346000  1
  C  C28  1  0.09309000  0.83670000  0.93646000  1
  C  C29  1  0.10248000  0.92303000  0.96787000  1
  C  C30  1  0.14298000  0.88204000  0.13487000  1
  C  C31  1  0.13742000  0.03758000  0.10051000  1
  C  C32  1  0.12743000  0.94569000  0.06708000  1
  C  C33  1  0.15146000  0.34020000  0.21061000  1
  C  C34  1  0.16146000  0.43208000  0.24403000  1
  C  C35  1  0.28801000  0.04360000  0.49770000  1
  C  C36  1  0.26463000  0.06727000  0.40128000  1
  C  C37  1  0.15335000  0.17989000  0.44223000  1
  C  C38  1  0.17672000  0.15623000  0.53866000  1
  C  C39  1  0.24405000  0.08808000  0.56638000  1
  C  C40  1  0.13276000  0.20072000  0.60735000  1
  C  C41  1  0.15613000  0.17706000  0.70377000  1
  C  C42  1  0.22346000  0.10891000  0.73150000  1
  C  C43  1  0.26742000  0.06442000  0.66280000  1
  C  C44  1  0.06543000  0.26886000  0.57962000  1
  C  C45  1  0.02147000  0.31335000  0.64831000  1
  C  C46  1  0.04484000  0.28970000  0.74473000  1
  C  C47  1  0.11217000  0.22155000  0.77246000  1
  C  C48  1  0.00088000  0.33418000  0.81342000  1
  C  C49  1  0.02425000  0.31053000  0.90984000  1
  C  C50  1  0.13554000  0.19789000  0.86888000  1
  N  N1  1  0.09158000  0.24238000  0.93757000  1
  N  N2  1  0.19731000  0.13540000  0.37354000  1
  O  O1  1  0.99536000  0.21502000  0.07772000  1
  O  O2  1  0.03426000  0.17567000  0.23810000  1
  O  O3  1  0.29353000  0.16275000  0.23339000  1
  O  O4  1  0.25463000  0.20211000  0.07301000  1
  O  O5  1  0.16023000  0.04873000  0.19192000  1
  O  O6  1  0.12133000  0.08809000  0.03153000  1
  O  O7  1  0.12866000  0.32905000  0.11919000  1
  O  O8  1  0.16756000  0.28969000  0.27958000  1
