# generated using pymatgen
data_CuH9C17N2O5F
_symmetry_space_group_name_H-M   'P 1'
_cell_length_a   12.81140000
_cell_length_b   16.10930000
_cell_length_c   14.58630000
_cell_angle_alpha   90.00240000
_cell_angle_beta   95.44210000
_cell_angle_gamma   83.75590000
_symmetry_Int_Tables_number   1
_chemical_formula_structural   CuH9C17N2O5F
_chemical_formula_sum   'Cu2 H18 C34 N4 O10 F2'
_cell_volume   2978.85185179
_cell_formula_units_Z   2
loop_
 _symmetry_equiv_pos_site_id
 _symmetry_equiv_pos_as_xyz
  1  'x, y, z'
loop_
 _atom_site_type_symbol
 _atom_site_label
 _atom_site_symmetry_multiplicity
 _atom_site_fract_x
 _atom_site_fract_y
 _atom_site_fract_z
 _atom_site_occupancy
  Cu  Cu1  1  0.18580000  0.14221000  0.06698000  1
  Cu  Cu2  1  0.18584000  0.14221000  0.24731000  1
  H  H1  1  0.77896000  0.17296000  0.38667000  1
  H  H2  1  0.66954000  0.13190000  0.42783000  1
  H  H3  1  0.70541000  0.13248000  0.88674000  1
  H  H4  1  0.58306000  0.16953000  0.92682000  1
  H  H5  1  0.86726000  0.14539000  0.28147000  1
  H  H6  1  0.50446000  0.13905000  0.33444000  1
  H  H7  1  0.50436000  0.13903000  0.03283000  1
  H  H8  1  0.86719000  0.14538000  0.97985000  1
  H  H9  1  0.18406000  0.56355000  0.00620000  1
  H  H10  1  0.18759000  0.72088000  0.30810000  1
  H  H11  1  0.35914000  0.92875000  0.65971000  1
  H  H12  1  0.45547000  0.00502000  0.66774000  1
  H  H13  1  0.44843000  0.93433000  0.57268000  1
  H  H14  1  0.91617000  0.27940000  0.64655000  1
  H  H15  1  0.01250000  0.35567000  0.65458000  1
  H  H16  1  0.92321000  0.35009000  0.74161000  1
  H  H17  1  0.05661000  0.24452000  0.55932000  1
  H  H18  1  0.31505000  0.03991000  0.75497000  1
  C  C1  1  0.65848000  0.14174000  0.27955000  1
  C  C2  1  0.54900000  0.13982000  0.27045000  1
  C  C3  1  0.54896000  0.13981000  0.10421000  1
  C  C4  1  0.65844000  0.14173000  0.11331000  1
  C  C5  1  0.71319000  0.14270000  0.20098000  1
  C  C6  1  0.82268000  0.14461000  0.21008000  1
  C  C7  1  0.82263000  0.14461000  0.04383000  1
  C  C8  1  0.71315000  0.14269000  0.03473000  1
  C  C9  1  0.99392000  0.14762000  0.14119000  1
  C  C10  1  0.87740000  0.14557000  0.13150000  1
  C  C11  1  0.37772000  0.13681000  0.17310000  1
  C  C12  1  0.49424000  0.13885000  0.18279000  1
  C  C13  1  0.18676000  0.68557000  0.07410000  1
  C  C14  1  0.18485000  0.59884000  0.07395000  1
  C  C15  1  0.18488000  0.59886000  0.24019000  1
  C  C16  1  0.18680000  0.68558000  0.24035000  1
  C  C17  1  0.18774000  0.72894000  0.15730000  1
  C  C18  1  0.18390000  0.55548000  0.15699000  1
  C  C19  1  0.18182000  0.46145000  0.15682000  1
  C  C20  1  0.18982000  0.82298000  0.15747000  1
  C  C21  1  0.19352000  0.99023000  0.15778000  1
  C  C22  1  0.19147000  0.89793000  0.15760000  1
  C  C23  1  0.17811000  0.29419000  0.15651000  1
  C  C24  1  0.18016000  0.38649000  0.15668000  1
  C  C25  1  0.11459000  0.19860000  0.69920000  1
  C  C26  1  0.11460000  0.19860000  0.60322000  1
  C  C27  1  0.25706000  0.08582000  0.61510000  1
  C  C28  1  0.25705000  0.08583000  0.71107000  1
  C  C29  1  0.18581000  0.14221000  0.75312000  1
  C  C30  1  0.18583000  0.14221000  0.56116000  1
  C  C31  1  0.18585000  0.14221000  0.45710000  1
  C  C32  1  0.18579000  0.14221000  0.85720000  1
  C  C33  1  0.40084000  0.97200000  0.62068000  1
  C  C34  1  0.97080000  0.31242000  0.69361000  1
  N  N1  1  0.70925000  0.14588000  0.37141000  1
  N  N2  1  0.66132000  0.14498000  0.94278000  1
  N  N3  1  0.18578000  0.14222000  0.94015000  1
  N  N4  1  0.18586000  0.14221000  0.37414000  1
  O  O1  1  0.03300000  0.14831000  0.06461000  1
  O  O2  1  0.03303000  0.14830000  0.22427000  1
  O  O3  1  0.33863000  0.13612000  0.24968000  1
  O  O4  1  0.33860000  0.13612000  0.09002000  1
  O  O5  1  0.19423000  0.02121000  0.23766000  1
  O  O6  1  0.19419000  0.02121000  0.07801000  1
  O  O7  1  0.17742000  0.26321000  0.07662000  1
  O  O8  1  0.17743000  0.26321000  0.23628000  1
  O  O9  1  0.32688000  0.03055000  0.56832000  1
  O  O10  1  0.04476000  0.25387000  0.74597000  1
  F  F1  1  0.18767000  0.72690000  0.99318000  1
  F  F2  1  0.18399000  0.55821000  0.32160000  1
