# generated using pymatgen
data_CuH9C20N4O4F5
_symmetry_space_group_name_H-M   'P 1'
_cell_length_a   15.94450000
_cell_length_b   17.01930000
_cell_length_c   14.42150000
_cell_angle_alpha   86.12820000
_cell_angle_beta   90.01100000
_cell_angle_gamma   83.44150000
_symmetry_Int_Tables_number   1
_chemical_formula_structural   CuH9C20N4O4F5
_chemical_formula_sum   'Cu2 H18 C40 N8 O8 F10'
_cell_volume   3878.87157547
_cell_formula_units_Z   2
loop_
 _symmetry_equiv_pos_site_id
 _symmetry_equiv_pos_as_xyz
  1  'x, y, z'
loop_
 _atom_site_type_symbol
 _atom_site_label
 _atom_site_symmetry_multiplicity
 _atom_site_fract_x
 _atom_site_fract_y
 _atom_site_fract_z
 _atom_site_occupancy
  Cu  Cu1  1  0.20856000  0.17418000  0.01273000  1
  Cu  Cu2  1  0.20857000  0.17420000  0.19511000  1
  H  H1  1  0.63351000  0.00208000  0.06799000  1
  H  H2  1  0.71829000  0.00355000  0.99930000  1
  H  H3  1  0.81538000  0.05742000  0.25241000  1
  H  H4  1  0.82230000  0.00768000  0.15562000  1
  H  H5  1  0.79193000  0.22347000  0.90285000  1
  H  H6  1  0.80591000  0.12401000  0.91072000  1
  H  H7  1  0.58555000  0.33873000  0.04091000  1
  H  H8  1  0.67099000  0.34087000  0.97335000  1
  H  H9  1  0.68651000  0.33907000  0.19941000  1
  H  H10  1  0.77880000  0.28993000  0.23703000  1
  H  H11  1  0.69445000  0.17387000  0.32409000  1
  H  H12  1  0.60221000  0.22265000  0.28587000  1
  H  H13  1  0.21316000  0.93473000  0.97051000  1
  H  H14  1  0.20657000  0.56288000  0.92036000  1
  H  H15  1  0.20396000  0.41365000  0.23734000  1
  H  H16  1  0.21057000  0.78550000  0.28748000  1
  H  H17  1  0.20881000  0.68813000  0.99443000  1
  H  H18  1  0.20833000  0.66024000  0.21342000  1
  C  C1  1  0.73644000  0.17465000  0.01606000  1
  C  C2  1  0.68978000  0.10872000  0.06521000  1
  C  C3  1  0.79102000  0.17556000  0.10380000  1
  C  C4  1  0.67153000  0.23870000  0.05486000  1
  C  C5  1  0.62611000  0.17282000  0.10403000  1
  C  C6  1  0.74561000  0.10960000  0.15296000  1
  C  C7  1  0.72735000  0.23963000  0.14259000  1
  C  C8  1  0.68073000  0.17369000  0.19181000  1
  C  C9  1  0.88602000  0.17713000  0.10367000  1
  C  C10  1  0.53112000  0.17124000  0.10417000  1
  C  C11  1  0.05499000  0.17995000  0.10345000  1
  C  C12  1  0.96174000  0.17839000  0.10356000  1
  C  C13  1  0.36214000  0.16843000  0.10439000  1
  C  C14  1  0.45539000  0.16999000  0.10427000  1
  C  C15  1  0.21258000  0.90125000  0.04164000  1
  C  C16  1  0.21113000  0.81897000  0.04821000  1
  C  C17  1  0.21041000  0.77784000  0.13557000  1
  C  C18  1  0.21115000  0.81900000  0.21635000  1
  C  C19  1  0.21261000  0.90128000  0.20978000  1
  C  C20  1  0.20601000  0.52941000  0.15963000  1
  C  C21  1  0.20455000  0.44713000  0.16620000  1
  C  C22  1  0.20453000  0.44711000  0.99806000  1
  C  C23  1  0.20598000  0.52939000  0.99149000  1
  C  C24  1  0.20673000  0.57054000  0.07227000  1
  C  C25  1  0.20892000  0.69374000  0.14229000  1
  C  C26  1  0.20822000  0.65464000  0.06555000  1
  C  C27  1  0.21487000  0.02997000  0.11543000  1
  C  C28  1  0.21332000  0.94240000  0.12242000  1
  C  C29  1  0.20226000  0.31841000  0.09241000  1
  C  C30  1  0.20381000  0.40598000  0.08542000  1
  C  C31  1  0.26817000  0.11806000  0.63931000  1
  C  C32  1  0.19223000  0.10293000  0.57867000  1
  C  C33  1  0.20856000  0.17418000  0.69528000  1
  C  C34  1  0.28450000  0.18929000  0.57183000  1
  C  C35  1  0.20857000  0.17419000  0.51256000  1
  C  C36  1  0.13259000  0.15902000  0.63601000  1
  C  C37  1  0.22491000  0.24540000  0.62917000  1
  C  C38  1  0.14892000  0.23031000  0.56856000  1
  C  C39  1  0.20855000  0.17418000  0.80054000  1
  C  C40  1  0.20857000  0.17420000  0.40730000  1
  N  N1  1  0.66174000  0.03635000  0.01665000  1
  N  N2  1  0.77969000  0.03769000  0.19975000  1
  N  N3  1  0.76056000  0.17310000  0.91463000  1
  N  N4  1  0.62390000  0.30598000  0.99520000  1
  N  N5  1  0.74275000  0.30846000  0.17738000  1
  N  N6  1  0.64297000  0.17057000  0.28025000  1
  N  N7  1  0.20855000  0.17417000  0.88445000  1
  N  N8  1  0.20858000  0.17421000  0.32339000  1
  O  O1  1  0.08627000  0.18047000  0.02267000  1
  O  O2  1  0.08629000  0.18048000  0.18415000  1
  O  O3  1  0.33086000  0.16792000  0.18517000  1
  O  O4  1  0.33085000  0.16790000  0.02369000  1
  O  O5  1  0.21540000  0.05936000  0.19382000  1
  O  O6  1  0.21539000  0.05935000  0.03234000  1
  O  O7  1  0.20172000  0.28902000  0.01401000  1
  O  O8  1  0.20175000  0.28903000  0.17549000  1
  F  F1  1  0.18931000  0.79140000  0.96656000  1
  F  F2  1  0.21313000  0.94117000  0.28800000  1
  F  F3  1  0.22788000  0.55698000  0.24128000  1
  F  F4  1  0.20400000  0.40721000  0.91984000  1
  F  F5  1  0.17550000  0.02991000  0.55149000  1
  F  F6  1  0.36236000  0.20481000  0.53773000  1
  F  F7  1  0.08785000  0.28785000  0.53102000  1
  F  F8  1  0.32925000  0.06052000  0.67682000  1
  F  F9  1  0.24169000  0.31845000  0.65628000  1
  F  F10  1  0.05475000  0.14347000  0.67019000  1
