# generated using pymatgen
data_CuH15C20NO7F2
_symmetry_space_group_name_H-M   'P 1'
_cell_length_a   15.99530000
_cell_length_b   12.81140000
_cell_length_c   14.58630000
_cell_angle_alpha   84.56820000
_cell_angle_beta   90.01520000
_cell_angle_gamma   83.76410000
_symmetry_Int_Tables_number   1
_chemical_formula_structural   CuH15C20NO7F2
_chemical_formula_sum   'Cu2 H30 C40 N2 O14 F4'
_cell_volume   2957.85981828
_cell_formula_units_Z   2
loop_
 _symmetry_equiv_pos_site_id
 _symmetry_equiv_pos_as_xyz
  1  'x, y, z'
loop_
 _atom_site_type_symbol
 _atom_site_label
 _atom_site_symmetry_multiplicity
 _atom_site_fract_x
 _atom_site_fract_y
 _atom_site_fract_z
 _atom_site_occupancy
  Cu  Cu1  1  0.29307000  0.11961000  0.98604000  1
  Cu  Cu2  1  0.29310000  0.11960000  0.16637000  1
  H  H1  1  0.63873000  0.90494000  0.20848000  1
  H  H2  1  0.67417000  0.91332000  0.32413000  1
  H  H3  1  0.74450000  0.84888000  0.24599000  1
  H  H4  1  0.95328000  0.92520000  0.32598000  1
  H  H5  1  0.99118000  0.91751000  0.21069000  1
  H  H6  1  0.89835000  0.85475000  0.24874000  1
  H  H7  1  0.66761000  0.98614000  0.81870000  1
  H  H8  1  0.71986000  0.10342000  0.80107000  1
  H  H9  1  0.61898000  0.10560000  0.85991000  1
  H  H10  1  0.94784000  0.98889000  0.82207000  1
  H  H11  1  0.97233000  0.10926000  0.86430000  1
  H  H12  1  0.87422000  0.10487000  0.80138000  1
  H  H13  1  0.62061000  0.44852000  0.08918000  1
  H  H14  1  0.69103000  0.39902000  0.18297000  1
  H  H15  1  0.59648000  0.33590000  0.16319000  1
  H  H16  1  0.90021000  0.45433000  0.07563000  1
  H  H17  1  0.94911000  0.34420000  0.14909000  1
  H  H18  1  0.84463000  0.40614000  0.17492000  1
  H  H19  1  0.85783000  0.19300000  0.93047000  1
  H  H20  1  0.71410000  0.19024000  0.93046000  1
  H  H21  1  0.74017000  0.94292000  0.10467000  1
  H  H22  1  0.88363000  0.94651000  0.10583000  1
  H  H23  1  0.85510000  0.22781000  0.18993000  1
  H  H24  1  0.71201000  0.21793000  0.19331000  1
  H  H25  1  0.29627000  0.80102000  0.95188000  1
  H  H26  1  0.28987000  0.43821000  0.89891000  1
  H  H27  1  0.28990000  0.43817000  0.20052000  1
  H  H28  1  0.29631000  0.80101000  0.25349000  1
  H  H29  1  0.19048000  0.24933000  0.47833000  1
  H  H30  1  0.39570000  0.98987000  0.67409000  1
  C  C1  1  0.70930000  0.11775000  0.07637000  1
  C  C2  1  0.74462000  0.11893000  0.97582000  1
  C  C3  1  0.84135000  0.12067000  0.97562000  1
  C  C4  1  0.87687000  0.12146000  0.07604000  1
  C  C5  1  0.85189000  0.02051000  0.13432000  1
  C  C6  1  0.75518000  0.01829000  0.13386000  1
  C  C7  1  0.73494000  0.21776000  0.11933000  1
  C  C8  1  0.83154000  0.22122000  0.11716000  1
  C  C9  1  0.97157000  0.12355000  0.07586000  1
  C  C10  1  0.61459000  0.11565000  0.07655000  1
  C  C11  1  0.69429000  0.91519000  0.25131000  1
  C  C12  1  0.93347000  0.92437000  0.25317000  1
  C  C13  1  0.68038000  0.05859000  0.84984000  1
  C  C14  1  0.92036000  0.06107000  0.85206000  1
  C  C15  1  0.64861000  0.37563000  0.12993000  1
  C  C16  1  0.88794000  0.38205000  0.11934000  1
  C  C17  1  0.14003000  0.12728000  0.07555000  1
  C  C18  1  0.04707000  0.12522000  0.07571000  1
  C  C19  1  0.44614000  0.11192000  0.07686000  1
  C  C20  1  0.53910000  0.11399000  0.07669000  1
  C  C21  1  0.29259000  0.59224000  0.95380000  1
  C  C22  1  0.29066000  0.48276000  0.96289000  1
  C  C23  1  0.29067000  0.48275000  0.12914000  1
  C  C24  1  0.29261000  0.59223000  0.12004000  1
  C  C25  1  0.29356000  0.64697000  0.03237000  1
  C  C26  1  0.29549000  0.75645000  0.02327000  1
  C  C27  1  0.29552000  0.75644000  0.18951000  1
  C  C28  1  0.29358000  0.64696000  0.19861000  1
  C  C29  1  0.29853000  0.92771000  0.09216000  1
  C  C30  1  0.29647000  0.81119000  0.10185000  1
  C  C31  1  0.28764000  0.31150000  0.06025000  1
  C  C32  1  0.28970000  0.42802000  0.05056000  1
  C  C33  1  0.23652000  0.19110000  0.61823000  1
  C  C34  1  0.23653000  0.19110000  0.52225000  1
  C  C35  1  0.34965000  0.04810000  0.53419000  1
  C  C36  1  0.34964000  0.04811000  0.63016000  1
  C  C37  1  0.29307000  0.11961000  0.67218000  1
  C  C38  1  0.29309000  0.11960000  0.48022000  1
  C  C39  1  0.29311000  0.11960000  0.37616000  1
  C  C40  1  0.29306000  0.11961000  0.77626000  1
  N  N1  1  0.29305000  0.11961000  0.85921000  1
  N  N2  1  0.29311000  0.11960000  0.29320000  1
  O  O1  1  0.72428000  0.01323000  0.22561000  1
  O  O2  1  0.88239000  0.01912000  0.22623000  1
  O  O3  1  0.72233000  0.02901000  0.93492000  1
  O  O4  1  0.88088000  0.03111000  0.93544000  1
  O  O5  1  0.69335000  0.31015000  0.06997000  1
  O  O6  1  0.85165000  0.31406000  0.06397000  1
  O  O7  1  0.17121000  0.12798000  0.99567000  1
  O  O8  1  0.17123000  0.12797000  0.15532000  1
  O  O9  1  0.41499000  0.11092000  0.15676000  1
  O  O10  1  0.41490000  0.11154000  0.99706000  1
  O  O11  1  0.29923000  0.96680000  0.16874000  1
  O  O12  1  0.29921000  0.96681000  0.00908000  1
  O  O13  1  0.28694000  0.27240000  0.98367000  1
  O  O14  1  0.28695000  0.27240000  0.14333000  1
  F  F1  1  0.29348000  0.64362000  0.86805000  1
  F  F2  1  0.29270000  0.59559000  0.28435000  1
  F  F3  1  0.18140000  0.26078000  0.65815000  1
  F  F4  1  0.40510000  0.97801000  0.49505000  1
