# generated using pymatgen
data_CuH14C21N6(OF)4
_symmetry_space_group_name_H-M   'P 1'
_cell_length_a   15.99530000
_cell_length_b   17.01930000
_cell_length_c   17.66630000
_cell_angle_alpha   86.12410000
_cell_angle_beta   90.00860000
_cell_angle_gamma   83.43720000
_symmetry_Int_Tables_number   1
_chemical_formula_structural   CuH14C21N6(OF)4
_chemical_formula_sum   'Cu2 H28 C42 N12 O8 F8'
_cell_volume   4766.68331515
_cell_formula_units_Z   2
loop_
 _symmetry_equiv_pos_site_id
 _symmetry_equiv_pos_as_xyz
  1  'x, y, z'
loop_
 _atom_site_type_symbol
 _atom_site_label
 _atom_site_symmetry_multiplicity
 _atom_site_fract_x
 _atom_site_fract_y
 _atom_site_fract_z
 _atom_site_occupancy
  Cu  Cu1  1  0.20836000  0.14999000  0.05471000  1
  Cu  Cu2  1  0.20837000  0.14999000  0.20360000  1
  H  H1  1  0.65678000  0.00439000  0.27388000  1
  H  H2  1  0.64644000  0.10272000  0.28729000  1
  H  H3  1  0.79955000  0.01051000  0.27666000  1
  H  H4  1  0.78045000  0.10935000  0.28653000  1
  H  H5  1  0.60286000  0.34225000  0.16911000  1
  H  H6  1  0.62328000  0.31383000  0.08011000  1
  H  H7  1  0.74331000  0.34798000  0.15686000  1
  H  H8  1  0.83407000  0.30268000  0.13287000  1
  H  H9  1  0.64433000  0.09667000  0.94630000  1
  H  H10  1  0.66385000  0.03058000  0.02113000  1
  H  H11  1  0.86156000  0.10511000  0.98765000  1
  H  H12  1  0.80723000  0.03410000  0.02777000  1
  H  H13  1  0.77281000  0.20514000  0.01027000  1
  H  H14  1  0.62909000  0.20307000  0.01021000  1
  H  H15  1  0.65622000  0.01720000  0.14918000  1
  H  H16  1  0.79967000  0.01990000  0.15021000  1
  H  H17  1  0.76989000  0.23132000  0.22518000  1
  H  H18  1  0.62684000  0.22389000  0.22778000  1
  H  H19  1  0.21295000  0.91054000  0.02024000  1
  H  H20  1  0.20638000  0.53869000  0.97930000  1
  H  H21  1  0.20377000  0.38944000  0.23807000  1
  H  H22  1  0.21035000  0.76129000  0.27900000  1
  H  H23  1  0.20861000  0.66393000  0.03977000  1
  H  H24  1  0.20813000  0.63604000  0.21854000  1
  H  H25  1  0.31154000  0.05250000  0.94899000  1
  H  H26  1  0.10518000  0.24748000  0.79249000  1
  H  H27  1  0.31155000  0.05250000  0.32204000  1
  H  H28  1  0.10518000  0.24748000  0.45308000  1
  C  C1  1  0.62459000  0.14860000  0.12925000  1
  C  C2  1  0.65992000  0.14948000  0.04626000  1
  C  C3  1  0.75664000  0.15079000  0.04612000  1
  C  C4  1  0.79214000  0.15138000  0.12905000  1
  C  C5  1  0.76760000  0.07552000  0.17518000  1
  C  C6  1  0.67090000  0.07385000  0.17476000  1
  C  C7  1  0.64979000  0.22376000  0.16669000  1
  C  C8  1  0.74637000  0.22637000  0.16497000  1
  C  C9  1  0.88684000  0.15295000  0.12895000  1
  C  C10  1  0.52989000  0.14702000  0.12936000  1
  C  C11  1  0.05527000  0.15576000  0.12876000  1
  C  C12  1  0.96232000  0.15421000  0.12886000  1
  C  C13  1  0.36145000  0.14422000  0.12954000  1
  C  C14  1  0.45440000  0.14577000  0.12945000  1
  C  C15  1  0.21237000  0.87705000  0.07831000  1
  C  C16  1  0.21092000  0.79477000  0.08368000  1
  C  C17  1  0.21020000  0.75364000  0.15499000  1
  C  C18  1  0.21094000  0.79479000  0.22094000  1
  C  C19  1  0.21239000  0.87707000  0.21557000  1
  C  C20  1  0.20581000  0.50521000  0.17463000  1
  C  C21  1  0.20436000  0.42292000  0.17999000  1
  C  C22  1  0.20434000  0.42291000  0.04273000  1
  C  C23  1  0.20579000  0.50520000  0.03737000  1
  C  C24  1  0.20653000  0.54634000  0.10332000  1
  C  C25  1  0.20872000  0.66953000  0.16048000  1
  C  C26  1  0.20802000  0.63044000  0.09783000  1
  C  C27  1  0.21465000  0.00577000  0.13855000  1
  C  C28  1  0.21310000  0.91820000  0.14425000  1
  C  C29  1  0.20208000  0.29421000  0.11975000  1
  C  C30  1  0.20362000  0.38178000  0.11405000  1
  C  C31  1  0.26523000  0.09626000  0.91388000  1
  C  C32  1  0.26523000  0.09625000  0.83463000  1
  C  C33  1  0.20836000  0.14999000  0.79150000  1
  C  C34  1  0.15148000  0.20372000  0.82762000  1
  C  C35  1  0.15147000  0.20372000  0.90686000  1
  C  C36  1  0.20837000  0.15000000  0.55273000  1
  C  C37  1  0.20836000  0.15000000  0.70557000  1
  C  C38  1  0.26525000  0.09626000  0.43069000  1
  C  C39  1  0.26524000  0.09626000  0.35144000  1
  C  C40  1  0.15149000  0.20373000  0.34443000  1
  C  C41  1  0.15149000  0.20373000  0.42368000  1
  C  C42  1  0.20838000  0.15000000  0.46680000  1
  N  N1  1  0.63359000  0.06056000  0.25013000  1
  N  N2  1  0.80670000  0.06660000  0.25122000  1
  N  N3  1  0.60038000  0.29616000  0.13323000  1
  N  N4  1  0.76947000  0.30047000  0.12679000  1
  N  N5  1  0.63162000  0.08565000  0.00385000  1
  N  N6  1  0.80109000  0.09044000  0.99998000  1
  N  N7  1  0.19780000  0.21979000  0.66253000  1
  N  N8  1  0.19780000  0.21979000  0.58725000  1
  N  N9  1  0.21894000  0.08020000  0.59634000  1
  N  N10  1  0.21894000  0.08020000  0.67163000  1
  N  N11  1  0.20836000  0.14998000  0.94999000  1
  N  N12  1  0.20837000  0.15000000  0.30831000  1
  O  O1  1  0.08646000  0.15628000  0.06282000  1
  O  O2  1  0.08647000  0.15628000  0.19464000  1
  O  O3  1  0.33030000  0.14347000  0.19550000  1
  O  O4  1  0.33023000  0.14393000  0.06365000  1
  O  O5  1  0.21518000  0.03516000  0.20254000  1
  O  O6  1  0.21517000  0.03515000  0.07072000  1
  O  O7  1  0.20155000  0.26482000  0.05576000  1
  O  O8  1  0.20157000  0.26483000  0.18758000  1
  F  F1  1  0.18918000  0.76721000  0.01702000  1
  F  F2  1  0.21291000  0.91696000  0.27942000  1
  F  F3  1  0.22761000  0.53277000  0.24128000  1
  F  F4  1  0.20382000  0.38302000  0.97888000  1
  F  F5  1  0.32154000  0.04441000  0.80064000  1
  F  F6  1  0.09622000  0.25570000  0.94186000  1
  F  F7  1  0.32154000  0.04444000  0.47148000  1
  F  F8  1  0.09626000  0.25572000  0.30267000  1
