# generated using pymatgen
data_CuH14C19NO8F
_symmetry_space_group_name_H-M   'P 1'
_cell_length_a   15.94450000
_cell_length_b   10.65460000
_cell_length_c   14.58630000
_cell_angle_alpha   90.00100000
_cell_angle_beta   90.01450000
_cell_angle_gamma   83.98810000
_symmetry_Int_Tables_number   1
_chemical_formula_structural   CuH14C19NO8F
_chemical_formula_sum   'Cu2 H28 C38 N2 O16 F2'
_cell_volume   2464.32533218
_cell_formula_units_Z   2
loop_
 _symmetry_equiv_pos_site_id
 _symmetry_equiv_pos_as_xyz
  1  'x, y, z'
loop_
 _atom_site_type_symbol
 _atom_site_label
 _atom_site_symmetry_multiplicity
 _atom_site_fract_x
 _atom_site_fract_y
 _atom_site_fract_z
 _atom_site_occupancy
  Cu  Cu1  1  0.26913000  0.08130000  0.02795000  1
  Cu  Cu2  1  0.26916000  0.08130000  0.20827000  1
  H  H1  1  0.75127000  0.31051000  0.91237000  1
  H  H2  1  0.80003000  0.36958000  0.01521000  1
  H  H3  1  0.70701000  0.45231000  0.96694000  1
  H  H4  1  0.75971000  0.44056000  0.28135000  1
  H  H5  1  0.68563000  0.34677000  0.22965000  1
  H  H6  1  0.74297000  0.45099000  0.16041000  1
  H  H7  1  0.74029000  0.08513000  0.42641000  1
  H  H8  1  0.71906000  0.23190000  0.36766000  1
  H  H9  1  0.81643000  0.13113000  0.34668000  1
  H  H10  1  0.91419000  0.79292000  0.30644000  1
  H  H11  1  0.81708000  0.88367000  0.33420000  1
  H  H12  1  0.90846000  0.96043000  0.29541000  1
  H  H13  1  0.69730000  0.69391000  0.05153000  1
  H  H14  1  0.61627000  0.82198000  0.06311000  1
  H  H15  1  0.69745000  0.79283000  0.15059000  1
  H  H16  1  0.89298000  0.13441000  0.83888000  1
  H  H17  1  0.94473000  0.04935000  0.93164000  1
  H  H18  1  0.89757000  0.21283000  0.94638000  1
  H  H19  1  0.26703000  0.46249000  0.96731000  1
  H  H20  1  0.27128000  0.70012000  0.26892000  1
  H  H21  1  0.40592000  0.75796000  0.60629000  1
  H  H22  1  0.48369000  0.87267000  0.60631000  1
  H  H23  1  0.47742000  0.76593000  0.51183000  1
  H  H24  1  0.05461000  0.28993000  0.62992000  1
  H  H25  1  0.13238000  0.40464000  0.62994000  1
  H  H26  1  0.06088000  0.39667000  0.72439000  1
  H  H27  1  0.16668000  0.23651000  0.53102000  1
  H  H28  1  0.37164000  0.92609000  0.70521000  1
  C  C1  1  0.79702000  0.08204000  0.03128000  1
  C  C2  1  0.74968000  0.97708000  0.07467000  1
  C  C3  1  0.85162000  0.08348000  0.11811000  1
  C  C4  1  0.73279000  0.18400000  0.07470000  1
  C  C5  1  0.68668000  0.07912000  0.11811000  1
  C  C6  1  0.80551000  0.97847000  0.16150000  1
  C  C7  1  0.78863000  0.18548000  0.16151000  1
  C  C8  1  0.74131000  0.08049000  0.20497000  1
  C  C9  1  0.94664000  0.08598000  0.11810000  1
  C  C10  1  0.59167000  0.07661000  0.11813000  1
  C  C11  1  0.73959000  0.35681000  0.97997000  1
  C  C12  1  0.74736000  0.38510000  0.21937000  1
  C  C13  1  0.74764000  0.13318000  0.35984000  1
  C  C14  1  0.87185000  0.87803000  0.28697000  1
  C  C15  1  0.68408000  0.79276000  0.07566000  1
  C  C16  1  0.89104000  0.11999000  0.91409000  1
  C  C17  1  0.11563000  0.09047000  0.11810000  1
  C  C18  1  0.02237000  0.08799000  0.11809000  1
  C  C19  1  0.42267000  0.07213000  0.11812000  1
  C  C20  1  0.51593000  0.07461000  0.11813000  1
  C  C21  1  0.27029000  0.64679000  0.03499000  1
  C  C22  1  0.26798000  0.51580000  0.03500000  1
  C  C23  1  0.26801000  0.51582000  0.20124000  1
  C  C24  1  0.27033000  0.64680000  0.20123000  1
  C  C25  1  0.27394000  0.85170000  0.11811000  1
  C  C26  1  0.27147000  0.71229000  0.11811000  1
  C  C27  1  0.26436000  0.31090000  0.11811000  1
  C  C28  1  0.26683000  0.45031000  0.11812000  1
  C  C29  1  0.21266000  0.16684000  0.66608000  1
  C  C30  1  0.21267000  0.16684000  0.57010000  1
  C  C31  1  0.32565000  0.99576000  0.57015000  1
  C  C32  1  0.32564000  0.99576000  0.66613000  1
  C  C33  1  0.26914000  0.08130000  0.71409000  1
  C  C34  1  0.26916000  0.08130000  0.52213000  1
  C  C35  1  0.26917000  0.08130000  0.41806000  1
  C  C36  1  0.26913000  0.08130000  0.81817000  1
  C  C37  1  0.43968000  0.82308000  0.56379000  1
  C  C38  1  0.09862000  0.33952000  0.67243000  1
  N  N1  1  0.26912000  0.08131000  0.90112000  1
  N  N2  1  0.26918000  0.08129000  0.33511000  1
  O  O1  1  0.68618000  0.28901000  0.03323000  1
  O  O2  1  0.81568000  0.29122000  0.20696000  1
  O  O3  1  0.70388000  0.07140000  0.29231000  1
  O  O4  1  0.84555000  0.86353000  0.19606000  1
  O  O5  1  0.73366000  0.86907000  0.02411000  1
  O  O6  1  0.81423000  0.07359000  0.93609000  1
  O  O7  1  0.14691000  0.09131000  0.03827000  1
  O  O8  1  0.14694000  0.09130000  0.19793000  1
  O  O9  1  0.39138000  0.07130000  0.19795000  1
  O  O10  1  0.39136000  0.07130000  0.03829000  1
  O  O11  1  0.27479000  0.89848000  0.19794000  1
  O  O12  1  0.27476000  0.89849000  0.03828000  1
  O  O13  1  0.26351000  0.26412000  0.03829000  1
  O  O14  1  0.26354000  0.26411000  0.19794000  1
  O  O15  1  0.38102000  0.91190000  0.51757000  1
  O  O16  1  0.15728000  0.25070000  0.71866000  1
  F  F1  1  0.27127000  0.71047000  0.95468000  1
  F  F2  1  0.26712000  0.45206000  0.28155000  1
