# generated using pymatgen
data_CuH13C23N3O4
_symmetry_space_group_name_H-M   'P 1'
_cell_length_a   14.97150000
_cell_length_b   15.62520000
_cell_length_c   17.66630000
_cell_angle_alpha   108.08300000
_cell_angle_beta   90.00130000
_cell_angle_gamma   83.93920000
_symmetry_Int_Tables_number   1
_chemical_formula_structural   CuH13C23N3O4
_chemical_formula_sum   'Cu2 H26 C46 N6 O8'
_cell_volume   3904.29633861
_cell_formula_units_Z   2
loop_
 _symmetry_equiv_pos_site_id
 _symmetry_equiv_pos_as_xyz
  1  'x, y, z'
loop_
 _atom_site_type_symbol
 _atom_site_label
 _atom_site_symmetry_multiplicity
 _atom_site_fract_x
 _atom_site_fract_y
 _atom_site_fract_z
 _atom_site_occupancy
  Cu  Cu1  1  0.14772000  0.19318000  0.07327000  1
  Cu  Cu2  1  0.14773000  0.19318000  0.22216000  1
  H  H1  1  0.87624000  0.19752000  0.27343000  1
  H  H2  1  0.70699000  0.19432000  0.27254000  1
  H  H3  1  0.58848000  0.19205000  0.27191000  1
  H  H4  1  0.41922000  0.18884000  0.27103000  1
  H  H5  1  0.41922000  0.18883000  0.02200000  1
  H  H6  1  0.58847000  0.19205000  0.02288000  1
  H  H7  1  0.70697000  0.19432000  0.02352000  1
  H  H8  1  0.87623000  0.19753000  0.02440000  1
  H  H9  1  0.15200000  0.91954000  0.19711000  1
  H  H10  1  0.15095000  0.86379000  0.26318000  1
  H  H11  1  0.14935000  0.77848000  0.36428000  1
  H  H12  1  0.14669000  0.63743000  0.39418000  1
  H  H13  1  0.14346000  0.46683000  0.34734000  1
  H  H14  1  0.14345000  0.46681000  0.09832000  1
  H  H15  1  0.14449000  0.52257000  0.03225000  1
  H  H16  1  0.14611000  0.60787000  0.93116000  1
  H  H17  1  0.14877000  0.74893000  0.90125000  1
  H  H18  1  0.15199000  0.91954000  0.94808000  1
  H  H19  1  0.25769000  0.08189000  0.93064000  1
  H  H20  1  0.25769000  0.08189000  0.78687000  1
  H  H21  1  0.03776000  0.30447000  0.84797000  1
  H  H22  1  0.03774000  0.30446000  0.99174000  1
  H  H23  1  0.25770000  0.08189000  0.44746000  1
  H  H24  1  0.25770000  0.08189000  0.30369000  1
  H  H25  1  0.03777000  0.30448000  0.36479000  1
  H  H26  1  0.03776000  0.30448000  0.50856000  1
  C  C1  1  0.83826000  0.19680000  0.21734000  1
  C  C2  1  0.74496000  0.19503000  0.21685000  1
  C  C3  1  0.69831000  0.19415000  0.14798000  1
  C  C4  1  0.74496000  0.19504000  0.07960000  1
  C  C5  1  0.83826000  0.19681000  0.08009000  1
  C  C6  1  0.55050000  0.19133000  0.07858000  1
  C  C7  1  0.45719000  0.18956000  0.07808000  1
  C  C8  1  0.45720000  0.18956000  0.21534000  1
  C  C9  1  0.55050000  0.19133000  0.21584000  1
  C  C10  1  0.59714000  0.19222000  0.14745000  1
  C  C11  1  0.98420000  0.19958000  0.14948000  1
  C  C12  1  0.88491000  0.19769000  0.14896000  1
  C  C13  1  0.31125000  0.18678000  0.14595000  1
  C  C14  1  0.41055000  0.18867000  0.14647000  1
  C  C15  1  0.14596000  0.59915000  0.32779000  1
  C  C16  1  0.14418000  0.50510000  0.30196000  1
  C  C17  1  0.14417000  0.50510000  0.16471000  1
  C  C18  1  0.14596000  0.59915000  0.19053000  1
  C  C19  1  0.14685000  0.64616000  0.27207000  1
  C  C20  1  0.14684000  0.64616000  0.13481000  1
  C  C21  1  0.14862000  0.74020000  0.16062000  1
  C  C22  1  0.14951000  0.78722000  0.24216000  1
  C  C23  1  0.14862000  0.74020000  0.29788000  1
  C  C24  1  0.14594000  0.59914000  0.05327000  1
  C  C25  1  0.14683000  0.64616000  0.99755000  1
  C  C26  1  0.14861000  0.74020000  0.02336000  1
  C  C27  1  0.14950000  0.78722000  0.10490000  1
  C  C28  1  0.14950000  0.78722000  0.96764000  1
  C  C29  1  0.15127000  0.88126000  0.99345000  1
  C  C30  1  0.15128000  0.88126000  0.13071000  1
  C  C31  1  0.15406000  0.02836000  0.10247000  1
  C  C32  1  0.15217000  0.92827000  0.07499000  1
  C  C33  1  0.14140000  0.35800000  0.19296000  1
  C  C34  1  0.14329000  0.45809000  0.22043000  1
  C  C35  1  0.20833000  0.13184000  0.91209000  1
  C  C36  1  0.20833000  0.13184000  0.83285000  1
  C  C37  1  0.14773000  0.19318000  0.81006000  1
  C  C38  1  0.08710000  0.25452000  0.86652000  1
  C  C39  1  0.08710000  0.25451000  0.94577000  1
  C  C40  1  0.14773000  0.19319000  0.57130000  1
  C  C41  1  0.14772000  0.19319000  0.72413000  1
  C  C42  1  0.20835000  0.13185000  0.42891000  1
  C  C43  1  0.20834000  0.13184000  0.34966000  1
  C  C44  1  0.08711000  0.25453000  0.38334000  1
  C  C45  1  0.08712000  0.25453000  0.46259000  1
  C  C46  1  0.14774000  0.19319000  0.48537000  1
  N  N1  1  0.13663000  0.27295000  0.70754000  1
  N  N2  1  0.13663000  0.27295000  0.63226000  1
  N  N3  1  0.15884000  0.11343000  0.58846000  1
  N  N4  1  0.15883000  0.11343000  0.66375000  1
  N  N5  1  0.14772000  0.19317000  0.96855000  1
  N  N6  1  0.14773000  0.19319000  0.32688000  1
  O  O1  1  0.01752000  0.20021000  0.08374000  1
  O  O2  1  0.01753000  0.20022000  0.21556000  1
  O  O3  1  0.27793000  0.18614000  0.21169000  1
  O  O4  1  0.27792000  0.18615000  0.07987000  1
  O  O5  1  0.15469000  0.06195000  0.17760000  1
  O  O6  1  0.15468000  0.06194000  0.04578000  1
  O  O7  1  0.14076000  0.32441000  0.11783000  1
  O  O8  1  0.14077000  0.32442000  0.24965000  1
