# generated using pymatgen
data_CuH13C24N(O3F2)2
_symmetry_space_group_name_H-M   'P 1'
_cell_length_a   14.85350000
_cell_length_b   17.01930000
_cell_length_c   13.44830000
_cell_angle_alpha   86.12080000
_cell_angle_beta   90.00750000
_cell_angle_gamma   83.50940000
_symmetry_Int_Tables_number   1
_chemical_formula_structural   CuH13C24N(O3F2)2
_chemical_formula_sum   'Cu2 H26 C48 N2 O12 F8'
_cell_volume   3370.04542190
_cell_formula_units_Z   2
loop_
 _symmetry_equiv_pos_site_id
 _symmetry_equiv_pos_as_xyz
  1  'x, y, z'
loop_
 _atom_site_type_symbol
 _atom_site_label
 _atom_site_symmetry_multiplicity
 _atom_site_fract_x
 _atom_site_fract_y
 _atom_site_fract_z
 _atom_site_occupancy
  Cu  Cu1  1  0.15308000  0.23467000  0.00424000  1
  Cu  Cu2  1  0.15311000  0.23467000  0.19983000  1
  H  H1  1  0.87942000  0.23845000  0.93815000  1
  H  H2  1  0.42673000  0.23091000  0.93879000  1
  H  H3  1  0.42677000  0.23089000  0.26591000  1
  H  H4  1  0.87946000  0.23843000  0.26528000  1
  H  H5  1  0.09709000  0.93684000  0.40899000  1
  H  H6  1  0.16090000  0.01088000  0.45381000  1
  H  H7  1  0.22115000  0.92329000  0.40806000  1
  H  H8  1  0.29422000  0.80357000  0.87103000  1
  H  H9  1  0.30811000  0.89029000  0.93648000  1
  H  H10  1  0.31164000  0.79382000  0.00400000  1
  H  H11  1  0.08520000  0.54557000  0.79608000  1
  H  H12  1  0.14544000  0.45781000  0.75064000  1
  H  H13  1  0.20919000  0.53203000  0.79522000  1
  H  H14  1  0.99452000  0.67578000  0.19993000  1
  H  H15  1  0.99805000  0.57931000  0.26745000  1
  H  H16  1  0.01187000  0.66603000  0.33290000  1
  H  H17  1  0.15802000  0.99524000  0.95897000  1
  H  H18  1  0.15094000  0.62337000  0.90519000  1
  H  H19  1  0.14816000  0.47411000  0.24511000  1
  H  H20  1  0.15526000  0.84597000  0.29889000  1
  H  H21  1  0.15336000  0.74862000  0.98462000  1
  H  H22  1  0.15285000  0.72071000  0.21946000  1
  H  H23  1  0.04199000  0.33205000  0.65980000  1
  H  H24  1  0.04199000  0.33203000  0.52756000  1
  H  H25  1  0.26423000  0.13730000  0.35543000  1
  H  H26  1  0.26418000  0.13731000  0.86537000  1
  C  C1  1  0.46502000  0.23153000  0.01215000  1
  C  C2  1  0.46504000  0.23153000  0.19245000  1
  C  C3  1  0.55907000  0.23310000  0.19232000  1
  C  C4  1  0.60608000  0.23389000  0.10210000  1
  C  C5  1  0.55906000  0.23310000  0.01201000  1
  C  C6  1  0.60610000  0.23387000  0.28241000  1
  C  C7  1  0.70013000  0.23544000  0.28229000  1
  C  C8  1  0.74714000  0.23624000  0.19207000  1
  C  C9  1  0.70012000  0.23545000  0.10197000  1
  C  C10  1  0.74712000  0.23624000  0.01175000  1
  C  C11  1  0.70010000  0.23547000  0.92166000  1
  C  C12  1  0.60606000  0.23390000  0.92179000  1
  C  C13  1  0.84117000  0.23781000  0.19193000  1
  C  C14  1  0.84116000  0.23781000  0.01162000  1
  C  C15  1  0.98826000  0.24026000  0.10156000  1
  C  C16  1  0.88818000  0.23859000  0.10171000  1
  C  C17  1  0.31793000  0.22908000  0.10251000  1
  C  C18  1  0.41801000  0.23075000  0.10237000  1
  C  C19  1  0.15740000  0.96174000  0.03525000  1
  C  C20  1  0.15584000  0.87946000  0.04230000  1
  C  C21  1  0.15508000  0.83832000  0.13598000  1
  C  C22  1  0.15588000  0.87947000  0.22261000  1
  C  C23  1  0.15744000  0.96175000  0.21556000  1
  C  C24  1  0.15036000  0.58988000  0.16178000  1
  C  C25  1  0.14879000  0.50760000  0.16883000  1
  C  C26  1  0.14876000  0.50760000  0.98851000  1
  C  C27  1  0.15032000  0.58988000  0.98147000  1
  C  C28  1  0.15112000  0.63102000  0.06810000  1
  C  C29  1  0.15348000  0.75421000  0.14319000  1
  C  C30  1  0.15273000  0.71512000  0.06089000  1
  C  C31  1  0.15950000  0.96651000  0.39730000  1
  C  C32  1  0.27910000  0.83273000  0.94133000  1
  C  C33  1  0.14684000  0.50235000  0.80699000  1
  C  C34  1  0.02705000  0.63680000  0.26260000  1
  C  C35  1  0.15987000  0.09046000  0.11438000  1
  C  C36  1  0.15820000  0.00289000  0.12188000  1
  C  C37  1  0.14632000  0.37888000  0.08969000  1
  C  C38  1  0.14799000  0.46646000  0.08220000  1
  C  C39  1  0.09184000  0.28834000  0.81002000  1
  C  C40  1  0.09185000  0.28834000  0.70592000  1
  C  C41  1  0.15309000  0.23468000  0.65848000  1
  C  C42  1  0.21433000  0.18101000  0.71514000  1
  C  C43  1  0.21432000  0.18101000  0.81924000  1
  C  C44  1  0.21435000  0.18101000  0.49816000  1
  C  C45  1  0.21436000  0.18100000  0.39405000  1
  C  C46  1  0.09188000  0.28833000  0.38484000  1
  C  C47  1  0.09187000  0.28834000  0.48894000  1
  C  C48  1  0.15310000  0.23467000  0.54560000  1
  N  N1  1  0.15307000  0.23468000  0.86668000  1
  N  N2  1  0.15312000  0.23466000  0.33740000  1
  O  O1  1  0.02183000  0.24082000  0.01493000  1
  O  O2  1  0.02186000  0.24081000  0.18810000  1
  O  O3  1  0.28436000  0.22853000  0.18914000  1
  O  O4  1  0.28434000  0.22852000  0.01598000  1
  O  O5  1  0.15869000  0.00648000  0.30041000  1
  O  O6  1  0.18306000  0.84481000  0.95376000  1
  O  O7  1  0.14753000  0.46258000  0.90401000  1
  O  O8  1  0.12310000  0.62478000  0.25025000  1
  O  O9  1  0.16044000  0.11984000  0.19845000  1
  O  O10  1  0.16041000  0.11985000  0.02528000  1
  O  O11  1  0.14575000  0.34950000  0.00563000  1
  O  O12  1  0.14578000  0.34949000  0.17879000  1
  F  F1  1  0.56179000  0.23314000  0.37075000  1
  F  F2  1  0.74448000  0.23618000  0.37049000  1
  F  F3  1  0.74441000  0.23620000  0.83332000  1
  F  F4  1  0.56171000  0.23316000  0.83359000  1
  F  F5  1  0.03289000  0.34056000  0.85618000  1
  F  F6  1  0.29671000  0.15266000  0.68136000  1
  F  F7  1  0.24658000  0.10891000  0.54062000  1
  F  F8  1  0.03233000  0.33997000  0.32977000  1
