# generated using pymatgen
data_CuH19C24N4O7
_symmetry_space_group_name_H-M   'P 1'
_cell_length_a   15.62520000
_cell_length_b   16.10930000
_cell_length_c   14.42150000
_cell_angle_alpha   90.00860000
_cell_angle_beta   71.92540000
_cell_angle_gamma   83.86860000
_symmetry_Int_Tables_number   1
_chemical_formula_structural   CuH19C24N4O7
_chemical_formula_sum   'Cu2 H38 C48 N8 O14'
_cell_volume   3429.05065279
_cell_formula_units_Z   2
loop_
 _symmetry_equiv_pos_site_id
 _symmetry_equiv_pos_as_xyz
  1  'x, y, z'
loop_
 _atom_site_type_symbol
 _atom_site_label
 _atom_site_symmetry_multiplicity
 _atom_site_fract_x
 _atom_site_fract_y
 _atom_site_fract_z
 _atom_site_occupancy
  Cu  Cu1  1  0.19126000  0.10243000  0.09573000  1
  Cu  Cu2  1  0.19128000  0.10244000  0.27811000  1
  H  H1  1  0.89228000  0.20508000  0.10477000  1
  H  H2  1  0.99617000  0.14259000  0.09563000  1
  H  H3  1  0.61923000  0.07478000  0.52513000  1
  H  H4  1  0.52199000  0.11452000  0.49479000  1
  H  H5  1  0.38650000  0.06185000  0.27804000  1
  H  H6  1  0.49053000  0.99936000  0.26850000  1
  H  H7  1  0.85725000  0.11315000  0.87926000  1
  H  H8  1  0.77112000  0.06718000  0.84866000  1
  H  H9  1  0.86186000  0.10541000  0.04549000  1
  H  H10  1  0.63548000  0.10143000  0.88501000  1
  H  H11  1  0.46489000  0.09844000  0.94239000  1
  H  H12  1  0.52069000  0.09945000  0.32835000  1
  H  H13  1  0.74706000  0.10345000  0.48883000  1
  H  H14  1  0.91766000  0.10644000  0.43146000  1
  H  H15  1  0.18843000  0.45242000  0.36503000  1
  H  H16  1  0.19031000  0.55036000  0.42092000  1
  H  H17  1  0.19412000  0.75245000  0.00881000  1
  H  H18  1  0.19224000  0.65451000  0.95292000  1
  H  H19  1  0.18978000  0.52376000  0.03490000  1
  H  H20  1  0.19278000  0.68112000  0.33895000  1
  H  H21  1  0.45251000  0.06333000  0.60010000  1
  H  H22  1  0.40444000  0.15870000  0.67547000  1
  H  H23  1  0.48070000  0.16329000  0.55450000  1
  H  H24  1  0.24301000  0.37147000  0.69153000  1
  H  H25  1  0.23716000  0.29594000  0.60314000  1
  H  H26  1  0.33722000  0.29395000  0.64232000  1
  H  H27  1  0.96656000  0.31425000  0.73084000  1
  H  H28  1  0.08025000  0.33900000  0.68244000  1
  H  H29  1  0.04626000  0.27932000  0.79239000  1
  H  H30  1  0.91294000  0.10221000  0.91471000  1
  H  H31  1  0.93713000  0.16210000  0.80742000  1
  H  H32  1  0.00122000  0.16836000  0.89385000  1
  H  H33  1  0.05599000  0.88776000  0.61796000  1
  H  H34  1  0.10972000  0.95285000  0.52190000  1
  H  H35  1  0.03037000  0.99864000  0.63567000  1
  H  H36  1  0.42060000  0.93431000  0.75158000  1
  H  H37  1  0.31100000  0.95946000  0.83792000  1
  H  H38  1  0.37891000  0.04187000  0.77773000  1
  C  C1  1  0.59721000  0.10076000  0.96634000  1
  C  C2  1  0.50318000  0.09912000  0.99798000  1
  C  C3  1  0.50320000  0.09913000  0.16610000  1
  C  C4  1  0.59723000  0.10078000  0.13448000  1
  C  C5  1  0.64424000  0.10160000  0.03460000  1
  C  C6  1  0.64426000  0.10161000  0.20273000  1
  C  C7  1  0.73829000  0.10326000  0.17111000  1
  C  C8  1  0.78530000  0.10407000  0.07123000  1
  C  C9  1  0.73827000  0.10324000  0.00297000  1
  C  C10  1  0.59725000  0.10079000  0.30261000  1
  C  C11  1  0.64428000  0.10163000  0.37087000  1
  C  C12  1  0.73831000  0.10328000  0.33924000  1
  C  C13  1  0.78532000  0.10409000  0.23937000  1
  C  C14  1  0.78534000  0.10411000  0.40750000  1
  C  C15  1  0.87937000  0.10576000  0.37588000  1
  C  C16  1  0.87935000  0.10574000  0.20775000  1
  C  C17  1  0.02645000  0.10833000  0.24235000  1
  C  C18  1  0.92637000  0.10657000  0.27600000  1
  C  C19  1  0.35610000  0.09654000  0.13149000  1
  C  C20  1  0.45617000  0.09830000  0.09784000  1
  C  C21  1  0.19209000  0.64579000  0.10258000  1
  C  C22  1  0.19044000  0.55906000  0.10313000  1
  C  C23  1  0.19046000  0.55909000  0.27127000  1
  C  C24  1  0.19211000  0.64581000  0.27071000  1
  C  C25  1  0.19292000  0.68916000  0.18636000  1
  C  C26  1  0.18962000  0.51571000  0.18748000  1
  C  C27  1  0.18784000  0.42168000  0.18808000  1
  C  C28  1  0.19471000  0.78319000  0.18576000  1
  C  C29  1  0.19789000  0.95044000  0.18469000  1
  C  C30  1  0.19613000  0.85814000  0.18527000  1
  C  C31  1  0.18466000  0.25443000  0.18915000  1
  C  C32  1  0.18641000  0.34673000  0.18857000  1
  C  C33  1  0.25518000  0.04335000  0.69633000  1
  C  C34  1  0.17367000  0.02731000  0.66190000  1
  C  C35  1  0.19126000  0.10243000  0.77829000  1
  C  C36  1  0.27279000  0.11843000  0.62862000  1
  C  C37  1  0.19128000  0.10244000  0.59556000  1
  C  C38  1  0.10971000  0.08636000  0.74523000  1
  C  C39  1  0.20889000  0.17751000  0.71194000  1
  C  C40  1  0.12731000  0.16151000  0.67756000  1
  C  C41  1  0.19126000  0.10242000  0.88355000  1
  C  C42  1  0.19128000  0.10245000  0.49030000  1
  C  C43  1  0.42504000  0.12982000  0.60059000  1
  C  C44  1  0.26227000  0.30507000  0.66640000  1
  C  C45  1  0.03844000  0.28998000  0.71916000  1
  C  C46  1  0.96850000  0.12685000  0.85693000  1
  C  C47  1  0.08566000  0.94777000  0.60231000  1
  C  C48  1  0.35837000  0.97917000  0.76902000  1
  N  N1  1  0.92567000  0.15213000  0.12565000  1
  N  N2  1  0.59238000  0.10060000  0.47251000  1
  N  N3  1  0.45700000  0.05237000  0.24795000  1
  N  N4  1  0.79095000  0.09734000  0.90128000  1
  N  N5  1  0.18966000  0.51684000  0.35915000  1
  N  N6  1  0.19289000  0.68803000  0.01469000  1
  N  N7  1  0.19126000  0.10242000  0.96745000  1
  N  N8  1  0.19129000  0.10245000  0.40639000  1
  O  O1  1  0.06002000  0.10891000  0.15032000  1
  O  O2  1  0.06004000  0.10892000  0.31179000  1
  O  O3  1  0.32252000  0.09596000  0.22352000  1
  O  O4  1  0.32250000  0.09595000  0.06205000  1
  O  O5  1  0.19849000  0.98142000  0.26523000  1
  O  O6  1  0.19847000  0.98140000  0.10375000  1
  O  O7  1  0.18406000  0.22345000  0.10861000  1
  O  O8  1  0.18406000  0.22347000  0.27009000  1
  O  O9  1  0.35410000  0.13689000  0.55925000  1
  O  O10  1  0.22564000  0.25459000  0.74576000  1
  O  O11  1  0.05916000  0.21739000  0.65824000  1
  O  O12  1  0.02882000  0.05892000  0.80628000  1
  O  O13  1  0.15945000  0.94564000  0.63923000  1
  O  O14  1  0.32098000  0.97466000  0.69249000  1
