# generated using pymatgen
data_CuH8C17N5(O2F)2
_symmetry_space_group_name_H-M   'P 1'
_cell_length_a   14.85350000
_cell_length_b   9.06520000
_cell_length_c   17.66630000
_cell_angle_alpha   90.00150000
_cell_angle_beta   90.00240000
_cell_angle_gamma   84.31800000
_symmetry_Int_Tables_number   1
_chemical_formula_structural   CuH8C17N5(O2F)2
_chemical_formula_sum   'Cu2 H16 C34 N10 O8 F4'
_cell_volume   2367.07883927
_cell_formula_units_Z   2
loop_
 _symmetry_equiv_pos_site_id
 _symmetry_equiv_pos_as_xyz
  1  'x, y, z'
loop_
 _atom_site_type_symbol
 _atom_site_label
 _atom_site_symmetry_multiplicity
 _atom_site_fract_x
 _atom_site_fract_y
 _atom_site_fract_z
 _atom_site_occupancy
  Cu  Cu1  1  0.20215000  0.05350000  0.15526000  1
  Cu  Cu2  1  0.20216000  0.05350000  0.30415000  1
  H  H1  1  0.92856000  0.06055000  0.10519000  1
  H  H2  1  0.47574000  0.04644000  0.10519000  1
  H  H3  1  0.47575000  0.04645000  0.35421000  1
  H  H4  1  0.92856000  0.06055000  0.35422000  1
  H  H5  1  0.07696000  0.25474000  0.11063000  1
  H  H6  1  0.03240000  0.32961000  0.02277000  1
  H  H7  1  0.35202000  0.87875000  0.84009000  1
  H  H8  1  0.36563000  0.76958000  0.92359000  1
  H  H9  1  0.35173000  0.87838000  0.61951000  1
  H  H10  1  0.36560000  0.76956000  0.53590000  1
  H  H11  1  0.07698000  0.25484000  0.34884000  1
  H  H12  1  0.03245000  0.32964000  0.43668000  1
  H  H13  1  0.31164000  0.87140000  0.04318000  1
  H  H14  1  0.09266000  0.23560000  0.89941000  1
  H  H15  1  0.31165000  0.87141000  0.41624000  1
  H  H16  1  0.09266000  0.23561000  0.56000000  1
  C  C1  1  0.51403000  0.04763000  0.16107000  1
  C  C2  1  0.51404000  0.04763000  0.29833000  1
  C  C3  1  0.60809000  0.05057000  0.29834000  1
  C  C4  1  0.65512000  0.05203000  0.22971000  1
  C  C5  1  0.60809000  0.05056000  0.16108000  1
  C  C6  1  0.65513000  0.05203000  0.36697000  1
  C  C7  1  0.74919000  0.05497000  0.36697000  1
  C  C8  1  0.79622000  0.05644000  0.29834000  1
  C  C9  1  0.74919000  0.05497000  0.22971000  1
  C  C10  1  0.79621000  0.05643000  0.16108000  1
  C  C11  1  0.74918000  0.05497000  0.09245000  1
  C  C12  1  0.65512000  0.05203000  0.09245000  1
  C  C13  1  0.89028000  0.05937000  0.29834000  1
  C  C14  1  0.89028000  0.05936000  0.16108000  1
  C  C15  1  0.03741000  0.06395000  0.22971000  1
  C  C16  1  0.93730000  0.06084000  0.22971000  1
  C  C17  1  0.36690000  0.04305000  0.22970000  1
  C  C18  1  0.46700000  0.04616000  0.22970000  1
  C  C19  1  0.20654000  0.78378000  0.22971000  1
  C  C20  1  0.20343000  0.62000000  0.22971000  1
  C  C21  1  0.19777000  0.32322000  0.22971000  1
  C  C22  1  0.20089000  0.48700000  0.22971000  1
  C  C23  1  0.26250000  0.95313000  0.01093000  1
  C  C24  1  0.26250000  0.95313000  0.93168000  1
  C  C25  1  0.20215000  0.05350000  0.89205000  1
  C  C26  1  0.14179000  0.15386000  0.93168000  1
  C  C27  1  0.14179000  0.15386000  0.01093000  1
  C  C28  1  0.20216000  0.05352000  0.65329000  1
  C  C29  1  0.20215000  0.05352000  0.80612000  1
  C  C30  1  0.26251000  0.95315000  0.52774000  1
  C  C31  1  0.26251000  0.95314000  0.44849000  1
  C  C32  1  0.14180000  0.15389000  0.44849000  1
  C  C33  1  0.14180000  0.15388000  0.52774000  1
  C  C34  1  0.20217000  0.05352000  0.56736000  1
  N  N1  1  0.19193000  0.18403000  0.76763000  1
  N  N2  1  0.19194000  0.18403000  0.69235000  1
  N  N3  1  0.21239000  0.92300000  0.69235000  1
  N  N4  1  0.21239000  0.92300000  0.76764000  1
  N  N5  1  0.07771000  0.25381000  0.05153000  1
  N  N6  1  0.32867000  0.85505000  0.89392000  1
  N  N7  1  0.32858000  0.85496000  0.56556000  1
  N  N8  1  0.07771000  0.25392000  0.40793000  1
  N  N9  1  0.20215000  0.05349000  0.05055000  1
  N  N10  1  0.20216000  0.05351000  0.40887000  1
  O  O1  1  0.07100000  0.06499000  0.16380000  1
  O  O2  1  0.07101000  0.06500000  0.29562000  1
  O  O3  1  0.33333333  0.04203000  0.29562000  1
  O  O4  1  0.33333333  0.04198000  0.16379000  1
  O  O5  1  0.20759000  0.83875000  0.29562000  1
  O  O6  1  0.20758000  0.83874000  0.16380000  1
  O  O7  1  0.19672000  0.26826000  0.29562000  1
  O  O8  1  0.19672000  0.26825000  0.16380000  1
  F  F1  1  0.61080000  0.05067000  0.43417000  1
  F  F2  1  0.79354000  0.05635000  0.43416000  1
  F  F3  1  0.79351000  0.05633000  0.02525000  1
  F  F4  1  0.61077000  0.05065000  0.02525000  1
