# generated using pymatgen
data_CuH17C22(N2O)4
_symmetry_space_group_name_H-M   'P 1'
_cell_length_a   15.62520000
_cell_length_b   19.18890000
_cell_length_c   11.29570000
_cell_angle_alpha   94.09210000
_cell_angle_beta   67.89220000
_cell_angle_gamma   83.71150000
_symmetry_Int_Tables_number   1
_chemical_formula_structural   CuH17C22(N2O)4
_chemical_formula_sum   'Cu2 H34 C44 N16 O8'
_cell_volume   3095.51301893
_cell_formula_units_Z   2
loop_
 _symmetry_equiv_pos_site_id
 _symmetry_equiv_pos_as_xyz
  1  'x, y, z'
loop_
 _atom_site_type_symbol
 _atom_site_label
 _atom_site_symmetry_multiplicity
 _atom_site_fract_x
 _atom_site_fract_y
 _atom_site_fract_z
 _atom_site_occupancy
  Cu  Cu1  1  0.20844000  0.18679000  0.97609000  1
  Cu  Cu2  1  0.19370000  0.19822000  0.21667000  1
  H  H1  1  0.90840000  0.27356000  0.98815000  1
  H  H2  1  0.01323000  0.22051000  0.97601000  1
  H  H3  1  0.60173000  0.19045000  0.54247000  1
  H  H4  1  0.50683000  0.22193000  0.50251000  1
  H  H5  1  0.38906000  0.16412000  0.21652000  1
  H  H6  1  0.49406000  0.11105000  0.20386000  1
  H  H7  1  0.89191000  0.18224000  0.69057000  1
  H  H8  1  0.80842000  0.14172000  0.65014000  1
  H  H9  1  0.88310000  0.18615000  0.90982000  1
  H  H10  1  0.66972000  0.17275000  0.69813000  1
  H  H11  1  0.49450000  0.17384000  0.77382000  1
  H  H12  1  0.51905000  0.19885000  0.28294000  1
  H  H13  1  0.73242000  0.21225000  0.49463000  1
  H  H14  1  0.90765000  0.21117000  0.41896000  1
  H  H15  1  0.21856000  0.03208000  0.86872000  1
  H  H16  1  0.22237000  0.94742000  0.78694000  1
  H  H17  1  0.22333000  0.80089000  0.31413000  1
  H  H18  1  0.18015000  0.88584000  0.40445000  1
  H  H19  1  0.21896000  0.59830000  0.31595000  1
  H  H20  1  0.17313000  0.52970000  0.40743000  1
  H  H21  1  0.20490000  0.33227000  0.87452000  1
  H  H22  1  0.21186000  0.40903000  0.79146000  1
  H  H23  1  0.19438000  0.99001000  0.29515000  1
  H  H24  1  0.21646000  0.83885000  0.89389000  1
  H  H25  1  0.18310000  0.41408000  0.29998000  1
  H  H26  1  0.21035000  0.52706000  0.89649000  1
  H  H27  1  0.04741000  0.34392000  0.77416000  1
  H  H28  1  0.98869000  0.34576000  0.66754000  1
  H  H29  1  0.39859000  0.02835000  0.53163000  1
  H  H30  1  0.39780000  0.07266000  0.40000000  1
  H  H31  1  0.10521000  0.26671000  0.84432000  1
  H  H32  1  0.06826000  0.29535000  0.44713000  1
  H  H33  1  0.29693000  0.11830000  0.34842000  1
  H  H34  1  0.33388000  0.08966000  0.74564000  1
  C  C1  1  0.62487000  0.17729000  0.80541000  1
  C  C2  1  0.52828000  0.17789000  0.84715000  1
  C  C3  1  0.51469000  0.18842000  0.06891000  1
  C  C4  1  0.61128000  0.18783000  0.02720000  1
  C  C5  1  0.66637000  0.18226000  0.89545000  1
  C  C6  1  0.65278000  0.19280000  0.11724000  1
  C  C7  1  0.74936000  0.19221000  0.07552000  1
  C  C8  1  0.80446000  0.18664000  0.94378000  1
  C  C9  1  0.76295000  0.18167000  0.85374000  1
  C  C10  1  0.59769000  0.19837000  0.24899000  1
  C  C11  1  0.63919000  0.20334000  0.33902000  1
  C  C12  1  0.73577000  0.20275000  0.29731000  1
  C  C13  1  0.79087000  0.19718000  0.16557000  1
  C  C14  1  0.77728000  0.20772000  0.38735000  1
  C  C15  1  0.87386000  0.20712000  0.34564000  1
  C  C16  1  0.88745000  0.19658000  0.12385000  1
  C  C17  1  0.03174000  0.20092000  0.16950000  1
  C  C18  1  0.92895000  0.20155000  0.21389000  1
  C  C19  1  0.37040000  0.18409000  0.02326000  1
  C  C20  1  0.47319000  0.18345000  0.97887000  1
  C  C21  1  0.19934000  0.95610000  0.20510000  1
  C  C22  1  0.19791000  0.88330000  0.20572000  1
  C  C23  1  0.20399000  0.84164000  0.09513000  1
  C  C24  1  0.21149000  0.87278000  0.98393000  1
  C  C25  1  0.21291000  0.94558000  0.98332000  1
  C  C26  1  0.19971000  0.62230000  0.09696000  1
  C  C27  1  0.20245000  0.76270000  0.09578000  1
  C  C28  1  0.19065000  0.51223000  0.20882000  1
  C  C29  1  0.18922000  0.43943000  0.20943000  1
  C  C30  1  0.20281000  0.42891000  0.98764000  1
  C  C31  1  0.20424000  0.50171000  0.98703000  1
  C  C32  1  0.19816000  0.54336000  0.09763000  1
  C  C33  1  0.20835000  0.06471000  0.09325000  1
  C  C34  1  0.20684000  0.98723000  0.09391000  1
  C  C35  1  0.19379000  0.32029000  0.09951000  1
  C  C36  1  0.19530000  0.39777000  0.09885000  1
  C  C37  1  0.10851000  0.26418000  0.60516000  1
  C  C38  1  0.11637000  0.25809000  0.47711000  1
  C  C39  1  0.24241000  0.16050000  0.42271000  1
  C  C40  1  0.23455000  0.16659000  0.55077000  1
  C  C41  1  0.16759000  0.21842000  0.64199000  1
  C  C42  1  0.15973000  0.22450000  0.77005000  1
  C  C43  1  0.28577000  0.12692000  0.71565000  1
  C  C44  1  0.29364000  0.12083000  0.58759000  1
  N  N1  1  0.94027000  0.23040000  0.01562000  1
  N  N2  1  0.57907000  0.20884000  0.47310000  1
  N  N3  1  0.46202000  0.15428000  0.17682000  1
  N  N4  1  0.82389000  0.17034000  0.71959000  1
  N  N5  1  0.25952000  0.71719000  0.99079000  1
  N  N6  1  0.25817000  0.64803000  0.99138000  1
  N  N7  1  0.14266000  0.66833000  0.20195000  1
  N  N8  1  0.14401000  0.73749000  0.20136000  1
  N  N9  1  0.21756000  0.97783000  0.87031000  1
  N  N10  1  0.19575000  0.85341000  0.31847000  1
  N  N11  1  0.18972000  0.55177000  0.32101000  1
  N  N12  1  0.20602000  0.38660000  0.87519000  1
  N  N13  1  0.04078000  0.32023000  0.69279000  1
  N  N14  1  0.36614000  0.06827000  0.49790000  1
  N  N15  1  0.21882000  0.17875000  0.80688000  1
  N  N16  1  0.18332000  0.20626000  0.38588000  1
  O  O1  1  0.07276000  0.19565000  0.04810000  1
  O  O2  1  0.05971000  0.20577000  0.26110000  1
  O  O3  1  0.32938000  0.18936000  0.14466000  1
  O  O4  1  0.34243000  0.17924000  0.93166000  1
  O  O5  1  0.20233000  0.09577000  0.19953000  1
  O  O6  1  0.21539000  0.08565000  0.98653000  1
  O  O7  1  0.19981000  0.28924000  0.99323000  1
  O  O8  1  0.18675000  0.29936000  0.20623000  1
