# generated using pymatgen
data_CuH12C23N4(O2F)2
_symmetry_space_group_name_H-M   'P 1'
_cell_length_a   15.62520000
_cell_length_b   16.10930000
_cell_length_c   13.33040000
_cell_angle_alpha   90.00000000
_cell_angle_beta   71.92440000
_cell_angle_gamma   83.86860000
_symmetry_Int_Tables_number   1
_chemical_formula_structural   CuH12C23N4(O2F)2
_chemical_formula_sum   'Cu2 H24 C46 N8 O8 F4'
_cell_volume   3169.61539990
_cell_formula_units_Z   2
loop_
 _symmetry_equiv_pos_site_id
 _symmetry_equiv_pos_as_xyz
  1  'x, y, z'
loop_
 _atom_site_type_symbol
 _atom_site_label
 _atom_site_symmetry_multiplicity
 _atom_site_fract_x
 _atom_site_fract_y
 _atom_site_fract_z
 _atom_site_occupancy
  Cu  Cu1  1  0.22819000  0.13096000  0.03179000  1
  Cu  Cu2  1  0.22821000  0.13095000  0.22910000  1
  H  H1  1  0.92920000  0.23361000  0.04157000  1
  H  H2  1  0.03310000  0.17113000  0.03168000  1
  H  H3  1  0.65615000  0.10326000  0.49633000  1
  H  H4  1  0.55892000  0.14300000  0.46352000  1
  H  H5  1  0.42343000  0.09036000  0.22902000  1
  H  H6  1  0.52746000  0.02788000  0.21870000  1
  H  H7  1  0.89417000  0.14171000  0.79761000  1
  H  H8  1  0.80805000  0.09575000  0.76450000  1
  H  H9  1  0.89879000  0.13396000  0.97743000  1
  H  H10  1  0.67240000  0.12999000  0.80382000  1
  H  H11  1  0.50182000  0.12699000  0.86590000  1
  H  H12  1  0.55761000  0.12795000  0.28346000  1
  H  H13  1  0.78399000  0.13193000  0.45707000  1
  H  H14  1  0.95458000  0.13493000  0.39500000  1
  H  H15  1  0.22536000  0.48092000  0.32314000  1
  H  H16  1  0.22723000  0.57885000  0.38360000  1
  H  H17  1  0.23104000  0.78100000  0.93775000  1
  H  H18  1  0.22917000  0.68307000  0.87729000  1
  H  H19  1  0.22670000  0.55230000  0.96598000  1
  H  H20  1  0.22971000  0.70962000  0.29492000  1
  H  H21  1  0.33918000  0.02834000  0.84289000  1
  H  H22  1  0.33921000  0.02834000  0.33728000  1
  H  H23  1  0.11723000  0.23356000  0.41799000  1
  H  H24  1  0.11718000  0.23358000  0.92360000  1
  C  C1  1  0.63414000  0.12932000  0.89181000  1
  C  C2  1  0.54010000  0.12766000  0.92604000  1
  C  C3  1  0.54012000  0.12766000  0.10792000  1
  C  C4  1  0.63416000  0.12931000  0.07371000  1
  C  C5  1  0.68116000  0.13014000  0.96565000  1
  C  C6  1  0.68118000  0.13014000  0.14755000  1
  C  C7  1  0.77521000  0.13179000  0.11334000  1
  C  C8  1  0.82222000  0.13261000  0.00529000  1
  C  C9  1  0.77519000  0.13179000  0.93144000  1
  C  C10  1  0.63418000  0.12930000  0.25561000  1
  C  C11  1  0.68120000  0.13013000  0.32945000  1
  C  C12  1  0.77523000  0.13178000  0.29524000  1
  C  C13  1  0.82224000  0.13261000  0.18718000  1
  C  C14  1  0.82226000  0.13261000  0.36908000  1
  C  C15  1  0.91630000  0.13426000  0.33487000  1
  C  C16  1  0.91627000  0.13426000  0.15297000  1
  C  C17  1  0.06337000  0.13684000  0.19041000  1
  C  C18  1  0.96330000  0.13509000  0.22682000  1
  C  C19  1  0.39302000  0.12508000  0.07048000  1
  C  C20  1  0.49310000  0.12683000  0.03407000  1
  C  C21  1  0.22901000  0.67432000  0.03920000  1
  C  C22  1  0.22737000  0.58760000  0.03980000  1
  C  C23  1  0.22738000  0.58760000  0.22170000  1
  C  C24  1  0.22903000  0.67432000  0.22109000  1
  C  C25  1  0.22985000  0.71768000  0.12984000  1
  C  C26  1  0.22655000  0.54424000  0.13105000  1
  C  C27  1  0.22476000  0.45021000  0.13170000  1
  C  C28  1  0.23163000  0.81172000  0.12919000  1
  C  C29  1  0.23481000  0.97896000  0.12803000  1
  C  C30  1  0.23305000  0.88667000  0.12866000  1
  C  C31  1  0.22158000  0.28296000  0.13286000  1
  C  C32  1  0.22334000  0.37525000  0.13222000  1
  C  C33  1  0.28939000  0.07439000  0.39815000  1
  C  C34  1  0.16703000  0.18751000  0.44264000  1
  C  C35  1  0.16703000  0.18752000  0.54766000  1
  C  C36  1  0.22820000  0.13096000  0.57793000  1
  C  C37  1  0.28938000  0.07439000  0.50318000  1
  C  C38  1  0.10584000  0.24408000  0.62242000  1
  C  C39  1  0.10583000  0.24408000  0.72745000  1
  C  C40  1  0.16701000  0.18753000  0.75772000  1
  C  C41  1  0.22819000  0.13096000  0.68296000  1
  C  C42  1  0.28937000  0.07440000  0.71323000  1
  C  C43  1  0.35056000  0.01784000  0.63847000  1
  C  C44  1  0.35056000  0.01784000  0.53345000  1
  C  C45  1  0.16701000  0.18753000  0.86274000  1
  C  C46  1  0.28936000  0.07440000  0.81826000  1
  N  N1  1  0.96259000  0.18066000  0.06416000  1
  N  N2  1  0.62931000  0.12909000  0.43941000  1
  N  N3  1  0.49393000  0.08089000  0.19647000  1
  N  N4  1  0.82787000  0.12590000  0.82142000  1
  N  N5  1  0.22658000  0.54535000  0.31677000  1
  N  N6  1  0.22981000  0.71658000  0.94412000  1
  N  N7  1  0.22818000  0.13097000  0.89301000  1
  N  N8  1  0.22821000  0.13095000  0.36788000  1
  O  O1  1  0.09695000  0.13744000  0.09084000  1
  O  O2  1  0.09697000  0.13743000  0.26554000  1
  O  O3  1  0.35945000  0.12448000  0.17004000  1
  O  O4  1  0.35943000  0.12449000  0.99535000  1
  O  O5  1  0.23541000  0.00993000  0.21516000  1
  O  O6  1  0.23540000  0.00994000  0.04047000  1
  O  O7  1  0.22099000  0.25199000  0.04572000  1
  O  O8  1  0.22099000  0.25198000  0.22042000  1
  F  F1  1  0.04594000  0.29947000  0.59470000  1
  F  F2  1  0.04593000  0.29946000  0.79875000  1
  F  F3  1  0.41045000  0.96245000  0.66619000  1
  F  F4  1  0.41046000  0.96246000  0.46214000  1
