# generated using pymatgen
data_Co6H14C68(O7F8)3
_symmetry_space_group_name_H-M   'P 1'
_cell_length_a   20.82205000
_cell_length_b   21.15672000
_cell_length_c   38.72835000
_cell_angle_alpha   60.76128000
_cell_angle_beta   118.96718000
_cell_angle_gamma   133.15922000
_symmetry_Int_Tables_number   1
_chemical_formula_structural   Co6H14C68(O7F8)3
_chemical_formula_sum   'Co12 H28 C136 O42 F48'
_cell_volume   10552.87573428
_cell_formula_units_Z   2
loop_
 _symmetry_equiv_pos_site_id
 _symmetry_equiv_pos_as_xyz
  1  'x, y, z'
loop_
 _atom_site_type_symbol
 _atom_site_label
 _atom_site_symmetry_multiplicity
 _atom_site_fract_x
 _atom_site_fract_y
 _atom_site_fract_z
 _atom_site_occupancy
  Co  Co1  1  0.02634000  0.11601000  0.07272000  1
  Co  Co2  1  0.09184000  0.04853000  0.04367000  1
  Co  Co3  1  0.09448000  0.89896000  0.04112000  1
  Co  Co4  1  0.07829000  0.88361000  0.53575000  1
  Co  Co5  1  0.02384000  0.99372000  0.53734000  1
  Co  Co6  1  0.01679000  0.84829000  0.61035000  1
  Co  Co7  1  0.99558000  0.86828000  0.09709000  1
  Co  Co8  1  0.96510000  0.04433000  0.58012000  1
  Co  Co9  1  0.94407000  0.94083000  0.13252000  1
  Co  Co10  1  0.93963000  0.09437000  0.13086000  1
  Co  Co11  1  0.95798000  0.89929000  0.65351000  1
  Co  Co12  1  0.91549000  0.02220000  0.65461000  1
  H  H1  1  0.19469000  0.52303000  0.18168000  1
  H  H2  1  0.17123000  0.56009000  0.62975000  1
  H  H3  1  0.19211000  0.10124000  0.83270000  1
  H  H4  1  0.20186000  0.09677000  0.77299000  1
  H  H5  1  0.02693000  0.88016000  0.34469000  1
  H  H6  1  0.05396000  0.91092000  0.28071000  1
  H  H7  1  0.42947000  0.60654000  0.16119000  1
  H  H8  1  0.41061000  0.80539000  0.15039000  1
  H  H9  1  0.45141000  0.76511000  0.67379000  1
  H  H10  1  0.38396000  0.54979000  0.64615000  1
  H  H11  1  0.12226000  0.14690000  0.83979000  1
  H  H12  1  0.12895000  0.16592000  0.89980000  1
  H  H13  1  0.05019000  0.07385000  0.35162000  1
  H  H14  1  0.03493000  0.06184000  0.41431000  1
  H  H15  1  0.52600000  0.13163000  0.51908000  1
  H  H16  1  0.93503000  0.88223000  0.93695000  1
  H  H17  1  0.94553000  0.86039000  0.88391000  1
  H  H18  1  0.60160000  0.17938000  0.01738000  1
  H  H19  1  0.59850000  0.38725000  0.00918000  1
  H  H20  1  0.82549000  0.45698000  0.98720000  1
  H  H21  1  0.61221000  0.35228000  0.55046000  1
  H  H22  1  0.81044000  0.32525000  0.56393000  1
  H  H23  1  0.93360000  0.85127000  0.76615000  1
  H  H24  1  0.91351000  0.86890000  0.81755000  1
  H  H25  1  0.82375000  0.77963000  0.42523000  1
  H  H26  1  0.83960000  0.79174000  0.36268000  1
  H  H27  1  0.91701000  0.03807000  0.21486000  1
  H  H28  1  0.88640000  0.00327000  0.27775000  1
  C  C1  1  0.25815000  0.57727000  0.17255000  1
  C  C2  1  0.24256000  0.58803000  0.63906000  1
  C  C3  1  0.26430000  0.06617000  0.06305000  1
  C  C4  1  0.01699000  0.01102000  0.20606000  1
  C  C5  1  0.11846000  0.25222000  0.11526000  1
  C  C6  1  0.10359000  0.79821000  0.12708000  1
  C  C7  1  0.19080000  0.08079000  0.51649000  1
  C  C8  1  0.05352000  0.99761000  0.71937000  1
  C  C9  1  0.05078000  0.19819000  0.61022000  1
  C  C10  1  0.18968000  0.87649000  0.61865000  1
  C  C11  1  0.13366000  0.04906000  0.81696000  1
  C  C12  1  0.14060000  0.04435000  0.78415000  1
  C  C13  1  0.06561000  0.97719000  0.76333000  1
  C  C14  1  0.01609000  0.92979000  0.27982000  1
  C  C15  1  0.15736000  0.44046000  0.59212000  1
  C  C16  1  0.20428000  0.45200000  0.63197000  1
  C  C17  1  0.16843000  0.30342000  0.65478000  1
  C  C18  1  0.11895000  0.29038000  0.61532000  1
  C  C19  1  0.11424000  0.35978000  0.58391000  1
  C  C20  1  0.20954000  0.68530000  0.66255000  1
  C  C21  1  0.28176000  0.72449000  0.64699000  1
  C  C22  1  0.33189000  0.81714000  0.62905000  1
  C  C23  1  0.31143000  0.86946000  0.62741000  1
  C  C24  1  0.23296000  0.82909000  0.63828000  1
  C  C25  1  0.18383000  0.73689000  0.65726000  1
  C  C26  1  0.22148000  0.33164000  0.16997000  1
  C  C27  1  0.19347000  0.33552000  0.12827000  1
  C  C28  1  0.20751000  0.41517000  0.09976000  1
  C  C29  1  0.23217000  0.48276000  0.11197000  1
  C  C30  1  0.25307000  0.47598000  0.15348000  1
  C  C31  1  0.24312000  0.69113000  0.16857000  1
  C  C32  1  0.14753000  0.63893000  0.15575000  1
  C  C33  1  0.10000000  0.66337000  0.15602000  1
  C  C34  1  0.14547000  0.75077000  0.15748000  1
  C  C35  1  0.23988000  0.80054000  0.17321000  1
  C  C36  1  0.29613000  0.66756000  0.16717000  1
  C  C37  1  0.30331000  0.55751000  0.16619000  1
  C  C38  1  0.39263000  0.62344000  0.16313000  1
  C  C39  1  0.43173000  0.71238000  0.15774000  1
  C  C40  1  0.38263000  0.73557000  0.15801000  1
  C  C41  1  0.30814000  0.67002000  0.65089000  1
  C  C42  1  0.40057000  0.70452000  0.66304000  1
  C  C43  1  0.42767000  0.66341000  0.65927000  1
  C  C44  1  0.36264000  0.58263000  0.64783000  1
  C  C45  1  0.27041000  0.54312000  0.63890000  1
  C  C46  1  0.20724000  0.38177000  0.66339000  1
  C  C47  1  0.24994000  0.40101000  0.18252000  1
  C  C48  1  0.28793000  0.76833000  0.18094000  1
  C  C49  1  0.34786000  0.14115000  0.55900000  1
  C  C50  1  0.28865000  0.13727000  0.52018000  1
  C  C51  1  0.32008000  0.16951000  0.48615000  1
  C  C52  1  0.40756000  0.19941000  0.49123000  1
  C  C53  1  0.46452000  0.19783000  0.53034000  1
  C  C54  1  0.43473000  0.16974000  0.56414000  1
  C  C55  1  0.42744000  0.21591000  0.99661000  1
  C  C56  1  0.42186000  0.11848000  0.07772000  1
  C  C57  1  0.35093000  0.12699000  0.05162000  1
  C  C58  1  0.35515000  0.17748000  0.01124000  1
  C  C59  1  0.07281000  0.02901000  0.96683000  1
  C  C60  1  0.08417000  0.08845000  0.86188000  1
  C  C61  1  0.08500000  0.09958000  0.89504000  1
  C  C62  1  0.05021000  0.98887000  0.82807000  1
  C  C63  1  0.03783000  0.00190000  0.85860000  1
  C  C64  1  0.03634000  0.02459000  0.92408000  1
  C  C65  1  0.00113000  0.91275000  0.31613000  1
  C  C66  1  0.00084000  0.00951000  0.36768000  1
  C  C67  1  0.49641000  0.16054000  0.06359000  1
  C  C68  1  0.98625000  0.97549000  0.24297000  1
  C  C69  1  0.52430000  0.70748000  0.66461000  1
  C  C70  1  0.97695000  0.94002000  0.91619000  1
  C  C71  1  0.99066000  0.00309000  0.40270000  1
  C  C72  1  0.95577000  0.94088000  0.31556000  1
  C  C73  1  0.98180000  0.92774000  0.88543000  1
  C  C74  1  0.50033000  0.21076000  0.02308000  1
  C  C75  1  0.71863000  0.31478000  0.00116000  1
  C  C76  1  0.63262000  0.24994000  0.01040000  1
  C  C77  1  0.58825000  0.27679000  0.01187000  1
  C  C78  1  0.63093000  0.36716000  0.00596000  1
  C  C79  1  0.71879000  0.43081000  0.00040000  1
  C  C80  1  0.76007000  0.40601000  0.99481000  1
  C  C81  1  0.67079000  0.22192000  0.54141000  1
  C  C82  1  0.58008000  0.19141000  0.53041000  1
  C  C83  1  0.55913000  0.23642000  0.53551000  1
  C  C84  1  0.62857000  0.31580000  0.54811000  1
  C  C85  1  0.71890000  0.34875000  0.55763000  1
  C  C86  1  0.74035000  0.30108000  0.55515000  1
  C  C87  1  0.89829000  0.75746000  0.03497000  1
  C  C88  1  0.78146000  0.90293000  0.13844000  1
  C  C89  1  0.88090000  0.15060000  0.04171000  1
  C  C90  1  0.94758000  0.70083000  0.57971000  1
  C  C91  1  0.79993000  0.82421000  0.68006000  1
  C  C92  1  0.94258000  0.90649000  0.46790000  1
  C  C93  1  0.79936000  0.02913000  0.57207000  1
  C  C94  1  0.97852000  0.91638000  0.80979000  1
  C  C95  1  0.98908000  0.90765000  0.77968000  1
  C  C96  1  0.88250000  0.85072000  0.37393000  1
  C  C97  1  0.94854000  0.93283000  0.35383000  1
  C  C98  1  0.92896000  0.91972000  0.42452000  1
  C  C99  1  0.87221000  0.84431000  0.40889000  1
  C  C100  1  0.93810000  0.00035000  0.24266000  1
  C  C101  1  0.92206000  0.98206000  0.27852000  1
  C  C102  1  0.58282000  0.71292000  0.70355000  1
  C  C103  1  0.55479000  0.73265000  0.63163000  1
  C  C104  1  0.64272000  0.76270000  0.63753000  1
  C  C105  1  0.70234000  0.77108000  0.67618000  1
  C  C106  1  0.67156000  0.74490000  0.70929000  1
  C  C107  1  0.59530000  0.78342000  0.18639000  1
  C  C108  1  0.52495000  0.77990000  0.15232000  1
  C  C109  1  0.53905000  0.81446000  0.11312000  1
  C  C110  1  0.62014000  0.84628000  0.10826000  1
  C  C111  1  0.68815000  0.84452000  0.14253000  1
  C  C112  1  0.67407000  0.81083000  0.18162000  1
  C  C113  1  0.67129000  0.02628000  0.56382000  1
  C  C114  1  0.74954000  0.06964000  0.55188000  1
  C  C115  1  0.79179000  0.15980000  0.52983000  1
  C  C116  1  0.76216000  0.20807000  0.52395000  1
  C  C117  1  0.69226000  0.16753000  0.54138000  1
  C  C118  1  0.64557000  0.07554000  0.56051000  1
  C  C119  1  0.80690000  0.44952000  0.60300000  1
  C  C120  1  0.79039000  0.43774000  0.56608000  1
  C  C121  1  0.82480000  0.51265000  0.53385000  1
  C  C122  1  0.87080000  0.59792000  0.53754000  1
  C  C123  1  0.88554000  0.60980000  0.57404000  1
  C  C124  1  0.85433000  0.53526000  0.60697000  1
  C  C125  1  0.76450000  0.17755000  0.99276000  1
  C  C126  1  0.85355000  0.21154000  0.01662000  1
  C  C127  1  0.90397000  0.29169000  0.02715000  1
  C  C128  1  0.86051000  0.32511000  0.02279000  1
  C  C129  1  0.76866000  0.28664000  0.00190000  1
  C  C130  1  0.72321000  0.21685000  0.98424000  1
  C  C131  1  0.83401000  0.59660000  0.05809000  1
  C  C132  1  0.83735000  0.66925000  0.02650000  1
  C  C133  1  0.80087000  0.66260000  0.98594000  1
  C  C134  1  0.76969000  0.58780000  0.97703000  1
  C  C135  1  0.77225000  0.51783000  0.00862000  1
  C  C136  1  0.80514000  0.52292000  0.04923000  1
  O  O1  1  0.03478000  0.08931000  0.18288000  1
  O  O2  1  0.09733000  0.15399000  0.03629000  1
  O  O3  1  0.00940000  0.95832000  0.19262000  1
  O  O4  1  0.06925000  0.78941000  0.08998000  1
  O  O5  1  0.09127000  0.84022000  0.13720000  1
  O  O6  1  0.03622000  0.22522000  0.10815000  1
  O  O7  1  0.13221000  0.20832000  0.10775000  1
  O  O8  1  0.05448000  0.94066000  0.06096000  1
  O  O9  1  0.22394000  0.97948000  0.07275000  1
  O  O10  1  0.22915000  0.09897000  0.06437000  1
  O  O11  1  0.05358000  0.95261000  0.70454000  1
  O  O12  1  0.19449000  0.92499000  0.58117000  1
  O  O13  1  0.14362000  0.86705000  0.63772000  1
  O  O14  1  0.06907000  0.16205000  0.59963000  1
  O  O15  1  0.03193000  0.90679000  0.56263000  1
  O  O16  1  0.13791000  0.01374000  0.49972000  1
  O  O17  1  0.15947000  0.08394000  0.53766000  1
  O  O18  1  0.12708000  0.00516000  0.99038000  1
  O  O19  1  0.04369000  0.04633000  0.98240000  1
  O  O20  1  0.03868000  0.05849000  0.69508000  1
  O  O21  1  0.02704000  0.75427000  0.57150000  1
  O  O22  1  0.98885000  0.98391000  0.07740000  1
  O  O23  1  0.95966000  0.82461000  0.01334000  1
  O  O24  1  0.99971000  0.07838000  0.52987000  1
  O  O25  1  0.97212000  0.15115000  0.61787000  1
  O  O26  1  0.96730000  0.04464000  0.10887000  1
  O  O27  1  0.93688000  0.83481000  0.13839000  1
  O  O28  1  0.84141000  0.96755000  0.15697000  1
  O  O29  1  0.80759000  0.87932000  0.12458000  1
  O  O30  1  0.85052000  0.09410000  0.07496000  1
  O  O31  1  0.94217000  0.15987000  0.03280000  1
  O  O32  1  0.89436000  0.76611000  0.06587000  1
  O  O33  1  0.94394000  0.98288000  0.62656000  1
  O  O34  1  0.98427000  0.81597000  0.66106000  1
  O  O35  1  0.96062000  0.92636000  0.58993000  1
  O  O36  1  0.85511000  0.89607000  0.69358000  1
  O  O37  1  0.82980000  0.80693000  0.66489000  1
  O  O38  1  0.95628000  0.84566000  0.49441000  1
  O  O39  1  0.95264000  0.96302000  0.47980000  1
  O  O40  1  0.79729000  0.98214000  0.61004000  1
  O  O41  1  0.84870000  0.04405000  0.55272000  1
  O  O42  1  0.92660000  0.72553000  0.59589000  1
  F  F1  1  0.06573000  0.34808000  0.54566000  1
  F  F2  1  0.15543000  0.50811000  0.56117000  1
  F  F3  1  0.10909000  0.69640000  0.66898000  1
  F  F4  1  0.16413000  0.59763000  0.68261000  1
  F  F5  1  0.36351000  0.95917000  0.61166000  1
  F  F6  1  0.39819000  0.85612000  0.61160000  1
  F  F7  1  0.23929000  0.55685000  0.08356000  1
  F  F8  1  0.18750000  0.42287000  0.05953000  1
  F  F9  1  0.28578000  0.88214000  0.17866000  1
  F  F10  1  0.00821000  0.60844000  0.14702000  1
  F  F11  1  0.10131000  0.57092000  0.13884000  1
  F  F12  1  0.26446000  0.16876000  0.44828000  1
  F  F13  1  0.28781000  0.18741000  0.98582000  1
  F  F14  1  0.17643000  0.23864000  0.68524000  1
  F  F15  1  0.25225000  0.39163000  0.70208000  1
  F  F16  1  0.27568000  0.39594000  0.22285000  1
  F  F17  1  0.21421000  0.25744000  0.19824000  1
  F  F18  1  0.37682000  0.81135000  0.20064000  1
  F  F19  1  0.31933000  0.11216000  0.59211000  1
  F  F20  1  0.43716000  0.23025000  0.45816000  1
  F  F21  1  0.42958000  0.26298000  0.95719000  1
  F  F22  1  0.41815000  0.06892000  0.11675000  1
  F  F23  1  0.49003000  0.16960000  0.60205000  1
  F  F24  1  0.47193000  0.81212000  0.07978000  1
  F  F25  1  0.49885000  0.72778000  0.59380000  1
  F  F26  1  0.99364000  0.33288000  0.04502000  1
  F  F27  1  0.72828000  0.75187000  0.74691000  1
  F  F28  1  0.55329000  0.68606000  0.73591000  1
  F  F29  1  0.67152000  0.78804000  0.60523000  1
  F  F30  1  0.73923000  0.80887000  0.21512000  1
  F  F31  1  0.58348000  0.75195000  0.22445000  1
  F  F32  1  0.63383000  0.88162000  0.07029000  1
  F  F33  1  0.57874000  0.03491000  0.57803000  1
  F  F34  1  0.62458000  0.93738000  0.58184000  1
  F  F35  1  0.80277000  0.29465000  0.50220000  1
  F  F36  1  0.86471000  0.20209000  0.51617000  1
  F  F37  1  0.87144000  0.54599000  0.64301000  1
  F  F38  1  0.77408000  0.37747000  0.63448000  1
  F  F39  1  0.90145000  0.66945000  0.50558000  1
  F  F40  1  0.80900000  0.50212000  0.49801000  1
  F  F41  1  0.63840000  0.18550000  0.95989000  1
  F  F42  1  0.71613000  0.10322000  0.97998000  1
  F  F43  1  0.90585000  0.39034000  0.04136000  1
  F  F44  1  0.80447000  0.45396000  0.08015000  1
  F  F45  1  0.85951000  0.59779000  0.09743000  1
  F  F46  1  0.73371000  0.58166000  0.93780000  1
  F  F47  1  0.79475000  0.72825000  0.95526000  1
  F  F48  1  0.56678000  0.15593000  0.08973000  1
