# generated using pymatgen
data_Ni4H24C49N3O14
_symmetry_space_group_name_H-M   'P 1'
_cell_length_a   20.70808000
_cell_length_b   18.45694000
_cell_length_c   52.61912000
_cell_angle_alpha   90.61457000
_cell_angle_beta   90.72493000
_cell_angle_gamma   113.96772000
_symmetry_Int_Tables_number   1
_chemical_formula_structural   Ni4H24C49N3O14
_chemical_formula_sum   'Ni16 H96 C196 N12 O56'
_cell_volume   18373.07668852
_cell_formula_units_Z   4
loop_
 _symmetry_equiv_pos_site_id
 _symmetry_equiv_pos_as_xyz
  1  'x, y, z'
loop_
 _atom_site_type_symbol
 _atom_site_label
 _atom_site_symmetry_multiplicity
 _atom_site_fract_x
 _atom_site_fract_y
 _atom_site_fract_z
 _atom_site_occupancy
  Ni  Ni1  1  0.41670000  0.74829000  0.01657000  1
  Ni  Ni2  1  0.25954000  0.71836000  0.02697000  1
  Ni  Ni3  1  0.39182000  0.89464000  0.04325000  1
  Ni  Ni4  1  0.33035000  0.82819000  0.38896000  1
  Ni  Ni5  1  0.35496000  0.67669000  0.40733000  1
  Ni  Ni6  1  0.20359000  0.67193000  0.41475000  1
  Ni  Ni7  1  0.23017000  0.52446000  0.43626000  1
  Ni  Ni8  1  0.53820000  0.27138000  0.49054000  1
  Ni  Ni9  1  0.69050000  0.41940000  0.51506000  1
  Ni  Ni10  1  0.64588000  0.24056000  0.52752000  1
  Ni  Ni11  1  0.81153000  0.37468000  0.54138000  1
  Ni  Ni12  1  0.63840000  0.20819000  0.87481000  1
  Ni  Ni13  1  0.76234000  0.35683000  0.91247000  1
  Ni  Ni14  1  0.60552000  0.33532000  0.90795000  1
  Ni  Ni15  1  0.73187000  0.50411000  0.93036000  1
  Ni  Ni16  1  0.27711000  0.58843000  0.99100000  1
  H  H1  1  0.56785000  0.94271000  0.99921000  1
  H  H2  1  0.63978000  0.03105000  0.98979000  1
  H  H3  1  0.07156000  0.51221000  0.02476000  1
  H  H4  1  0.59298000  0.58322000  0.02155000  1
  H  H5  1  0.52090000  0.61206000  0.02556000  1
  H  H6  1  0.97820000  0.45556000  0.02589000  1
  H  H7  1  0.36505000  0.76064000  0.05847000  1
  H  H8  1  0.15273000  0.30626000  0.08901000  1
  H  H9  1  0.06908000  0.78720000  0.12402000  1
  H  H10  1  0.63104000  0.78772000  0.11826000  1
  H  H11  1  0.09674000  0.22125000  0.12537000  1
  H  H12  1  0.12627000  0.50213000  0.12566000  1
  H  H13  1  0.00908000  0.82730000  0.15818000  1
  H  H14  1  0.56373000  0.97654000  0.13221000  1
  H  H15  1  0.23906000  0.02010000  0.12653000  1
  H  H16  1  0.70465000  0.82563000  0.15743000  1
  H  H17  1  0.07019000  0.41707000  0.16202000  1
  H  H18  1  0.92373000  0.05936000  0.17124000  1
  H  H19  1  0.63751000  0.01456000  0.17134000  1
  H  H20  1  0.17909000  0.06019000  0.16075000  1
  H  H21  1  0.62342000  0.93011000  0.25602000  1
  H  H22  1  0.95103000  0.10369000  0.26315000  1
  H  H23  1  0.19215000  0.33792000  0.26802000  1
  H  H24  1  0.14128000  0.93320000  0.26424000  1
  H  H25  1  0.02564000  0.42080000  0.26470000  1
  H  H26  1  0.52969000  0.86895000  0.28744000  1
  H  H27  1  0.94614000  0.88333000  0.30303000  1
  H  H28  1  0.07419000  0.50195000  0.30350000  1
  H  H29  1  0.24054000  0.41878000  0.30692000  1
  H  H30  1  0.18335000  0.87696000  0.29995000  1
  H  H31  1  0.78142000  0.94754000  0.31269000  1
  H  H32  1  0.98826000  0.82724000  0.33876000  1
  H  H33  1  0.68777000  0.88649000  0.34408000  1
  H  H34  1  0.27339000  0.68920000  0.37276000  1
  H  H35  1  0.64087000  0.02349000  0.44544000  1
  H  H36  1  0.58202000  0.48496000  0.41782000  1
  H  H37  1  0.53347000  0.90957000  0.43739000  1
  H  H38  1  0.49186000  0.53311000  0.41968000  1
  H  H39  1  0.87480000  0.30975000  0.43241000  1
  H  H40  1  0.99149000  0.41182000  0.43275000  1
  H  H41  1  0.61414000  0.45345000  0.44542000  1
  H  H42  1  0.80480000  0.31974000  0.44975000  1
  H  H43  1  0.64799000  0.09579000  0.46957000  1
  H  H44  1  0.28868000  0.66804000  0.44996000  1
  H  H45  1  0.66474000  0.30119000  0.48434000  1
  H  H46  1  0.91631000  0.56128000  0.49642000  1
  H  H47  1  0.31372000  0.80527000  0.47883000  1
  H  H48  1  0.10659000  0.63721000  0.48694000  1
  H  H49  1  0.03583000  0.65543000  0.50069000  1
  H  H50  1  0.36669000  0.58576000  0.48737000  1
  H  H51  1  0.42058000  0.00325000  0.50562000  1
  H  H52  1  0.48755000  0.50402000  0.51351000  1
  H  H53  1  0.31763000  0.88162000  0.50094000  1
  H  H54  1  0.39836000  0.55462000  0.51523000  1
  H  H55  1  0.69724000  0.36240000  0.55769000  1
  H  H56  1  0.74742000  0.01474000  0.62060000  1
  H  H57  1  0.42310000  0.10978000  0.62333000  1
  H  H58  1  0.92079000  0.57334000  0.62474000  1
  H  H59  1  0.30723000  0.23567000  0.59092000  1
  H  H60  1  0.77999000  0.69053000  0.61498000  1
  H  H61  1  0.80575000  0.97445000  0.65553000  1
  H  H62  1  0.22505000  0.19580000  0.62691000  1
  H  H63  1  0.34095000  0.06987000  0.65926000  1
  H  H64  1  0.97116000  0.65361000  0.66360000  1
  H  H65  1  0.86355000  0.25992000  0.64243000  1
  H  H66  1  0.03963000  0.98863000  0.67036000  1
  H  H67  1  0.83010000  0.77049000  0.65390000  1
  H  H68  1  0.92195000  0.21964000  0.67735000  1
  H  H69  1  0.90475000  0.19139000  0.76808000  1
  H  H70  1  0.08314000  0.00091000  0.76201000  1
  H  H71  1  0.03068000  0.70566000  0.78576000  1
  H  H72  1  0.38591000  0.22555000  0.74123000  1
  H  H73  1  0.22266000  0.22413000  0.79132000  1
  H  H74  1  0.85401000  0.23257000  0.80491000  1
  H  H75  1  0.97320000  0.61349000  0.82040000  1
  H  H76  1  0.91077000  0.99640000  0.81090000  1
  H  H77  1  0.83936000  0.74024000  0.77269000  1
  H  H78  1  0.31074000  0.27781000  0.82618000  1
  H  H79  1  0.47420000  0.28063000  0.77596000  1
  H  H80  1  0.86014000  0.03765000  0.84773000  1
  H  H81  1  0.78192000  0.64813000  0.80731000  1
  H  H82  1  0.68824000  0.35241000  0.87242000  1
  H  H83  1  0.35550000  0.04012000  0.92484000  1
  H  H84  1  0.42837000  0.12907000  0.91606000  1
  H  H85  1  0.39924000  0.46417000  0.91102000  1
  H  H86  1  0.94425000  0.55709000  0.90837000  1
  H  H87  1  0.47223000  0.43735000  0.90654000  1
  H  H88  1  0.03002000  0.63651000  0.91086000  1
  H  H89  1  0.36813000  0.95145000  0.95511000  1
  H  H90  1  0.38764000  0.53143000  0.94837000  1
  H  H91  1  0.68694000  0.36892000  0.94815000  1
  H  H92  1  0.10408000  0.65295000  0.94726000  1
  H  H93  1  0.31702000  0.73252000  0.98468000  1
  H  H94  1  0.90053000  0.45231000  0.99174000  1
  H  H95  1  0.62706000  0.11592000  0.95844000  1
  H  H96  1  0.60443000  0.51506000  0.98430000  1
  C  C1  1  0.22902000  0.55594000  0.04527000  1
  C  C2  1  0.24376000  0.83571000  0.06220000  1
  C  C3  1  0.52162000  0.86520000  0.04935000  1
  C  C4  1  0.19879000  0.50164000  0.06555000  1
  C  C5  1  0.21445000  0.86104000  0.08328000  1
  C  C6  1  0.17343000  0.45881000  0.08324000  1
  C  C7  1  0.54856000  0.87054000  0.07472000  1
  C  C8  1  0.18902000  0.88018000  0.10125000  1
  C  C9  1  0.14282000  0.40975000  0.10479000  1
  C  C10  1  0.13504000  0.33071000  0.10494000  1
  C  C11  1  0.56999000  0.87535000  0.09627000  1
  C  C12  1  0.09353000  0.84658000  0.13215000  1
  C  C13  1  0.15747000  0.90141000  0.12269000  1
  C  C14  1  0.10354000  0.28266000  0.12557000  1
  C  C15  1  0.12013000  0.44095000  0.12559000  1
  C  C16  1  0.59524000  0.88204000  0.12205000  1
  C  C17  1  0.63115000  0.83619000  0.13010000  1
  C  C18  1  0.05980000  0.86911000  0.15161000  1
  C  C19  1  0.07964000  0.31341000  0.14615000  1
  C  C20  1  0.08859000  0.39287000  0.14622000  1
  C  C21  1  0.59329000  0.94243000  0.13795000  1
  C  C22  1  0.18922000  0.97768000  0.13356000  1
  C  C23  1  0.67242000  0.85732000  0.15236000  1
  C  C24  1  0.08983000  0.94654000  0.16168000  1
  C  C25  1  0.15549000  0.00021000  0.15305000  1
  C  C26  1  0.04145000  0.26173000  0.16623000  1
  C  C27  1  0.63465000  0.96358000  0.16019000  1
  C  C28  1  0.67853000  0.92495000  0.16634000  1
  C  C29  1  0.04867000  0.97419000  0.17778000  1
  C  C30  1  0.00981000  0.21603000  0.18252000  1
  C  C31  1  0.74114000  0.96620000  0.18142000  1
  C  C32  1  0.79405000  0.99970000  0.19397000  1
  C  C33  1  0.01416000  0.99730000  0.19127000  1
  C  C34  1  0.93036000  0.06965000  0.19217000  1
  C  C35  1  0.86095000  0.04190000  0.20673000  1
  C  C36  1  0.97134000  0.02761000  0.20562000  1
  C  C37  1  0.96989000  0.15655000  0.20057000  1
  C  C38  1  0.86809000  0.05378000  0.23244000  1
  C  C39  1  0.97903000  0.04014000  0.23134000  1
  C  C40  1  0.97724000  0.16876000  0.22634000  1
  C  C41  1  0.02345000  0.24295000  0.23806000  1
  C  C42  1  0.00317000  0.99409000  0.24784000  1
  C  C43  1  0.94479000  0.09335000  0.24222000  1
  C  C44  1  0.81055000  0.01465000  0.24958000  1
  C  C45  1  0.06008000  0.30131000  0.25010000  1
  C  C46  1  0.76373000  0.98215000  0.26431000  1
  C  C47  1  0.02171000  0.95731000  0.26286000  1
  C  C48  1  0.63760000  0.92038000  0.27519000  1
  C  C49  1  0.10368000  0.37101000  0.26446000  1
  C  C50  1  0.16742000  0.37540000  0.27529000  1
  C  C51  1  0.04122000  0.91277000  0.28136000  1
  C  C52  1  0.70877000  0.94341000  0.28228000  1
  C  C53  1  0.07381000  0.42206000  0.27340000  1
  C  C54  1  0.10736000  0.90908000  0.28030000  1
  C  C55  1  0.58451000  0.88559000  0.29297000  1
  C  C56  1  0.19464000  0.42090000  0.29740000  1
  C  C57  1  0.13122000  0.87741000  0.30053000  1
  C  C58  1  0.99752000  0.88098000  0.30214000  1
  C  C59  1  0.72655000  0.93020000  0.30709000  1
  C  C60  1  0.15861000  0.46277000  0.30845000  1
  C  C61  1  0.10106000  0.46766000  0.29547000  1
  C  C62  1  0.02140000  0.84940000  0.32239000  1
  C  C63  1  0.60241000  0.87369000  0.31791000  1
  C  C64  1  0.08899000  0.84939000  0.32190000  1
  C  C65  1  0.67350000  0.89546000  0.32486000  1
  C  C66  1  0.54829000  0.84328000  0.33674000  1
  C  C67  1  0.17196000  0.48762000  0.33466000  1
  C  C68  1  0.11734000  0.82680000  0.34402000  1
  C  C69  1  0.50322000  0.81786000  0.35258000  1
  C  C70  1  0.18229000  0.50884000  0.35661000  1
  C  C71  1  0.14280000  0.80836000  0.36221000  1
  C  C72  1  0.44959000  0.78997000  0.37153000  1
  C  C73  1  0.17633000  0.78830000  0.38331000  1
  C  C74  1  0.19249000  0.53343000  0.38277000  1
  C  C75  1  0.39290000  0.82606000  0.43911000  1
  C  C76  1  0.50906000  0.92952000  0.45248000  1
  C  C77  1  0.97592000  0.44326000  0.44730000  1
  C  C78  1  0.49124000  0.52723000  0.44017000  1
  C  C79  1  0.38891000  0.56473000  0.44072000  1
  C  C80  1  0.09766000  0.55171000  0.44608000  1
  C  C81  1  0.43754000  0.88574000  0.45785000  1
  C  C82  1  0.54776000  0.00200000  0.46511000  1
  C  C83  1  0.02568000  0.51604000  0.45716000  1
  C  C84  1  0.53686000  0.49807000  0.45200000  1
  C  C85  1  0.90553000  0.41156000  0.45560000  1
  C  C86  1  0.44234000  0.54492000  0.45435000  1
  C  C87  1  0.00427000  0.55750000  0.47578000  1
  C  C88  1  0.88422000  0.45368000  0.47395000  1
  C  C89  1  0.93280000  0.52838000  0.48267000  1
  C  C90  1  0.81732000  0.41403000  0.48782000  1
  C  C91  1  0.51401000  0.03072000  0.48335000  1
  C  C92  1  0.53460000  0.48827000  0.47871000  1
  C  C93  1  0.57083000  0.44347000  0.49124000  1
  C  C94  1  0.54580000  0.11392000  0.49201000  1
  C  C95  1  0.40691000  0.90951000  0.47841000  1
  C  C96  1  0.44525000  0.98255000  0.49080000  1
  C  C97  1  0.44247000  0.53897000  0.48112000  1
  C  C98  1  0.48868000  0.51065000  0.49305000  1
  C  C99  1  0.80489000  0.53211000  0.54557000  1
  C  C100  1  0.50719000  0.23193000  0.54536000  1
  C  C101  1  0.74407000  0.21244000  0.56298000  1
  C  C102  1  0.45720000  0.21256000  0.56560000  1
  C  C103  1  0.81904000  0.56825000  0.57033000  1
  C  C104  1  0.76383000  0.18531000  0.58597000  1
  C  C105  1  0.78149000  0.16411000  0.60541000  1
  C  C106  1  0.41713000  0.19592000  0.58320000  1
  C  C107  1  0.83201000  0.59642000  0.59145000  1
  C  C108  1  0.78451000  0.05952000  0.63324000  1
  C  C109  1  0.37034000  0.17482000  0.60457000  1
  C  C110  1  0.38015000  0.12896000  0.62410000  1
  C  C111  1  0.84896000  0.62886000  0.61678000  1
  C  C112  1  0.80321000  0.14011000  0.62873000  1
  C  C113  1  0.31493000  0.19982000  0.60586000  1
  C  C114  1  0.90002000  0.61535000  0.63131000  1
  C  C115  1  0.27749000  0.13017000  0.64555000  1
  C  C116  1  0.26859000  0.17756000  0.62631000  1
  C  C117  1  0.33385000  0.10670000  0.64452000  1
  C  C118  1  0.82076000  0.68125000  0.62582000  1
  C  C119  1  0.81724000  0.03670000  0.65310000  1
  C  C120  1  0.84987000  0.19749000  0.64553000  1
  C  C121  1  0.92816000  0.66034000  0.65342000  1
  C  C122  1  0.22516000  0.09942000  0.66499000  1
  C  C123  1  0.84879000  0.72608000  0.64795000  1
  C  C124  1  0.86906000  0.09446000  0.66839000  1
  C  C125  1  0.90559000  0.71921000  0.66089000  1
  C  C126  1  0.88265000  0.17466000  0.66538000  1
  C  C127  1  0.18145000  0.07363000  0.68127000  1
  C  C128  1  0.91786000  0.07325000  0.68285000  1
  C  C129  1  0.95058000  0.78346000  0.67700000  1
  C  C130  1  0.95790000  0.05365000  0.69477000  1
  C  C131  1  0.04938000  0.99131000  0.69126000  1
  C  C132  1  0.03023000  0.91071000  0.70379000  1
  C  C133  1  0.12619000  0.03932000  0.69964000  1
  C  C134  1  0.98649000  0.83895000  0.69027000  1
  C  C135  1  0.00819000  0.02873000  0.70677000  1
  C  C136  1  0.04183000  0.91382000  0.72954000  1
  C  C137  1  0.13861000  0.04325000  0.72528000  1
  C  C138  1  0.02037000  0.03237000  0.73242000  1
  C  C139  1  0.07291000  0.99804000  0.74113000  1
  C  C140  1  0.19870000  0.10610000  0.73702000  1
  C  C141  1  0.97990000  0.05503000  0.75051000  1
  C  C142  1  0.00594000  0.84639000  0.74553000  1
  C  C143  1  0.24565000  0.15683000  0.74888000  1
  C  C144  1  0.94859000  0.07282000  0.76686000  1
  C  C145  1  0.97591000  0.79311000  0.75989000  1
  C  C146  1  0.29791000  0.21708000  0.76440000  1
  C  C147  1  0.91135000  0.09130000  0.78705000  1
  C  C148  1  0.89444000  0.15728000  0.78534000  1
  C  C149  1  0.97607000  0.69232000  0.79016000  1
  C  C150  1  0.36963000  0.23920000  0.75952000  1
  C  C151  1  0.86600000  0.18076000  0.80622000  1
  C  C152  1  0.93907000  0.72963000  0.77700000  1
  C  C153  1  0.27788000  0.23837000  0.78771000  1
  C  C154  1  0.94357000  0.64027000  0.80982000  1
  C  C155  1  0.89782000  0.04753000  0.80946000  1
  C  C156  1  0.41960000  0.27036000  0.77920000  1
  C  C157  1  0.86943000  0.07103000  0.83034000  1
  C  C158  1  0.85442000  0.13834000  0.82887000  1
  C  C159  1  0.86838000  0.71178000  0.78280000  1
  C  C160  1  0.82852000  0.16501000  0.85071000  1
  C  C161  1  0.32776000  0.26890000  0.80746000  1
  C  C162  1  0.39757000  0.27852000  0.80376000  1
  C  C163  1  0.87393000  0.62532000  0.81639000  1
  C  C164  1  0.83591000  0.65977000  0.80246000  1
  C  C165  1  0.84342000  0.57976000  0.83860000  1
  C  C166  1  0.80678000  0.18922000  0.86857000  1
  C  C167  1  0.43978000  0.27516000  0.82514000  1
  C  C168  1  0.47820000  0.27182000  0.84197000  1
  C  C169  1  0.81765000  0.54169000  0.85717000  1
  C  C170  1  0.78007000  0.22067000  0.88892000  1
  C  C171  1  0.52625000  0.26298000  0.86010000  1
  C  C172  1  0.78783000  0.49774000  0.87959000  1
  C  C173  1  0.56057000  0.16643000  0.92365000  1
  C  C174  1  0.45341000  0.05472000  0.94066000  1
  C  C175  1  0.57514000  0.45564000  0.93703000  1
  C  C176  1  0.86525000  0.48079000  0.94505000  1
  C  C177  1  0.42468000  0.98687000  0.95572000  1
  C  C178  1  0.52725000  0.10116000  0.94153000  1
  C  C179  1  0.47021000  0.49066000  0.94194000  1
  C  C180  1  0.43483000  0.52760000  0.95621000  1
  C  C181  1  0.99388000  0.57406000  0.94442000  1
  C  C182  1  0.05974000  0.60884000  0.95691000  1
  C  C183  1  0.53213000  0.48629000  0.95222000  1
  C  C184  1  0.93548000  0.51832000  0.95739000  1
  C  C185  1  0.46147000  0.56261000  0.98000000  1
  C  C186  1  0.94517000  0.49547000  0.98196000  1
  C  C187  1  0.42671000  0.60751000  0.99313000  1
  C  C188  1  0.14309000  0.61071000  0.99110000  1
  C  C189  1  0.07041000  0.58295000  0.98090000  1
  C  C190  1  0.46789000  0.96581000  0.97217000  1
  C  C191  1  0.57051000  0.08039000  0.95792000  1
  C  C192  1  0.43398000  0.90099000  0.99035000  1
  C  C193  1  0.01258000  0.52528000  0.99360000  1
  C  C194  1  0.54194000  0.01294000  0.97315000  1
  C  C195  1  0.55712000  0.51862000  0.97647000  1
  C  C196  1  0.52233000  0.55668000  0.99053000  1
  N  N1  1  0.58585000  0.99431000  0.98866000  1
  N  N2  1  0.02160000  0.49652000  0.01647000  1
  N  N3  1  0.54725000  0.58663000  0.01414000  1
  N  N4  1  0.61689000  0.04394000  0.45951000  1
  N  N5  1  0.58093000  0.47745000  0.43750000  1
  N  N6  1  0.85841000  0.34170000  0.44544000  1
  N  N7  1  0.05244000  0.62243000  0.48815000  1
  N  N8  1  0.34103000  0.86246000  0.48635000  1
  N  N9  1  0.39898000  0.56079000  0.49550000  1
  N  N10  1  0.40965000  0.07589000  0.92592000  1
  N  N11  1  0.44548000  0.46151000  0.91823000  1
  N  N12  1  0.98801000  0.59147000  0.91965000  1
  O  O1  1  0.38431000  0.90350000  0.00507000  1
  O  O2  1  0.21795000  0.52991000  0.02160000  1
  O  O3  1  0.35959000  0.77984000  0.04141000  1
  O  O4  1  0.51096000  0.80171000  0.03532000  1
  O  O5  1  0.29003000  0.88898000  0.04768000  1
  O  O6  1  0.25999000  0.63169000  0.05070000  1
  O  O7  1  0.49671000  0.91708000  0.04180000  1
  O  O8  1  0.21666000  0.76021000  0.05550000  1
  O  O9  1  0.43081000  0.71778000  0.38031000  1
  O  O10  1  0.43235000  0.84208000  0.38383000  1
  O  O11  1  0.23599000  0.84117000  0.39270000  1
  O  O12  1  0.28606000  0.71224000  0.39013000  1
  O  O13  1  0.14563000  0.71883000  0.39391000  1
  O  O14  1  0.15687000  0.57216000  0.39208000  1
  O  O15  1  0.22823000  0.50666000  0.39796000  1
  O  O16  1  0.34192000  0.83801000  0.42751000  1
  O  O17  1  0.41237000  0.62051000  0.42357000  1
  O  O18  1  0.41487000  0.77340000  0.43005000  1
  O  O19  1  0.12472000  0.50404000  0.43622000  1
  O  O20  1  0.27473000  0.64090000  0.43319000  1
  O  O21  1  0.12321000  0.62689000  0.43979000  1
  O  O22  1  0.32437000  0.50854000  0.43858000  1
  O  O23  1  0.53928000  0.16837000  0.47723000  1
  O  O24  1  0.64052000  0.47218000  0.49236000  1
  O  O25  1  0.77203000  0.44788000  0.48911000  1
  O  O26  1  0.81173000  0.35666000  0.50319000  1
  O  O27  1  0.63890000  0.30867000  0.49914000  1
  O  O28  1  0.53300000  0.37644000  0.50240000  1
  O  O29  1  0.57292000  0.13091000  0.51540000  1
  O  O30  1  0.74699000  0.52482000  0.53302000  1
  O  O31  1  0.48432000  0.21308000  0.52183000  1
  O  O32  1  0.84314000  0.49424000  0.53751000  1
  O  O33  1  0.71125000  0.35146000  0.54063000  1
  O  O34  1  0.79341000  0.25682000  0.54750000  1
  O  O35  1  0.67685000  0.18810000  0.55661000  1
  O  O36  1  0.57422000  0.25495000  0.55120000  1
  O  O37  1  0.56915000  0.23054000  0.85216000  1
  O  O38  1  0.71338000  0.18358000  0.89492000  1
  O  O39  1  0.67837000  0.31778000  0.88736000  1
  O  O40  1  0.81441000  0.29570000  0.89548000  1
  O  O41  1  0.81555000  0.45118000  0.88923000  1
  O  O42  1  0.51944000  0.27560000  0.88457000  1
  O  O43  1  0.73938000  0.51200000  0.89184000  1
  O  O44  1  0.55838000  0.14956000  0.89933000  1
  O  O45  1  0.63245000  0.50675000  0.92624000  1
  O  O46  1  0.69377000  0.38888000  0.93056000  1
  O  O47  1  0.84265000  0.40524000  0.93816000  1
  O  O48  1  0.54887000  0.37993000  0.93021000  1
  O  O49  1  0.58018000  0.24014000  0.93168000  1
  O  O50  1  0.83753000  0.52757000  0.93471000  1
  O  O51  1  0.19172000  0.60213000  0.97677000  1
  O  O52  1  0.45711000  0.68553000  0.99407000  1
  O  O53  1  0.31867000  0.70151000  0.99972000  1
  O  O54  1  0.36458000  0.56944000  0.00339000  1
  O  O55  1  0.45088000  0.83920000  0.99049000  1
  O  O56  1  0.15893000  0.64856000  0.01347000  1
