# generated using pymatgen
data_Zn3H41C51NO14
_symmetry_space_group_name_H-M   'P 1'
_cell_length_a   29.56117000
_cell_length_b   25.30020000
_cell_length_c   25.21733000
_cell_angle_alpha   89.92837000
_cell_angle_beta   89.92557000
_cell_angle_gamma   90.92243000
_symmetry_Int_Tables_number   1
_chemical_formula_structural   Zn3H41C51NO14
_chemical_formula_sum   'Zn12 H164 C204 N4 O56'
_cell_volume   18857.65440758
_cell_formula_units_Z   4
loop_
 _symmetry_equiv_pos_site_id
 _symmetry_equiv_pos_as_xyz
  1  'x, y, z'
loop_
 _atom_site_type_symbol
 _atom_site_label
 _atom_site_symmetry_multiplicity
 _atom_site_fract_x
 _atom_site_fract_y
 _atom_site_fract_z
 _atom_site_occupancy
  Zn  Zn1  1  0.53191000  0.50275000  0.01450000  1
  Zn  Zn2  1  0.55729000  0.52671000  0.12386000  1
  Zn  Zn3  1  0.31620000  0.18313000  0.95451000  1
  Zn  Zn4  1  0.29240000  0.27333000  0.02656000  1
  Zn  Zn5  1  0.70491000  0.88694000  0.98737000  1
  Zn  Zn6  1  0.72718000  0.79914000  0.06600000  1
  Zn  Zn7  1  0.20297000  0.61260000  0.01780000  1
  Zn  Zn8  1  0.23874000  0.69898000  0.09120000  1
  Zn  Zn9  1  0.83414000  0.28174000  0.99027000  1
  Zn  Zn10  1  0.76560000  0.24577000  0.90758000  1
  Zn  Zn11  1  0.02236000  0.98947000  0.02332000  1
  Zn  Zn12  1  0.04616000  0.97715000  0.13845000  1
  H  H1  1  0.44549000  0.09565000  0.27259000  1
  H  H2  1  0.54115000  0.97178000  0.28101000  1
  H  H3  1  0.58849000  0.99228000  0.67931000  1
  H  H4  1  0.46160000  0.07006000  0.66935000  1
  H  H5  1  0.57324000  0.14183000  0.42056000  1
  H  H6  1  0.58611000  0.13660000  0.51645000  1
  H  H7  1  0.43410000  0.92780000  0.43456000  1
  H  H8  1  0.44797000  0.92168000  0.53018000  1
  H  H9  1  0.51948000  0.03793000  0.82240000  1
  H  H10  1  0.49644000  0.02676000  0.12829000  1
  H  H11  1  0.93003000  0.42995000  0.29777000  1
  H  H12  1  0.03827000  0.54397000  0.30523000  1
  H  H13  1  0.06909000  0.52922000  0.70888000  1
  H  H14  1  0.94258000  0.44631000  0.69420000  1
  H  H15  1  0.92287000  0.59442000  0.45944000  1
  H  H16  1  0.93394000  0.59886000  0.55570000  1
  H  H17  1  0.05790000  0.38188000  0.44769000  1
  H  H18  1  0.06849000  0.38590000  0.54404000  1
  H  H19  1  0.00025000  0.47193000  0.84889000  1
  H  H20  1  0.97658000  0.50648000  0.15514000  1
  H  H21  1  0.84623000  0.06473000  0.99185000  1
  H  H22  1  0.92958000  0.09338000  0.03975000  1
  H  H23  1  0.89384000  0.02975000  0.90029000  1
  H  H24  1  0.88698000  0.13316000  0.85655000  1
  H  H25  1  0.97080000  0.16145000  0.90436000  1
  H  H26  1  0.92401000  0.19534000  0.99601000  1
  H  H27  1  0.83959000  0.41791000  0.87471000  1
  H  H28  1  0.88475000  0.40091000  0.91848000  1
  H  H29  1  0.91297000  0.36947000  0.72933000  1
  H  H30  1  0.87655000  0.42384000  0.74398000  1
  H  H31  1  0.88663000  0.47559000  0.83012000  1
  H  H32  1  0.93018000  0.46018000  0.87621000  1
  H  H33  1  0.98512000  0.38111000  0.85282000  1
  H  H34  1  0.97703000  0.34647000  0.79178000  1
  H  H35  1  0.92908000  0.28865000  0.83416000  1
  H  H36  1  0.93794000  0.32448000  0.89459000  1
  H  H37  1  0.86401000  0.31318000  0.77196000  1
  H  H38  1  0.82821000  0.36738000  0.78799000  1
  H  H39  1  0.84241000  0.33252000  0.18420000  1
  H  H40  1  0.89204000  0.29292000  0.18758000  1
  H  H41  1  0.91150000  0.47646000  0.12397000  1
  H  H42  1  0.86769000  0.46394000  0.17125000  1
  H  H43  1  0.87479000  0.39227000  0.24145000  1
  H  H44  1  0.92475000  0.35284000  0.24456000  1
  H  H45  1  0.98948000  0.36921000  0.17947000  1
  H  H46  1  0.98568000  0.41837000  0.12884000  1
  H  H47  1  0.95374000  0.35954000  0.07322000  1
  H  H48  1  0.95735000  0.30908000  0.12282000  1
  H  H49  1  0.88153000  0.41606000  0.06761000  1
  H  H50  1  0.83603000  0.40439000  0.11326000  1
  H  H51  1  0.06235000  0.71961000  0.02392000  1
  H  H52  1  0.05475000  0.81147000  0.95889000  1
  H  H53  1  0.06647000  0.78548000  0.11491000  1
  H  H54  1  0.16159000  0.79097000  0.10587000  1
  H  H55  1  0.15530000  0.88096000  0.04048000  1
  H  H56  1  0.15079000  0.81590000  0.94972000  1
  H  H57  1  0.13449000  0.52106000  0.76128000  1
  H  H58  1  0.10823000  0.58420000  0.76888000  1
  H  H59  1  0.12479000  0.47799000  0.93092000  1
  H  H60  1  0.16722000  0.46948000  0.88105000  1
  H  H61  1  0.18977000  0.54627000  0.82012000  1
  H  H62  1  0.16357000  0.60922000  0.82731000  1
  H  H63  1  0.10339000  0.62253000  0.89904000  1
  H  H64  1  0.08714000  0.56898000  0.94179000  1
  H  H65  1  0.03209000  0.54527000  0.88412000  1
  H  H66  1  0.04837000  0.59749000  0.84010000  1
  H  H67  1  0.07118000  0.45161000  0.87281000  1
  H  H68  1  0.11240000  0.44443000  0.82172000  1
  H  H69  1  0.03310000  0.63549000  0.20682000  1
  H  H70  1  0.06751000  0.61330000  0.26032000  1
  H  H71  1  0.10663000  0.55314000  0.08004000  1
  H  H72  1  0.08176000  0.61682000  0.08676000  1
  H  H73  1  0.09644000  0.67299000  0.16863000  1
  H  H74  1  0.13079000  0.64829000  0.22139000  1
  H  H75  1  0.16653000  0.55657000  0.21357000  1
  H  H76  1  0.15580000  0.51660000  0.15625000  1
  H  H77  1  0.09387000  0.47992000  0.19695000  1
  H  H78  1  0.10446000  0.52033000  0.25388000  1
  H  H79  1  0.04643000  0.51435000  0.11986000  1
  H  H80  1  0.01977000  0.57774000  0.12470000  1
  H  H81  1  0.81596000  0.94949000  0.13991000  1
  H  H82  1  0.86956000  0.02222000  0.08135000  1
  H  H83  1  0.89428000  0.88938000  0.16137000  1
  H  H84  1  0.87743000  0.82933000  0.06792000  1
  H  H85  1  0.93111000  0.90230000  0.00905000  1
  H  H86  1  0.85284000  0.96215000  0.98761000  1
  H  H87  1  0.54875000  0.96316000  0.85240000  1
  H  H88  1  0.56353000  0.91411000  0.80498000  1
  H  H89  1  0.68725000  0.03654000  0.85502000  1
  H  H90  1  0.64429000  0.02587000  0.90419000  1
  H  H91  1  0.60240000  0.93526000  0.90888000  1
  H  H92  1  0.61651000  0.88412000  0.86305000  1
  H  H93  1  0.67771000  0.90072000  0.79263000  1
  H  H94  1  0.70702000  0.96320000  0.78987000  1
  H  H95  1  0.65343000  0.99438000  0.73267000  1
  H  H96  1  0.62431000  0.93149000  0.73527000  1
  H  H97  1  0.63355000  0.06706000  0.79779000  1
  H  H98  1  0.59174000  0.05669000  0.84804000  1
  H  H99  1  0.60857000  0.95667000  0.24034000  1
  H  H100  1  0.56996000  0.90150000  0.23234000  1
  H  H101  1  0.62926000  0.98521000  0.07029000  1
  H  H102  1  0.66497000  0.98799000  0.12768000  1
  H  H103  1  0.66259000  0.91205000  0.19541000  1
  H  H104  1  0.62408000  0.85740000  0.18642000  1
  H  H105  1  0.57337000  0.85301000  0.10457000  1
  H  H106  1  0.57547000  0.90528000  0.05664000  1
  H  H107  1  0.51976000  0.94716000  0.10156000  1
  H  H108  1  0.51837000  0.89647000  0.15090000  1
  H  H109  1  0.57515000  0.02863000  0.11474000  1
  H  H110  1  0.60996000  0.03147000  0.17261000  1
  H  H111  1  0.15367000  0.19195000  0.08338000  1
  H  H112  1  0.17579000  0.09148000  0.12581000  1
  H  H113  1  0.08891000  0.14274000  0.01644000  1
  H  H114  1  0.15620000  0.13186000  0.93676000  1
  H  H115  1  0.17830000  0.03136000  0.97923000  1
  H  H116  1  0.24316000  0.08093000  0.04623000  1
  H  H117  1  0.40917000  0.00063000  0.78452000  1
  H  H118  1  0.44490000  0.01578000  0.83970000  1
  H  H119  1  0.36075000  0.16472000  0.76445000  1
  H  H120  1  0.33341000  0.10111000  0.76065000  1
  H  H121  1  0.34852000  0.03104000  0.83132000  1
  H  H122  1  0.38532000  0.04565000  0.88592000  1
  H  H123  1  0.42394000  0.13808000  0.89203000  1
  H  H124  1  0.41330000  0.18683000  0.84229000  1
  H  H125  1  0.47264000  0.15721000  0.79317000  1
  H  H126  1  0.48411000  0.11109000  0.84478000  1
  H  H127  1  0.42023000  0.13357000  0.71630000  1
  H  H128  1  0.39323000  0.06940000  0.71357000  1
  H  H129  1  0.37980000  0.21250000  0.16209000  1
  H  H130  1  0.33662000  0.16254000  0.16951000  1
  H  H131  1  0.48288000  0.10730000  0.09525000  1
  H  H132  1  0.48421000  0.16061000  0.14153000  1
  H  H133  1  0.42615000  0.16589000  0.21662000  1
  H  H134  1  0.38292000  0.11541000  0.22332000  1
  H  H135  1  0.38077000  0.03714000  0.16014000  1
  H  H136  1  0.42024000  0.03245000  0.10669000  1
  H  H137  1  0.37419000  0.07863000  0.05338000  1
  H  H138  1  0.33368000  0.08325000  0.10606000  1
  H  H139  1  0.43495000  0.15183000  0.04165000  1
  H  H140  1  0.43721000  0.20661000  0.08651000  1
  H  H141  1  0.42503000  0.31232000  0.03237000  1
  H  H142  1  0.42207000  0.42153000  0.00932000  1
  H  H143  1  0.50400000  0.30325000  0.96988000  1
  H  H144  1  0.44972000  0.28145000  0.87970000  1
  H  H145  1  0.44822000  0.39200000  0.85664000  1
  H  H146  1  0.36839000  0.40020000  0.91931000  1
  H  H147  1  0.34863000  0.53461000  0.99299000  1
  H  H148  1  0.37452000  0.47149000  0.08089000  1
  H  H149  1  0.42951000  0.59572000  0.00471000  1
  H  H150  1  0.38367000  0.66506000  0.07370000  1
  H  H151  1  0.40939000  0.60199000  0.16149000  1
  H  H152  1  0.32870000  0.54083000  0.14983000  1
  H  H153  1  0.66981000  0.38113000  0.92675000  1
  H  H154  1  0.68730000  0.48470000  0.96453000  1
  H  H155  1  0.61142000  0.36150000  0.01393000  1
  H  H156  1  0.68517000  0.32417000  0.07357000  1
  H  H157  1  0.70214000  0.42828000  0.11174000  1
  H  H158  1  0.76135000  0.44683000  0.02420000  1
  H  H159  1  0.55171000  0.68187000  0.93055000  1
  H  H160  1  0.64762000  0.68415000  0.92005000  1
  H  H161  1  0.55742000  0.77773000  0.99018000  1
  H  H162  1  0.56423000  0.71709000  0.08467000  1
  H  H163  1  0.65897000  0.71776000  0.07465000  1
  H  H164  1  0.65509000  0.62479000  0.01407000  1
  C  C1  1  0.56081000  0.60849000  0.03640000  1
  C  C2  1  0.46614000  0.52766000  0.09269000  1
  C  C3  1  0.61812000  0.47402000  0.05116000  1
  C  C4  1  0.51048000  0.42062000  0.95786000  1
  C  C5  1  0.34776000  0.18266000  0.06191000  1
  C  C6  1  0.36144000  0.28283000  0.94835000  1
  C  C7  1  0.22948000  0.18981000  0.00233000  1
  C  C8  1  0.33454000  0.13381000  0.86712000  1
  C  C9  1  0.49354000  0.03416000  0.28176000  1
  C  C10  1  0.46633000  0.06773000  0.25190000  1
  C  C11  1  0.46658000  0.06509000  0.19600000  1
  C  C12  1  0.49562000  0.02887000  0.17102000  1
  C  C13  1  0.52435000  0.99623000  0.20094000  1
  C  C14  1  0.52152000  0.99794000  0.25664000  1
  C  C15  1  0.47071000  0.00034000  0.36785000  1
  C  C16  1  0.47745000  0.99688000  0.42295000  1
  C  C17  1  0.50644000  0.03367000  0.44791000  1
  C  C18  1  0.52778000  0.07368000  0.41784000  1
  C  C19  1  0.52073000  0.07531000  0.36269000  1
  C  C20  1  0.45644000  0.95659000  0.45318000  1
  C  C21  1  0.46445000  0.95302000  0.50768000  1
  C  C22  1  0.49322000  0.99001000  0.53294000  1
  C  C23  1  0.51418000  0.03036000  0.50298000  1
  C  C24  1  0.54269000  0.06758000  0.52808000  1
  C  C25  1  0.55653000  0.11069000  0.44312000  1
  C  C26  1  0.56394000  0.10765000  0.49779000  1
  C  C27  1  0.50054000  0.98812000  0.58800000  1
  C  C28  1  0.54859000  0.06482000  0.58338000  1
  C  C29  1  0.52507000  0.03080000  0.66918000  1
  C  C30  1  0.48806000  0.05427000  0.69390000  1
  C  C31  1  0.48535000  0.05658000  0.74953000  1
  C  C32  1  0.52123000  0.03629000  0.77971000  1
  C  C33  1  0.55892000  0.01292000  0.75533000  1
  C  C34  1  0.56042000  0.01024000  0.69951000  1
  C  C35  1  0.66271000  0.88556000  0.08904000  1
  C  C36  1  0.66657000  0.78444000  0.98273000  1
  C  C37  1  0.78870000  0.88319000  0.04671000  1
  C  C38  1  0.69362000  0.93515000  0.89724000  1
  C  C39  1  0.16968000  0.61901000  0.12366000  1
  C  C40  1  0.29252000  0.61110000  0.06374000  1
  C  C41  1  0.16943000  0.71817000  0.01706000  1
  C  C42  1  0.17854000  0.56725000  0.92929000  1
  C  C43  1  0.98220000  0.48915000  0.30718000  1
  C  C44  1  0.95269000  0.45700000  0.27730000  1
  C  C45  1  0.95285000  0.46031000  0.22143000  1
  C  C46  1  0.98015000  0.49963000  0.19703000  1
  C  C47  1  0.01392000  0.52702000  0.22601000  1
  C  C48  1  0.01336000  0.52287000  0.28166000  1
  C  C49  1  0.00786000  0.44836000  0.38877000  1
  C  C50  1  0.01381000  0.44954000  0.44419000  1
  C  C51  1  0.99258000  0.48896000  0.47400000  1
  C  C52  1  0.96510000  0.52592000  0.44845000  1
  C  C53  1  0.95969000  0.52320000  0.39302000  1
  C  C54  1  0.04122000  0.41251000  0.47002000  1
  C  C55  1  0.04733000  0.41486000  0.52499000  1
  C  C56  1  0.02604000  0.45420000  0.55507000  1
  C  C57  1  0.99886000  0.49143000  0.52946000  1
  C  C58  1  0.97775000  0.53095000  0.55924000  1
  C  C59  1  0.94407000  0.56550000  0.47848000  1
  C  C60  1  0.95047000  0.56810000  0.53339000  1
  C  C61  1  0.03063000  0.45622000  0.61064000  1
  C  C62  1  0.98344000  0.53190000  0.61470000  1
  C  C63  1  0.00580000  0.48858000  0.69628000  1
  C  C64  1  0.96917000  0.46145000  0.71957000  1
  C  C65  1  0.96742000  0.45376000  0.77484000  1
  C  C66  1  0.00163000  0.47694000  0.80644000  1
  C  C67  1  0.03953000  0.50275000  0.78355000  1
  C  C68  1  0.04100000  0.50900000  0.72791000  1
  C  C69  1  0.84655000  0.30935000  0.88101000  1
  C  C70  1  0.83242000  0.17743000  0.95164000  1
  C  C71  1  0.74920000  0.33263000  0.97952000  1
  C  C72  1  0.87139000  0.30961000  0.07977000  1
  C  C73  1  0.05881000  0.89035000  0.05926000  1
  C  C74  1  0.10275000  0.03332000  0.06067000  1
  C  C75  1  0.95783000  0.96940000  0.10277000  1
  C  C76  1  0.98838000  0.05460000  0.95556000  1
  C  C77  1  0.87465000  0.08610000  0.97205000  1
  C  C78  1  0.92007000  0.10203000  0.99810000  1
  C  C79  1  0.90035000  0.06731000  0.92189000  1
  C  C80  1  0.94542000  0.08381000  0.94799000  1
  C  C81  1  0.87204000  0.14183000  0.94826000  1
  C  C82  1  0.89697000  0.12379000  0.89789000  1
  C  C83  1  0.94263000  0.13959000  0.92417000  1
  C  C84  1  0.91718000  0.15794000  0.97421000  1
  C  C85  1  0.87484000  0.40311000  0.87594000  1
  C  C86  1  0.87682000  0.34751000  0.85052000  1
  C  C87  1  0.89636000  0.39141000  0.76204000  1
  C  C88  1  0.93292000  0.41501000  0.80063000  1
  C  C89  1  0.90674000  0.44257000  0.84653000  1
  C  C90  1  0.95895000  0.36746000  0.82407000  1
  C  C91  1  0.92660000  0.32843000  0.85270000  1
  C  C92  1  0.86336000  0.35266000  0.79135000  1
  C  C93  1  0.87974000  0.33324000  0.17834000  1
  C  C94  1  0.89132000  0.34777000  0.12004000  1
  C  C95  1  0.89488000  0.44483000  0.14790000  1
  C  C96  1  0.92897000  0.41820000  0.18639000  1
  C  C97  1  0.90185000  0.37412000  0.21713000  1
  C  C98  1  0.96540000  0.38960000  0.15274000  1
  C  C99  1  0.94368000  0.34900000  0.11452000  1
  C  C100  1  0.87353000  0.40409000  0.10914000  1
  C  C101  1  0.08302000  0.75645000  0.02767000  1
  C  C102  1  0.07910000  0.80650000  0.99193000  1
  C  C103  1  0.08553000  0.79229000  0.07748000  1
  C  C104  1  0.08216000  0.84144000  0.04178000  1
  C  C105  1  0.13491000  0.76022000  0.02289000  1
  C  C106  1  0.13747000  0.79543000  0.07249000  1
  C  C107  1  0.13407000  0.84452000  0.03674000  1
  C  C108  1  0.13152000  0.80917000  0.98700000  1
  C  C109  1  0.11980000  0.54866000  0.79073000  1
  C  C110  1  0.07884000  0.52140000  0.81985000  1
  C  C111  1  0.13530000  0.49036000  0.89028000  1
  C  C112  1  0.14360000  0.55104000  0.88823000  1
  C  C113  1  0.15752000  0.56581000  0.83062000  1
  C  C114  1  0.09843000  0.57884000  0.90075000  1
  C  C115  1  0.06103000  0.56197000  0.86111000  1
  C  C116  1  0.09815000  0.47310000  0.85045000  1
  C  C117  1  0.06315000  0.61143000  0.21664000  1
  C  C118  1  0.05504000  0.55330000  0.19773000  1
  C  C119  1  0.09219000  0.58117000  0.10933000  1
  C  C120  1  0.12811000  0.59674000  0.15136000  1
  C  C121  1  0.10603000  0.63643000  0.19021000  1
  C  C122  1  0.14062000  0.54642000  0.18308000  1
  C  C123  1  0.09841000  0.52157000  0.21038000  1
  C  C124  1  0.05031000  0.55514000  0.13594000  1
  C  C125  1  0.84225000  0.93875000  0.11051000  1
  C  C126  1  0.87117000  0.97856000  0.07787000  1
  C  C127  1  0.88475000  0.90571000  0.12213000  1
  C  C128  1  0.91311000  0.94519000  0.08938000  1
  C  C129  1  0.83393000  0.90640000  0.05967000  1
  C  C130  1  0.87585000  0.87302000  0.07116000  1
  C  C131  1  0.90484000  0.91290000  0.03852000  1
  C  C132  1  0.86229000  0.94593000  0.02692000  1
  C  C133  1  0.57729000  0.94787000  0.82857000  1
  C  C134  1  0.59713000  0.99096000  0.79044000  1
  C  C135  1  0.65439000  0.01585000  0.86290000  1
  C  C136  1  0.66001000  0.95519000  0.85699000  1
  C  C137  1  0.61354000  0.92773000  0.86739000  1
  C  C138  1  0.67374000  0.94395000  0.79874000  1
  C  C139  1  0.63720000  0.96499000  0.75983000  1
  C  C140  1  0.61809000  0.03657000  0.82436000  1
  C  C141  1  0.59155000  0.93074000  0.21057000  1
  C  C142  1  0.56163000  0.96463000  0.17260000  1
  C  C143  1  0.63120000  0.97442000  0.11306000  1
  C  C144  1  0.62604000  0.91337000  0.11985000  1
  C  C145  1  0.62861000  0.90067000  0.17977000  1
  C  C146  1  0.57842000  0.89646000  0.09976000  1
  C  C147  1  0.54092000  0.92584000  0.13069000  1
  C  C148  1  0.59402000  0.00394000  0.14344000  1
  C  C149  1  0.15912000  0.15544000  0.06001000  1
  C  C150  1  0.17150000  0.10081000  0.08310000  1
  C  C151  1  0.12388000  0.12878000  0.02294000  1
  C  C152  1  0.13672000  0.07471000  0.04588000  1
  C  C153  1  0.19522000  0.14863000  0.01671000  1
  C  C154  1  0.16047000  0.12253000  0.97948000  1
  C  C155  1  0.17285000  0.06789000  0.00258000  1
  C  C156  1  0.20808000  0.09457000  0.03965000  1
  C  C157  1  0.42052000  0.03315000  0.81132000  1
  C  C158  1  0.44332000  0.07822000  0.77817000  1
  C  C159  1  0.36506000  0.12196000  0.77320000  1
  C  C160  1  0.37284000  0.11362000  0.83335000  1
  C  C161  1  0.37958000  0.05356000  0.84303000  1
  C  C162  1  0.41705000  0.14360000  0.84897000  1
  C  C163  1  0.45772000  0.12382000  0.81645000  1
  C  C164  1  0.40587000  0.10081000  0.74089000  1
  C  C165  1  0.37245000  0.16947000  0.15738000  1
  C  C166  1  0.37897000  0.15294000  0.09879000  1
  C  C167  1  0.46121000  0.13243000  0.12049000  1
  C  C168  1  0.43417000  0.09850000  0.16192000  1
  C  C169  1  0.40421000  0.13764000  0.19418000  1
  C  C170  1  0.40127000  0.06092000  0.13143000  1
  C  C171  1  0.36946000  0.09229000  0.09496000  1
  C  C172  1  0.42910000  0.16358000  0.08362000  1
  C  C173  1  0.43027000  0.33034000  0.99260000  1
  C  C174  1  0.42855000  0.38985000  0.98001000  1
  C  C175  1  0.47325000  0.32515000  0.95841000  1
  C  C176  1  0.47147000  0.38469000  0.94588000  1
  C  C177  1  0.40130000  0.31910000  0.94337000  1
  C  C178  1  0.44388000  0.31349000  0.90885000  1
  C  C179  1  0.44271000  0.37376000  0.89622000  1
  C  C180  1  0.39928000  0.37849000  0.93057000  1
  C  C181  1  0.36246000  0.54977000  0.03105000  1
  C  C182  1  0.37643000  0.51532000  0.07905000  1
  C  C183  1  0.40646000  0.58334000  0.03741000  1
  C  C184  1  0.41977000  0.54925000  0.08536000  1
  C  C185  1  0.33833000  0.58741000  0.06919000  1
  C  C186  1  0.38174000  0.62123000  0.07546000  1
  C  C187  1  0.39558000  0.58685000  0.12341000  1
  C  C188  1  0.35169000  0.55325000  0.11709000  1
  C  C189  1  0.67707000  0.39178000  0.96862000  1
  C  C190  1  0.68689000  0.44830000  0.98918000  1
  C  C191  1  0.64522000  0.38109000  0.01615000  1
  C  C192  1  0.65519000  0.43730000  0.03660000  1
  C  C193  1  0.71696000  0.37173000  0.00158000  1
  C  C194  1  0.68546000  0.36068000  0.04909000  1
  C  C195  1  0.69508000  0.41749000  0.06987000  1
  C  C196  1  0.72726000  0.42789000  0.02206000  1
  C  C197  1  0.57620000  0.69045000  0.96286000  1
  C  C198  1  0.62858000  0.69149000  0.95723000  1
  C  C199  1  0.57912000  0.74275000  0.99565000  1
  C  C200  1  0.63103000  0.74254000  0.99022000  1
  C  C201  1  0.58076000  0.65848000  0.01457000  1
  C  C202  1  0.58304000  0.70972000  0.04733000  1
  C  C203  1  0.63485000  0.71012000  0.04168000  1
  C  C204  1  0.63262000  0.65918000  0.00872000  1
  N  N1  1  0.49381000  0.03776000  0.33859000  1
  N  N2  1  0.52607000  0.02675000  0.61240000  1
  N  N3  1  0.98214000  0.48583000  0.36415000  1
  N  N4  1  0.00800000  0.49348000  0.63947000  1
  O  O1  1  0.59723000  0.49865000  0.01307000  1
  O  O2  1  0.58169000  0.58702000  0.07713000  1
  O  O3  1  0.59998000  0.47222000  0.09886000  1
  O  O4  1  0.48024000  0.49081000  0.06100000  1
  O  O5  1  0.49511000  0.55117000  0.12413000  1
  O  O6  1  0.53212000  0.41188000  0.00149000  1
  O  O7  1  0.53126000  0.58042000  0.00842000  1
  O  O8  1  0.50879000  0.47040000  0.94480000  1
  O  O9  1  0.25013000  0.18708000  0.95619000  1
  O  O10  1  0.34561000  0.23457000  0.06357000  1
  O  O11  1  0.24681000  0.21920000  0.04031000  1
  O  O12  1  0.36781000  0.23182000  0.95180000  1
  O  O13  1  0.32306000  0.30228000  0.96448000  1
  O  O14  1  0.32055000  0.18194000  0.86064000  1
  O  O15  1  0.32447000  0.15647000  0.02614000  1
  O  O16  1  0.33058000  0.11647000  0.91521000  1
  O  O17  1  0.54111000  0.11212000  0.33384000  1
  O  O18  1  0.44294000  0.96673000  0.34402000  1
  O  O19  1  0.48173000  0.94995000  0.61652000  1
  O  O20  1  0.57472000  0.09991000  0.60760000  1
  O  O21  1  0.77160000  0.88760000  0.99848000  1
  O  O22  1  0.66782000  0.83410000  0.09304000  1
  O  O23  1  0.76628000  0.85762000  0.08388000  1
  O  O24  1  0.65544000  0.83419000  0.97973000  1
  O  O25  1  0.70759000  0.77343000  0.99750000  1
  O  O26  1  0.70926000  0.88746000  0.89332000  1
  O  O27  1  0.68886000  0.91298000  0.05695000  1
  O  O28  1  0.69145000  0.95252000  0.94541000  1
  O  O29  1  0.15673000  0.66839000  0.01503000  1
  O  O30  1  0.17966000  0.66981000  0.12594000  1
  O  O31  1  0.21150000  0.72993000  0.02868000  1
  O  O32  1  0.26961000  0.60669000  0.01899000  1
  O  O33  1  0.27615000  0.63825000  0.10347000  1
  O  O34  1  0.20261000  0.61044000  0.92364000  1
  O  O35  1  0.19167000  0.58887000  0.09043000  1
  O  O36  1  0.17347000  0.55194000  0.97801000  1
  O  O37  1  0.93366000  0.55734000  0.36861000  1
  O  O38  1  0.02791000  0.41187000  0.36028000  1
  O  O39  1  0.05567000  0.42120000  0.63524000  1
  O  O40  1  0.96415000  0.56902000  0.64309000  1
  O  O41  1  0.79300000  0.34128000  0.98289000  1
  O  O42  1  0.80284000  0.30660000  0.87208000  1
  O  O43  1  0.73332000  0.28802000  0.95980000  1
  O  O44  1  0.82684000  0.20552000  0.99496000  1
  O  O45  1  0.81171000  0.19119000  0.90778000  1
  O  O46  1  0.83032000  0.29065000  0.08443000  1
  O  O47  1  0.86338000  0.28333000  0.92104000  1
  O  O48  1  0.88719000  0.30937000  0.03197000  1
  O  O49  1  0.97400000  0.00640000  0.07225000  1
  O  O50  1  0.07652000  0.91680000  0.09926000  1
  O  O51  1  0.98552000  0.94561000  0.13470000  1
  O  O52  1  0.08595000  0.00320000  0.02319000  1
  O  O53  1  0.08206000  0.03610000  0.10697000  1
  O  O54  1  0.01766000  0.07478000  0.98825000  1
  O  O55  1  0.02685000  0.91146000  0.02976000  1
  O  O56  1  0.98757000  0.00325000  0.95486000  1
