# generated using pymatgen
data_Ni2H5C14O7F2
_symmetry_space_group_name_H-M   'P 1'
_cell_length_a   21.29218000
_cell_length_b   18.70302000
_cell_length_c   45.56178000
_cell_angle_alpha   90.75081000
_cell_angle_beta   91.44795000
_cell_angle_gamma   111.03059000
_symmetry_Int_Tables_number   1
_chemical_formula_structural   Ni2H5C14O7F2
_chemical_formula_sum   'Ni24 H60 C168 O84 F24'
_cell_volume   16925.20255754
_cell_formula_units_Z   12
loop_
 _symmetry_equiv_pos_site_id
 _symmetry_equiv_pos_as_xyz
  1  'x, y, z'
loop_
 _atom_site_type_symbol
 _atom_site_label
 _atom_site_symmetry_multiplicity
 _atom_site_fract_x
 _atom_site_fract_y
 _atom_site_fract_z
 _atom_site_occupancy
  Ni  Ni1  1  0.07584000  0.92861000  0.66999000  1
  Ni  Ni2  1  0.11022000  0.09892000  0.70606000  1
  Ni  Ni3  1  0.20980000  0.68333000  0.01353000  1
  Ni  Ni4  1  0.05229000  0.16546000  0.20820000  1
  Ni  Ni5  1  0.72114000  0.32490000  0.89655000  1
  Ni  Ni6  1  0.56551000  0.27186000  0.89988000  1
  Ni  Ni7  1  0.62257000  0.14920000  0.87078000  1
  Ni  Ni8  1  0.67354000  0.43121000  0.93833000  1
  Ni  Ni9  1  0.63106000  0.31452000  0.51437000  1
  Ni  Ni10  1  0.64209000  0.16468000  0.54325000  1
  Ni  Ni11  1  0.25002000  0.66599000  0.40736000  1
  Ni  Ni12  1  0.40625000  0.71490000  0.41128000  1
  Ni  Ni13  1  0.34902000  0.83090000  0.37778000  1
  Ni  Ni14  1  0.30180000  0.56976000  0.45282000  1
  Ni  Ni15  1  0.35404000  0.68341000  0.00074000  1
  Ni  Ni16  1  0.21482000  0.55161000  0.96770000  1
  Ni  Ni17  1  0.34846000  0.83080000  0.03594000  1
  Ni  Ni18  1  0.76204000  0.44325000  0.47881000  1
  Ni  Ni19  1  0.77641000  0.30580000  0.51877000  1
  Ni  Ni20  1  0.00183000  0.94037000  0.72657000  1
  Ni  Ni21  1  0.84117000  0.87005000  0.20770000  1
  Ni  Ni22  1  0.95164000  0.78152000  0.68714000  1
  Ni  Ni23  1  0.94435000  0.01644000  0.24253000  1
  Ni  Ni24  1  0.91961000  0.04889000  0.17743000  1
  H  H1  1  0.06172000  0.84527000  0.71493000  1
  H  H2  1  0.06343000  0.37398000  0.01743000  1
  H  H3  1  0.13987000  0.54844000  0.08575000  1
  H  H4  1  0.07550000  0.45675000  0.12209000  1
  H  H5  1  0.03772000  0.81489000  0.11981000  1
  H  H6  1  0.18694000  0.06614000  0.16241000  1
  H  H7  1  0.16873000  0.24883000  0.36408000  1
  H  H8  1  0.14813000  0.50208000  0.34874000  1
  H  H9  1  0.08830000  0.39355000  0.31496000  1
  H  H10  1  0.09528000  0.75979000  0.27209000  1
  H  H11  1  0.05340000  0.63360000  0.65488000  1
  H  H12  1  0.14874000  0.99970000  0.80434000  1
  H  H13  1  0.63151000  0.27657000  0.85498000  1
  H  H14  1  0.65392000  0.29318000  0.94178000  1
  H  H15  1  0.70664000  0.30279000  0.47304000  1
  H  H16  1  0.69392000  0.30026000  0.56049000  1
  H  H17  1  0.33419000  0.69777000  0.36559000  1
  H  H18  1  0.32415000  0.70884000  0.45244000  1
  H  H19  1  0.26348000  0.69271000  0.96461000  1
  H  H20  1  0.30799000  0.69525000  0.05024000  1
  H  H21  1  0.60051000  0.74107000  0.11720000  1
  H  H22  1  0.69572000  0.78971000  0.15307000  1
  H  H23  1  0.69078000  0.93855000  0.06414000  1
  H  H24  1  0.23456000  0.98989000  0.13150000  1
  H  H25  1  0.71377000  0.96602000  0.34411000  1
  H  H26  1  0.66450000  0.91274000  0.23728000  1
  H  H27  1  0.57185000  0.87185000  0.27201000  1
  H  H28  1  0.22918000  0.35746000  0.39788000  1
  H  H29  1  0.31648000  0.04673000  0.57761000  1
  H  H30  1  0.41679000  0.08546000  0.54728000  1
  H  H31  1  0.49545000  0.30274000  0.59432000  1
  H  H32  1  0.39425000  0.26376000  0.62456000  1
  H  H33  1  0.37552000  0.04605000  0.76550000  1
  H  H34  1  0.27611000  0.00432000  0.73165000  1
  H  H35  1  0.24816000  0.04040000  0.83806000  1
  H  H36  1  0.72840000  0.59996000  0.78730000  1
  H  H37  1  0.01441000  0.79339000  0.24058000  1
  H  H38  1  0.09215000  0.80093000  0.58736000  1
  H  H39  1  0.03677000  0.69831000  0.55054000  1
  H  H40  1  0.00026000  0.80378000  0.34910000  1
  H  H41  1  0.72373000  0.09540000  0.60268000  1
  H  H42  1  0.00528000  0.01611000  0.68034000  1
  H  H43  1  0.76653000  0.00893000  0.63031000  1
  H  H44  1  0.78522000  0.68742000  0.74821000  1
  H  H45  1  0.78572000  0.98805000  0.10009000  1
  H  H46  1  0.80659000  0.00706000  0.30937000  1
  H  H47  1  0.82922000  0.12150000  0.87086000  1
  H  H48  1  0.83268000  0.30210000  0.81229000  1
  H  H49  1  0.99949000  0.28264000  0.05401000  1
  H  H50  1  0.99797000  0.53081000  0.61817000  1
  H  H51  1  0.93337000  0.13897000  0.22071000  1
  H  H52  1  0.95788000  0.94374000  0.19894000  1
  H  H53  1  0.99004000  0.89090000  0.15059000  1
  H  H54  1  0.91925000  0.83707000  0.31770000  1
  H  H55  1  0.95748000  0.10627000  0.58897000  1
  H  H56  1  0.91457000  0.19227000  0.56103000  1
  H  H57  1  0.91680000  0.09752000  0.84226000  1
  H  H58  1  0.92019000  0.27781000  0.78374000  1
  H  H59  1  0.96277000  0.78231000  0.80469000  1
  H  H60  1  0.90519000  0.69540000  0.84383000  1
  C  C1  1  0.05601000  0.77757000  0.64441000  1
  C  C2  1  0.15035000  0.99792000  0.74460000  1
  C  C3  1  0.17962000  0.07424000  0.65143000  1
  C  C4  1  0.01062000  0.08690000  0.75295000  1
  C  C5  1  0.19995000  0.75316000  0.36548000  1
  C  C6  1  0.23049000  0.50307000  0.39517000  1
  C  C7  1  0.16241000  0.57060000  0.45498000  1
  C  C8  1  0.15398000  0.51880000  0.02790000  1
  C  C9  1  0.09091000  0.58569000  0.97526000  1
  C  C10  1  0.21007000  0.80080000  0.05757000  1
  C  C11  1  0.05417000  0.03644000  0.17042000  1
  C  C12  1  0.04387000  0.14889000  0.27374000  1
  C  C13  1  0.03392000  0.36316000  0.09060000  1
  C  C14  1  0.02936000  0.34093000  0.06090000  1
  C  C15  1  0.06638000  0.39256000  0.04020000  1
  C  C16  1  0.10927000  0.49068000  0.07859000  1
  C  C17  1  0.07211000  0.43889000  0.09920000  1
  C  C18  1  0.01076000  0.30563000  0.11260000  1
  C  C19  1  0.10884000  0.46690000  0.04912000  1
  C  C20  1  0.13903000  0.89796000  0.12313000  1
  C  C21  1  0.07060000  0.86909000  0.12946000  1
  C  C22  1  0.04363000  0.91217000  0.14689000  1
  C  C23  1  0.18438000  0.83256000  0.08112000  1
  C  C24  1  0.15447000  0.01068000  0.15365000  1
  C  C25  1  0.18139000  0.96758000  0.13608000  1
  C  C26  1  0.16377000  0.86146000  0.10059000  1
  C  C27  1  0.08500000  0.98449000  0.15813000  1
  C  C28  1  0.12447000  0.31398000  0.33727000  1
  C  C29  1  0.16383000  0.30391000  0.36084000  1
  C  C30  1  0.07063000  0.20422000  0.29716000  1
  C  C31  1  0.15304000  0.44706000  0.35214000  1
  C  C32  1  0.11865000  0.38543000  0.33315000  1
  C  C33  1  0.09459000  0.25312000  0.31592000  1
  C  C34  1  0.19356000  0.43767000  0.37546000  1
  C  C35  1  0.05415000  0.78151000  0.31269000  1
  C  C36  1  0.05643000  0.77585000  0.28207000  1
  C  C37  1  0.14965000  0.76420000  0.34663000  1
  C  C38  1  0.00301000  0.80071000  0.32542000  1
  C  C39  1  0.10634000  0.77204000  0.33099000  1
  C  C40  1  0.05079000  0.56911000  0.47063000  1
  C  C41  1  0.09577000  0.53029000  0.46724000  1
  C  C42  1  0.07268000  0.45040000  0.47036000  1
  C  C43  1  0.05205000  0.64782000  0.63196000  1
  C  C44  1  0.01792000  0.54362000  0.97060000  1
  C  C45  1  0.19785000  0.00828000  0.79577000  1
  C  C46  1  0.20561000  0.00147000  0.76542000  1
  C  C47  1  0.55876000  0.12368000  0.92756000  1
  C  C48  1  0.48294000  0.15117000  0.85787000  1
  C  C49  1  0.52649000  0.39306000  0.92724000  1
  C  C50  1  0.62319000  0.44823000  0.48223000  1
  C  C51  1  0.59233000  0.15981000  0.48318000  1
  C  C52  1  0.52559000  0.21735000  0.55200000  1
  C  C53  1  0.41598000  0.87019000  0.43547000  1
  C  C54  1  0.48569000  0.82254000  0.36768000  1
  C  C55  1  0.44703000  0.59957000  0.44180000  1
  C  C56  1  0.35474000  0.54664000  0.96828000  1
  C  C57  1  0.38327000  0.83989000  0.97454000  1
  C  C58  1  0.46721000  0.78027000  0.03803000  1
  C  C59  1  0.63903000  0.83694000  0.08845000  1
  C  C60  1  0.64131000  0.79450000  0.11327000  1
  C  C61  1  0.69499000  0.82235000  0.13367000  1
  C  C62  1  0.52811000  0.79795000  0.05526000  1
  C  C63  1  0.74596000  0.93363000  0.10376000  1
  C  C64  1  0.69219000  0.90561000  0.08338000  1
  C  C65  1  0.57902000  0.81478000  0.07013000  1
  C  C66  1  0.74669000  0.89311000  0.12942000  1
  C  C67  1  0.63691000  0.91387000  0.31046000  1
  C  C68  1  0.70277000  0.95523000  0.32077000  1
  C  C69  1  0.53966000  0.85278000  0.34777000  1
  C  C70  1  0.67532000  0.92620000  0.26049000  1
  C  C71  1  0.62291000  0.90219000  0.28021000  1
  C  C72  1  0.58428000  0.88041000  0.33089000  1
  C  C73  1  0.19816000  0.36550000  0.37995000  1
  C  C74  1  0.43314000  0.99644000  0.46024000  1
  C  C75  1  0.45978000  0.94837000  0.44512000  1
  C  C76  1  0.52879000  0.97534000  0.43904000  1
  C  C77  1  0.57113000  0.04786000  0.44924000  1
  C  C78  1  0.54546000  0.09394000  0.46603000  1
  C  C79  1  0.47575000  0.06899000  0.47063000  1
  C  C80  1  0.50099000  0.50255000  0.43453000  1
  C  C81  1  0.49829000  0.56680000  0.45002000  1
  C  C82  1  0.54221000  0.59687000  0.47437000  1
  C  C83  1  0.58580000  0.56044000  0.48411000  1
  C  C84  1  0.58585000  0.49376000  0.46950000  1
  C  C85  1  0.54447000  0.46620000  0.44425000  1
  C  C86  1  0.34886000  0.15232000  0.60326000  1
  C  C87  1  0.35541000  0.10263000  0.58131000  1
  C  C88  1  0.41238000  0.12457000  0.56416000  1
  C  C89  1  0.24048000  0.10500000  0.63548000  1
  C  C90  1  0.45634000  0.24707000  0.59048000  1
  C  C91  1  0.39914000  0.22486000  0.60770000  1
  C  C92  1  0.29049000  0.12823000  0.62123000  1
  C  C93  1  0.46355000  0.19660000  0.56884000  1
  C  C94  1  0.54133000  0.99874000  0.95182000  1
  C  C95  1  0.51419000  0.04829000  0.93794000  1
  C  C96  1  0.44381000  0.02561000  0.93386000  1
  C  C97  1  0.40119000  0.95591000  0.94468000  1
  C  C98  1  0.42818000  0.90760000  0.95943000  1
  C  C99  1  0.49859000  0.92856000  0.96238000  1
  C  C100  1  0.50166000  0.48042000  0.96290000  1
  C  C101  1  0.47975000  0.42633000  0.93967000  1
  C  C102  1  0.41403000  0.40657000  0.92770000  1
  C  C103  1  0.37176000  0.44339000  0.93800000  1
  C  C104  1  0.39494000  0.50009000  0.96032000  1
  C  C105  1  0.45939000  0.51684000  0.97327000  1
  C  C106  1  0.31862000  0.04804000  0.80389000  1
  C  C107  1  0.32596000  0.03508000  0.77405000  1
  C  C108  1  0.26961000  0.01138000  0.75489000  1
  C  C109  1  0.42576000  0.11490000  0.83858000  1
  C  C110  1  0.25427000  0.03182000  0.81489000  1
  C  C111  1  0.37716000  0.08402000  0.82269000  1
  C  C112  1  0.01027000  0.79421000  0.26423000  1
  C  C113  1  0.72884000  0.47999000  0.87882000  1
  C  C114  1  0.02008000  0.58951000  0.61117000  1
  C  C115  1  0.07043000  0.72474000  0.62402000  1
  C  C116  1  0.07385000  0.74178000  0.59405000  1
  C  C117  1  0.04187000  0.68363000  0.57318000  1
  C  C118  1  0.74217000  0.96148000  0.27094000  1
  C  C119  1  0.00444000  0.40926000  0.47522000  1
  C  C120  1  0.75526000  0.97945000  0.30104000  1
  C  C121  1  0.75690000  0.53878000  0.85797000  1
  C  C122  1  0.00921000  0.60838000  0.58230000  1
  C  C123  1  0.77152000  0.22717000  0.86012000  1
  C  C124  1  0.77509000  0.09868000  0.59993000  1
  C  C125  1  0.77933000  0.64017000  0.79120000  1
  C  C126  1  0.78185000  0.58658000  0.84002000  1
  C  C127  1  0.78483000  0.18471000  0.55806000  1
  C  C128  1  0.79689000  0.95921000  0.25243000  1
  C  C129  1  0.79897000  0.92649000  0.15255000  1
  C  C130  1  0.79917000  0.04948000  0.61546000  1
  C  C131  1  0.81180000  0.68932000  0.76896000  1
  C  C132  1  0.81291000  0.64205000  0.81820000  1
  C  C133  1  0.81228000  0.42797000  0.94416000  1
  C  C134  1  0.81580000  0.14882000  0.57955000  1
  C  C135  1  0.82362000  0.21221000  0.84315000  1
  C  C136  1  0.84455000  0.46920000  0.53500000  1
  C  C137  1  0.84877000  0.15567000  0.85185000  1
  C  C138  1  0.85113000  0.25765000  0.81902000  1
  C  C139  1  0.86420000  0.05055000  0.61091000  1
  C  C140  1  0.87831000  0.74079000  0.77358000  1
  C  C141  1  0.99627000  0.25735000  0.13111000  1
  C  C142  1  0.99391000  0.46471000  0.96376000  1
  C  C143  1  0.98875000  0.13106000  0.77343000  1
  C  C144  1  0.97210000  0.58202000  0.97242000  1
  C  C145  1  0.95701000  0.81926000  0.30764000  1
  C  C146  1  0.88584000  0.40476000  0.48053000  1
  C  C147  1  0.93736000  0.89741000  0.64677000  1
  C  C148  1  0.91322000  0.79221000  0.75007000  1
  C  C149  1  0.98634000  0.20028000  0.15306000  1
  C  C150  1  0.92622000  0.85739000  0.25902000  1
  C  C151  1  0.96210000  0.81901000  0.27699000  1
  C  C152  1  0.95872000  0.44786000  0.47711000  1
  C  C153  1  0.98268000  0.52821000  0.47547000  1
  C  C154  1  0.90665000  0.10436000  0.59219000  1
  C  C155  1  0.88257000  0.15355000  0.57658000  1
  C  C156  1  0.90730000  0.94806000  0.63464000  1
  C  C157  1  0.88628000  0.99401000  0.62409000  1
  C  C158  1  0.90363000  0.51676000  0.55132000  1
  C  C159  1  0.95279000  0.55761000  0.56510000  1
  C  C160  1  0.92539000  0.42540000  0.95741000  1
  C  C161  1  0.88015000  0.46458000  0.95762000  1
  C  C162  1  0.90348000  0.54258000  0.96599000  1
  C  C163  1  0.92459000  0.18620000  0.81110000  1
  C  C164  1  0.89928000  0.14302000  0.83595000  1
  C  C165  1  0.90132000  0.24456000  0.80304000  1
  C  C166  1  0.96259000  0.15985000  0.79076000  1
  C  C167  1  0.91144000  0.74317000  0.80084000  1
  C  C168  1  0.87881000  0.69398000  0.82304000  1
  O  O1  1  0.03094000  0.86449000  0.70363000  1
  O  O2  1  0.08764000  0.97178000  0.75360000  1
  O  O3  1  0.07513000  0.10807000  0.74704000  1
  O  O4  1  0.10247000  0.84608000  0.64980000  1
  O  O5  1  0.04044000  0.00371000  0.69137000  1
  O  O6  1  0.13551000  0.00794000  0.64219000  1
  O  O7  1  0.15961000  0.12258000  0.66636000  1
  O  O8  1  0.16546000  0.03718000  0.72043000  1
  O  O9  1  0.19010000  0.68380000  0.37470000  1
  O  O10  1  0.25244000  0.57224000  0.38470000  1
  O  O11  1  0.21771000  0.57741000  0.47070000  1
  O  O12  1  0.16484000  0.59973000  0.42843000  1
  O  O13  1  0.16299000  0.49025000  0.00244000  1
  O  O14  1  0.11227000  0.63911000  0.99645000  1
  O  O15  1  0.17707000  0.72977000  0.04844000  1
  O  O16  1  0.19455000  0.58677000  0.03702000  1
  O  O17  1  0.13269000  0.57647000  0.95584000  1
  O  O18  1  0.08146000  0.15034000  0.25103000  1
  O  O19  1  0.07793000  0.07438000  0.19518000  1
  O  O20  1  0.04120000  0.19368000  0.16542000  1
  O  O21  1  0.63520000  0.25677000  0.87474000  1
  O  O22  1  0.72620000  0.17034000  0.87373000  1
  O  O23  1  0.61486000  0.13005000  0.91468000  1
  O  O24  1  0.48461000  0.21243000  0.87334000  1
  O  O25  1  0.65135000  0.32499000  0.92492000  1
  O  O26  1  0.50752000  0.31837000  0.92320000  1
  O  O27  1  0.58639000  0.43854000  0.91925000  1
  O  O28  1  0.53781000  0.18182000  0.92838000  1
  O  O29  1  0.51946000  0.11004000  0.86631000  1
  O  O30  1  0.71636000  0.33681000  0.49072000  1
  O  O31  1  0.59035000  0.37599000  0.48801000  1
  O  O32  1  0.68620000  0.48219000  0.49137000  1
  O  O33  1  0.57757000  0.22179000  0.48706000  1
  O  O34  1  0.54491000  0.16156000  0.54238000  1
  O  O35  1  0.68787000  0.27537000  0.54078000  1
  O  O36  1  0.54920000  0.28574000  0.54020000  1
  O  O37  1  0.73015000  0.14143000  0.54354000  1
  O  O38  1  0.64000000  0.14982000  0.49918000  1
  O  O39  1  0.33397000  0.72398000  0.38459000  1
  O  O40  1  0.24646000  0.81334000  0.37832000  1
  O  O41  1  0.35888000  0.85970000  0.42134000  1
  O  O42  1  0.48424000  0.76388000  0.38406000  1
  O  O43  1  0.32334000  0.67184000  0.43656000  1
  O  O44  1  0.46551000  0.67352000  0.43711000  1
  O  O45  1  0.38498000  0.55334000  0.43511000  1
  O  O46  1  0.23924000  0.49124000  0.42311000  1
  O  O47  1  0.43994000  0.81437000  0.43679000  1
  O  O48  1  0.45161000  0.86672000  0.37510000  1
  O  O49  1  0.26119000  0.65814000  0.98115000  1
  O  O50  1  0.38456000  0.62127000  0.97077000  1
  O  O51  1  0.29336000  0.51296000  0.97779000  1
  O  O52  1  0.39593000  0.77598000  0.97392000  1
  O  O53  1  0.44569000  0.83665000  0.03177000  1
  O  O54  1  0.30583000  0.71993000  0.03134000  1
  O  O55  1  0.44442000  0.71511000  0.02276000  1
  O  O56  1  0.25797000  0.84706000  0.04176000  1
  O  O57  1  0.33935000  0.84810000  0.99253000  1
  O  O58  1  0.73174000  0.49889000  0.90679000  1
  O  O59  1  0.71223000  0.40847000  0.87019000  1
  O  O60  1  0.00228000  0.04396000  0.15647000  1
  O  O61  1  0.75928000  0.42949000  0.95854000  1
  O  O62  1  0.77844000  0.29873000  0.86597000  1
  O  O63  1  0.78391000  0.91241000  0.18029000  1
  O  O64  1  0.79722000  0.89176000  0.24438000  1
  O  O65  1  0.80693000  0.40143000  0.91671000  1
  O  O66  1  0.80941000  0.40201000  0.54508000  1
  O  O67  1  0.81792000  0.50070000  0.51508000  1
  O  O68  1  0.81840000  0.25448000  0.54926000  1
  O  O69  1  0.84187000  0.42063000  0.46326000  1
  O  O70  1  0.85130000  0.02101000  0.25047000  1
  O  O71  1  0.85795000  0.97677000  0.14572000  1
  O  O72  1  0.86645000  0.34369000  0.49733000  1
  O  O73  1  0.98712000  0.09074000  0.27712000  1
  O  O74  1  0.96986000  0.01669000  0.74716000  1
  O  O75  1  0.95660000  0.86073000  0.75733000  1
  O  O76  1  0.89045000  0.77588000  0.72272000  1
  O  O77  1  0.90883000  0.85294000  0.66836000  1
  O  O78  1  0.99837000  0.90518000  0.63941000  1
  O  O79  1  0.99175000  0.76610000  0.64837000  1
  O  O80  1  0.95828000  0.10569000  0.21482000  1
  O  O81  1  0.89523000  0.82435000  0.23399000  1
  O  O82  1  0.92780000  0.14237000  0.15318000  1
  O  O83  1  0.92093000  0.96162000  0.20373000  1
  O  O84  1  0.92368000  0.92324000  0.26873000  1
  F  F1  1  0.11560000  0.41213000  0.46707000  1
  F  F2  1  0.07275000  0.64646000  0.46830000  1
  F  F3  1  0.03720000  0.42631000  0.96283000  1
  F  F4  1  0.44981000  0.11331000  0.48642000  1
  F  F5  1  0.36652000  0.97176000  0.46591000  1
  F  F6  1  0.63778000  0.07248000  0.44361000  1
  F  F7  1  0.55498000  0.93095000  0.42344000  1
  F  F8  1  0.54576000  0.40337000  0.42937000  1
  F  F9  1  0.46120000  0.47514000  0.41011000  1
  F  F10  1  0.62558000  0.58779000  0.50852000  1
  F  F11  1  0.54059000  0.65938000  0.48936000  1
  F  F12  1  0.52555000  0.88232000  0.97649000  1
  F  F13  1  0.60898000  0.01957000  0.95594000  1
  F  F14  1  0.33348000  0.93539000  0.94091000  1
  F  F15  1  0.41671000  0.07090000  0.91919000  1
  F  F16  1  0.48117000  0.56890000  0.99583000  1
  F  F17  1  0.56408000  0.49771000  0.97541000  1
  F  F18  1  0.30938000  0.42625000  0.92548000  1
  F  F19  1  0.39212000  0.35397000  0.90534000  1
  F  F20  1  0.86030000  0.58120000  0.96624000  1
  F  F21  1  0.99441000  0.65822000  0.97905000  1
  F  F22  1  0.98238000  0.33175000  0.47678000  1
  F  F23  1  0.93979000  0.56668000  0.47829000  1
  F  F24  1  0.90316000  0.34956000  0.95012000  1
