# generated using pymatgen
data_Zn7H82C104(NO8)4
_symmetry_space_group_name_H-M   'P 1'
_cell_length_a   24.57132000
_cell_length_b   22.34291000
_cell_length_c   43.68126000
_cell_angle_alpha   104.03705000
_cell_angle_beta   115.94998000
_cell_angle_gamma   111.52282000
_symmetry_Int_Tables_number   1
_chemical_formula_structural   Zn7H82C104(NO8)4
_chemical_formula_sum   'Zn14 H164 C208 N8 O64'
_cell_volume   17576.72685171
_cell_formula_units_Z   2
loop_
 _symmetry_equiv_pos_site_id
 _symmetry_equiv_pos_as_xyz
  1  'x, y, z'
loop_
 _atom_site_type_symbol
 _atom_site_label
 _atom_site_symmetry_multiplicity
 _atom_site_fract_x
 _atom_site_fract_y
 _atom_site_fract_z
 _atom_site_occupancy
  Zn  Zn1  1  0.25993000  0.17744000  0.02057000  1
  Zn  Zn2  1  0.13562000  0.13356000  0.94263000  1
  Zn  Zn3  1  0.93473000  0.92311000  0.94554000  1
  Zn  Zn4  1  0.05939000  0.94531000  0.01221000  1
  Zn  Zn5  1  0.09473000  0.04114000  0.97773000  1
  Zn  Zn6  1  0.08670000  0.08990000  0.04878000  1
  Zn  Zn7  1  0.08498000  0.96928000  0.90365000  1
  Zn  Zn8  1  0.07288000  0.11422000  0.47492000  1
  Zn  Zn9  1  0.95987000  0.05766000  0.38964000  1
  Zn  Zn10  1  0.76048000  0.82399000  0.38518000  1
  Zn  Zn11  1  0.88776000  0.86773000  0.45903000  1
  Zn  Zn12  1  0.91538000  0.96265000  0.42298000  1
  Zn  Zn13  1  0.88720000  0.99726000  0.48675000  1
  Zn  Zn14  1  0.91913000  0.89282000  0.35465000  1
  H  H1  1  0.85868000  0.61706000  0.03934000  1
  H  H2  1  0.83741000  0.51468000  0.05435000  1
  H  H3  1  0.68815000  0.35983000  0.93198000  1
  H  H4  1  0.70980000  0.46220000  0.91692000  1
  H  H5  1  0.53092000  0.16302000  0.92637000  1
  H  H6  1  0.64461000  0.24582000  0.93708000  1
  H  H7  1  0.72171000  0.39536000  0.05108000  1
  H  H8  1  0.60566000  0.31600000  0.03901000  1
  H  H9  1  0.81910000  0.19725000  0.99541000  1
  H  H10  1  0.75723000  0.25300000  0.00854000  1
  H  H11  1  0.84900000  0.41740000  0.98011000  1
  H  H12  1  0.91047000  0.36090000  0.96730000  1
  H  H13  1  0.73386000  0.54071000  0.49716000  1
  H  H14  1  0.70213000  0.44303000  0.51505000  1
  H  H15  1  0.52006000  0.28964000  0.39592000  1
  H  H16  1  0.55397000  0.38624000  0.37768000  1
  H  H17  1  0.43367000  0.10447000  0.46127000  1
  H  H18  1  0.54689000  0.17293000  0.46864000  1
  H  H19  1  0.50417000  0.34134000  0.45934000  1
  H  H20  1  0.39185000  0.27264000  0.45244000  1
  H  H21  1  0.77148000  0.24750000  0.48346000  1
  H  H22  1  0.72932000  0.32035000  0.50638000  1
  H  H23  1  0.52335000  0.18538000  0.39461000  1
  H  H24  1  0.56664000  0.11467000  0.37114000  1
  H  H25  1  0.49786000  0.62337000  0.08173000  1
  H  H26  1  0.56456000  0.75176000  0.09577000  1
  H  H27  1  0.41861000  0.68686000  0.97546000  1
  H  H28  1  0.35301000  0.55840000  0.96133000  1
  H  H29  1  0.74357000  0.99306000  0.07978000  1
  H  H30  1  0.64513000  0.94273000  0.08727000  1
  H  H31  1  0.54630000  0.72984000  0.99368000  1
  H  H32  1  0.64693000  0.77932000  0.98823000  1
  H  H33  1  0.37552000  0.86104000  0.05664000  1
  H  H34  1  0.46558000  0.82748000  0.07878000  1
  H  H35  1  0.48551000  0.83500000  0.98622000  1
  H  H36  1  0.40118000  0.87592000  0.96680000  1
  H  H37  1  0.27623000  0.56042000  0.53020000  1
  H  H38  1  0.34533000  0.68828000  0.54423000  1
  H  H39  1  0.29090000  0.60942000  0.42820000  1
  H  H40  1  0.22142000  0.48177000  0.41415000  1
  H  H41  1  0.47693000  0.86806000  0.45341000  1
  H  H42  1  0.38787000  0.83119000  0.46782000  1
  H  H43  1  0.45054000  0.68886000  0.50290000  1
  H  H44  1  0.53743000  0.72428000  0.48662000  1
  H  H45  1  0.29021000  0.89053000  0.52784000  1
  H  H46  1  0.37030000  0.84388000  0.54409000  1
  H  H47  1  0.24149000  0.68284000  0.42352000  1
  H  H48  1  0.15716000  0.72378000  0.40803000  1
  H  H49  1  0.17408000  0.06678000  0.04603000  1
  H  H50  1  0.01551000  0.01896000  0.91102000  1
  H  H51  1  0.99059000  0.99731000  0.49322000  1
  H  H52  1  0.84220000  0.93736000  0.35482000  1
  H  H53  1  0.06069000  0.92582000  0.65100000  1
  H  H54  1  0.02391000  0.91221000  0.58593000  1
  H  H55  1  0.87841000  0.98009000  0.58110000  1
  H  H56  1  0.91478000  0.99300000  0.64577000  1
  H  H57  1  0.01094000  0.09530000  0.81826000  1
  H  H58  1  0.97992000  0.08127000  0.75399000  1
  H  H59  1  0.11020000  0.99195000  0.75925000  1
  H  H60  1  0.14174000  0.00611000  0.82354000  1
  H  H61  1  0.09472000  0.99418000  0.27423000  1
  H  H62  1  0.06241000  0.97772000  0.31886000  1
  H  H63  1  0.90388000  0.03124000  0.26867000  1
  H  H64  1  0.93583000  0.04648000  0.22349000  1
  H  H65  1  0.02187000  0.89247000  0.08940000  1
  H  H66  1  0.99242000  0.87734000  0.13534000  1
  H  H67  1  0.14463000  0.10851000  0.21566000  1
  H  H68  1  0.17532000  0.12407000  0.17021000  1
  H  H69  1  0.02991000  0.28739000  0.40908000  1
  H  H70  1  0.29698000  0.43958000  0.50192000  1
  H  H71  1  0.02972000  0.40944000  0.43961000  1
  H  H72  1  0.04031000  0.47458000  0.42209000  1
  H  H73  1  0.11549000  0.49761000  0.46739000  1
  H  H74  1  0.20945000  0.22758000  0.44208000  1
  H  H75  1  0.28915000  0.25493000  0.48678000  1
  H  H76  1  0.29291000  0.31681000  0.46732000  1
  H  H77  1  0.48860000  0.72847000  0.40046000  1
  H  H78  1  0.73769000  0.94863000  0.49715000  1
  H  H79  1  0.48168000  0.76432000  0.34554000  1
  H  H80  1  0.51795000  0.74331000  0.31979000  1
  H  H81  1  0.56789000  0.83455000  0.35861000  1
  H  H82  1  0.65814000  0.85065000  0.54175000  1
  H  H83  1  0.70680000  0.94398000  0.57807000  1
  H  H84  1  0.74357000  0.91938000  0.55344000  1
  H  H85  1  0.08809000  0.88909000  0.39257000  1
  H  H86  1  0.14624000  0.82203000  0.49810000  1
  H  H87  1  0.23633000  0.97102000  0.42786000  1
  H  H88  1  0.27758000  0.92867000  0.41483000  1
  H  H89  1  0.28951000  0.94547000  0.46020000  1
  H  H90  1  0.14527000  0.93427000  0.53897000  1
  H  H91  1  0.06468000  0.92844000  0.53025000  1
  H  H92  1  0.10629000  0.97420000  0.51097000  1
  H  H93  1  0.24818000  0.39757000  0.01873000  1
  H  H94  1  0.43714000  0.47243000  0.99524000  1
  H  H95  1  0.26154000  0.53670000  0.98036000  1
  H  H96  1  0.24209000  0.57001000  0.01333000  1
  H  H97  1  0.20134000  0.47306000  0.98716000  1
  H  H98  1  0.48517000  0.40083000  0.03122000  1
  H  H99  1  0.44849000  0.30499000  0.00495000  1
  H  H100  1  0.42250000  0.33333333  0.03534000  1
  H  H101  1  0.69898000  0.93826000  0.98320000  1
  H  H102  1  0.92263000  0.94189000  0.05730000  1
  H  H103  1  0.78472000  0.07064000  0.99314000  1
  H  H104  1  0.79261000  0.07068000  0.95451000  1
  H  H105  1  0.86974000  0.09379000  0.99928000  1
  H  H106  1  0.93383000  0.99537000  0.12281000  1
  H  H107  1  0.88600000  0.93868000  0.13626000  1
  H  H108  1  0.85426000  0.99087000  0.11762000  1
  H  H109  1  0.14725000  0.81342000  0.93238000  1
  H  H110  1  0.40346000  0.00221000  0.04213000  1
  H  H111  1  0.17866000  0.74916000  0.89068000  1
  H  H112  1  0.21292000  0.69186000  0.89814000  1
  H  H113  1  0.27485000  0.78623000  0.91544000  1
  H  H114  1  0.26134000  0.01000000  0.05570000  1
  H  H115  1  0.32809000  0.10630000  0.08167000  1
  H  H116  1  0.35733000  0.04393000  0.08421000  1
  H  H117  1  0.78122000  0.21330000  0.41807000  1
  H  H118  1  0.67325000  0.96345000  0.40402000  1
  H  H119  1  0.82619000  0.07727000  0.37001000  1
  H  H120  1  0.90440000  0.16610000  0.39237000  1
  H  H121  1  0.81798000  0.15504000  0.36870000  1
  H  H122  1  0.63519000  0.99878000  0.44889000  1
  H  H123  1  0.55772000  0.00427000  0.43488000  1
  H  H124  1  0.64390000  0.08765000  0.46176000  1
  H  H125  1  0.81874000  0.63216000  0.42892000  1
  H  H126  1  0.57973000  0.53421000  0.40629000  1
  H  H127  1  0.70169000  0.41833000  0.39185000  1
  H  H128  1  0.79149000  0.43903000  0.42056000  1
  H  H129  1  0.77343000  0.48353000  0.39176000  1
  H  H130  1  0.52873000  0.53835000  0.33850000  1
  H  H131  1  0.59686000  0.59471000  0.33346000  1
  H  H132  1  0.53614000  0.61891000  0.33532000  1
  H  H133  1  0.39272000  0.16759000  0.51212000  1
  H  H134  1  0.15768000  0.06653000  0.38937000  1
  H  H135  1  0.21780000  0.00706000  0.49241000  1
  H  H136  1  0.27646000  0.05814000  0.54425000  1
  H  H137  1  0.31464000  0.04562000  0.51834000  1
  H  H138  1  0.29646000  0.03153000  0.37902000  1
  H  H139  1  0.24975000  0.03737000  0.33598000  1
  H  H140  1  0.19949000  0.99307000  0.35213000  1
  H  H141  1  0.08129000  0.28279000  0.03943000  1
  H  H142  1  0.82886000  0.15046000  0.92354000  1
  H  H143  1  0.96454000  0.32721000  0.06213000  1
  H  H144  1  0.04450000  0.41725000  0.09123000  1
  H  H145  1  0.05338000  0.34001000  0.08578000  1
  H  H146  1  0.87273000  0.09934000  0.88034000  1
  H  H147  1  0.87559000  0.01869000  0.87500000  1
  H  H148  1  0.95825000  0.10661000  0.90866000  1
  H  H149  1  0.76308000  0.65587000  0.98638000  1
  H  H150  1  0.92360000  0.68198000  0.94354000  1
  H  H151  1  0.70336000  0.70769000  0.94091000  1
  H  H152  1  0.75372000  0.75502000  0.92449000  1
  H  H153  1  0.74074000  0.80359000  0.95703000  1
  H  H154  1  0.98010000  0.62432000  0.98537000  1
  H  H155  1  0.93926000  0.52763000  0.96861000  1
  H  H156  1  0.93074000  0.57895000  0.00269000  1
  H  H157  1  0.43219000  0.13091000  0.02702000  1
  H  H158  1  0.42587000  0.17864000  0.92056000  1
  H  H159  1  0.50257000  0.06077000  0.01511000  1
  H  H160  1  0.59892000  0.11389000  0.04338000  1
  H  H161  1  0.54885000  0.09284000  0.99357000  1
  H  H162  1  0.28498000  0.19710000  0.93351000  1
  H  H163  1  0.24313000  0.15785000  0.88241000  1
  H  H164  1  0.33833000  0.22212000  0.91456000  1
  C  C1  1  0.78709000  0.54651000  0.97713000  1
  C  C2  1  0.82044000  0.56098000  0.01586000  1
  C  C3  1  0.80860000  0.50313000  0.02438000  1
  C  C4  1  0.76299000  0.43049000  0.99431000  1
  C  C5  1  0.72415000  0.41581000  0.95545000  1
  C  C6  1  0.73664000  0.47379000  0.94693000  1
  C  C7  1  0.56103000  0.23297000  0.98231000  1
  C  C8  1  0.57222000  0.21389000  0.95349000  1
  C  C9  1  0.63680000  0.26064000  0.95964000  1
  C  C10  1  0.69197000  0.32556000  0.99541000  1
  C  C11  1  0.68006000  0.34492000  0.02379000  1
  C  C12  1  0.61468000  0.29953000  0.01711000  1
  C  C13  1  0.86771000  0.27431000  0.97967000  1
  C  C14  1  0.82284000  0.24319000  0.99033000  1
  C  C15  1  0.78722000  0.27464000  0.99750000  1
  C  C16  1  0.79269000  0.33575000  0.99211000  1
  C  C17  1  0.83878000  0.36725000  0.98163000  1
  C  C18  1  0.87472000  0.33569000  0.97479000  1
  C  C19  1  0.64716000  0.46959000  0.43605000  1
  C  C20  1  0.68726000  0.48589000  0.47500000  1
  C  C21  1  0.66912000  0.43079000  0.48518000  1
  C  C22  1  0.61053000  0.35912000  0.45664000  1
  C  C23  1  0.56735000  0.34395000  0.41796000  1
  C  C24  1  0.58594000  0.39896000  0.40773000  1
  C  C25  1  0.40445000  0.18315000  0.45547000  1
  C  C26  1  0.44834000  0.15531000  0.45992000  1
  C  C27  1  0.51184000  0.19344000  0.46322000  1
  C  C28  1  0.53087000  0.25874000  0.46041000  1
  C  C29  1  0.48797000  0.28819000  0.45795000  1
  C  C30  1  0.42470000  0.24987000  0.45480000  1
  C  C31  1  0.67192000  0.17609000  0.42574000  1
  C  C32  1  0.71779000  0.23475000  0.46378000  1
  C  C33  1  0.69376000  0.27553000  0.47689000  1
  C  C34  1  0.62366000  0.25806000  0.45229000  1
  C  C35  1  0.57798000  0.20011000  0.41381000  1
  C  C36  1  0.60235000  0.15975000  0.40058000  1
  C  C37  1  0.42036000  0.58244000  0.02069000  1
  C  C38  1  0.48078000  0.63705000  0.05847000  1
  C  C39  1  0.51870000  0.70964000  0.06640000  1
  C  C40  1  0.49633000  0.72837000  0.03676000  1
  C  C41  1  0.43629000  0.67322000  0.99868000  1
  C  C42  1  0.39907000  0.60049000  0.99068000  1
  C  C43  1  0.70276000  0.88920000  0.03413000  1
  C  C44  1  0.70140000  0.93523000  0.06165000  1
  C  C45  1  0.64527000  0.90688000  0.06563000  1
  C  C46  1  0.58891000  0.83260000  0.04152000  1
  C  C47  1  0.58976000  0.78673000  0.01330000  1
  C  C48  1  0.64677000  0.81496000  0.00998000  1
  C  C49  1  0.38083000  0.86887000  0.00958000  1
  C  C50  1  0.40011000  0.85621000  0.04154000  1
  C  C51  1  0.45113000  0.83727000  0.05410000  1
  C  C52  1  0.48246000  0.82934000  0.03441000  1
  C  C53  1  0.46315000  0.84229000  0.00232000  1
  C  C54  1  0.41385000  0.86367000  0.99063000  1
  C  C55  1  0.24349000  0.51241000  0.47109000  1
  C  C56  1  0.27935000  0.57099000  0.50791000  1
  C  C57  1  0.31866000  0.64338000  0.51591000  1
  C  C58  1  0.32248000  0.65806000  0.48723000  1
  C  C59  1  0.28738000  0.59911000  0.45043000  1
  C  C60  1  0.24814000  0.52671000  0.44249000  1
  C  C61  1  0.51301000  0.79857000  0.46896000  1
  C  C62  1  0.47018000  0.82793000  0.46353000  1
  C  C63  1  0.41862000  0.80590000  0.47122000  1
  C  C64  1  0.40818000  0.75258000  0.48386000  1
  C  C65  1  0.45380000  0.72575000  0.49070000  1
  C  C66  1  0.50433000  0.74711000  0.48230000  1
  C  C67  1  0.21806000  0.81030000  0.46682000  1
  C  C68  1  0.27851000  0.84405000  0.50519000  1
  C  C69  1  0.32407000  0.81791000  0.51438000  1
  C  C70  1  0.31059000  0.75892000  0.48524000  1
  C  C71  1  0.25084000  0.72615000  0.44660000  1
  C  C72  1  0.20399000  0.75064000  0.43768000  1
  C  C73  1  0.31261000  0.12724000  0.98062000  1
  C  C74  1  0.26722000  0.28878000  0.99495000  1
  C  C75  1  0.92017000  0.80301000  0.96663000  1
  C  C76  1  0.91345000  0.97840000  0.00116000  1
  C  C77  1  0.10863000  0.02075000  0.09641000  1
  C  C78  1  0.02320000  0.13770000  0.99891000  1
  C  C79  1  0.09311000  0.05522000  0.86269000  1
  C  C80  1  0.17106000  0.94894000  0.96244000  1
  C  C81  1  0.14873000  0.07716000  0.44961000  1
  C  C82  1  0.08352000  0.21794000  0.44356000  1
  C  C83  1  0.76330000  0.71418000  0.41332000  1
  C  C84  1  0.71803000  0.86832000  0.43161000  1
  C  C85  1  0.93229000  0.94541000  0.54233000  1
  C  C86  1  0.81314000  0.02928000  0.43111000  1
  C  C87  1  0.95862000  0.98886000  0.32212000  1
  C  C88  1  0.00569000  0.88512000  0.41811000  1
  C  C89  1  0.99216000  0.96274000  0.65337000  1
  C  C90  1  0.02090000  0.93760000  0.63575000  1
  C  C91  1  0.99976000  0.92954000  0.59882000  1
  C  C92  1  0.94936000  0.94625000  0.57925000  1
  C  C93  1  0.91829000  0.96830000  0.59624000  1
  C  C94  1  0.93923000  0.97609000  0.63299000  1
  C  C95  1  0.07777000  0.05080000  0.82527000  1
  C  C96  1  0.03292000  0.07290000  0.80560000  1
  C  C97  1  0.01497000  0.06460000  0.76908000  1
  C  C98  1  0.04107000  0.03369000  0.75172000  1
  C  C99  1  0.08778000  0.01366000  0.77184000  1
  C  C100  1  0.10578000  0.02188000  0.80835000  1
  C  C101  1  0.01584000  0.01925000  0.24501000  1
  C  C102  1  0.05249000  0.00144000  0.27263000  1
  C  C103  1  0.03449000  0.99264000  0.29812000  1
  C  C104  1  0.98034000  0.00264000  0.29670000  1
  C  C105  1  0.94559000  0.02319000  0.27003000  1
  C  C106  1  0.96348000  0.03159000  0.24434000  1
  C  C107  1  0.10036000  0.00949000  0.12640000  1
  C  C108  1  0.04986000  0.93962000  0.11720000  1
  C  C109  1  0.03255000  0.93108000  0.14302000  1
  C  C110  1  0.06491000  0.99215000  0.17800000  1
  C  C111  1  0.11778000  0.06141000  0.18810000  1
  C  C112  1  0.13545000  0.07006000  0.16243000  1
  C  C113  1  0.20225000  0.43596000  0.46282000  1
  C  C114  1  0.12643000  0.39299000  0.43686000  1
  C  C115  1  0.08814000  0.32042000  0.42929000  1
  C  C116  1  0.12465000  0.29154000  0.44878000  1
  C  C117  1  0.20056000  0.33397000  0.47399000  1
  C  C118  1  0.23876000  0.40652000  0.48166000  1
  C  C119  1  0.06842000  0.45154000  0.43780000  1
  C  C120  1  0.25755000  0.27522000  0.47091000  1
  C  C121  1  0.66271000  0.85603000  0.43916000  1
  C  C122  1  0.59052000  0.79612000  0.41104000  1
  C  C123  1  0.54290000  0.77653000  0.42157000  1
  C  C124  1  0.56468000  0.81911000  0.45888000  1
  C  C125  1  0.63532000  0.88141000  0.48629000  1
  C  C126  1  0.68352000  0.90037000  0.47604000  1
  C  C127  1  0.53256000  0.77550000  0.34890000  1
  C  C128  1  0.69243000  0.90867000  0.54958000  1
  C  C129  1  0.16924000  0.83722000  0.45716000  1
  C  C130  1  0.15487000  0.85943000  0.42841000  1
  C  C131  1  0.10156000  0.87561000  0.41602000  1
  C  C132  1  0.06572000  0.87444000  0.43376000  1
  C  C133  1  0.08531000  0.85968000  0.46516000  1
  C  C134  1  0.13498000  0.83837000  0.47574000  1
  C  C135  1  0.25040000  0.92939000  0.42944000  1
  C  C136  1  0.09430000  0.92722000  0.51714000  1
  C  C137  1  0.37907000  0.50643000  0.01266000  1
  C  C138  1  0.32455000  0.48475000  0.01859000  1
  C  C139  1  0.28897000  0.41362000  0.01330000  1
  C  C140  1  0.30576000  0.36336000  0.00093000  1
  C  C141  1  0.36110000  0.38547000  0.99562000  1
  C  C142  1  0.39590000  0.45618000  0.00034000  1
  C  C143  1  0.25134000  0.52760000  0.00177000  1
  C  C144  1  0.43590000  0.34500000  0.01534000  1
  C  C145  1  0.86306000  0.96373000  0.01250000  1
  C  C146  1  0.80041000  0.96483000  0.99248000  1
  C  C147  1  0.74868000  0.94096000  0.00007000  1
  C  C148  1  0.76034000  0.91966000  0.02882000  1
  C  C149  1  0.82485000  0.92306000  0.05064000  1
  C  C150  1  0.87522000  0.94373000  0.04193000  1
  C  C151  1  0.80994000  0.05794000  0.97877000  1
  C  C152  1  0.87917000  0.95900000  0.11489000  1
  C  C153  1  0.32735000  0.88948000  0.99671000  1
  C  C154  1  0.25473000  0.83606000  0.96553000  1
  C  C155  1  0.20317000  0.85495000  0.95610000  1
  C  C156  1  0.22369000  0.92715000  0.97689000  1
  C  C157  1  0.29578000  0.97919000  0.00969000  1
  C  C158  1  0.34767000  0.96109000  0.01803000  1
  C  C159  1  0.22482000  0.74813000  0.91143000  1
  C  C160  1  0.31546000  0.05136000  0.06469000  1
  C  C161  1  0.76467000  0.05311000  0.41429000  1
  C  C162  1  0.79239000  0.12129000  0.41510000  1
  C  C163  1  0.75714000  0.15849000  0.41466000  1
  C  C164  1  0.69489000  0.12815000  0.41372000  1
  C  C165  1  0.66297000  0.05613000  0.40834000  1
  C  C166  1  0.69661000  0.01781000  0.40689000  1
  C  C167  1  0.85054000  0.13729000  0.38653000  1
  C  C168  1  0.61024000  0.02913000  0.43895000  1
  C  C169  1  0.67207000  0.52509000  0.42462000  1
  C  C170  1  0.73781000  0.55012000  0.42882000  1
  C  C171  1  0.76591000  0.60997000  0.42314000  1
  C  C172  1  0.72704000  0.64250000  0.41118000  1
  C  C173  1  0.65701000  0.61105000  0.40212000  1
  C  C174  1  0.63124000  0.55463000  0.41053000  1
  C  C175  1  0.75967000  0.46311000  0.40983000  1
  C  C176  1  0.56781000  0.59536000  0.34711000  1
  C  C177  1  0.21225000  0.09178000  0.44959000  1
  C  C178  1  0.27843000  0.11651000  0.48377000  1
  C  C179  1  0.34113000  0.14378000  0.48510000  1
  C  C180  1  0.33764000  0.14315000  0.45210000  1
  C  C181  1  0.27041000  0.11018000  0.41679000  1
  C  C182  1  0.20835000  0.08641000  0.41591000  1
  C  C183  1  0.27248000  0.05468000  0.51751000  1
  C  C184  1  0.25240000  0.03919000  0.36223000  1
  C  C185  1  0.91442000  0.24843000  0.97881000  1
  C  C186  1  0.98679000  0.28690000  0.01100000  1
  C  C187  1  0.02585000  0.25341000  0.01437000  1
  C  C188  1  0.99160000  0.17998000  0.98753000  1
  C  C189  1  0.92240000  0.14498000  0.95292000  1
  C  C190  1  0.88397000  0.17944000  0.94885000  1
  C  C191  1  0.02016000  0.35972000  0.07040000  1
  C  C192  1  0.89987000  0.07577000  0.89636000  1
  C  C193  1  0.87617000  0.73211000  0.96256000  1
  C  C194  1  0.82742000  0.72272000  0.97251000  1
  C  C195  1  0.79724000  0.66094000  0.97650000  1
  C  C196  1  0.81215000  0.60658000  0.96849000  1
  C  C197  1  0.85758000  0.61399000  0.95627000  1
  C  C198  1  0.88830000  0.67615000  0.95269000  1
  C  C199  1  0.75040000  0.75929000  0.94947000  1
  C  C200  1  0.93243000  0.57387000  0.97718000  1
  C  C201  1  0.49194000  0.18520000  0.97553000  1
  C  C202  1  0.49130000  0.16423000  0.00335000  1
  C  C203  1  0.43040000  0.14085000  0.00362000  1
  C  C204  1  0.36830000  0.13294000  0.97460000  1
  C  C205  1  0.36505000  0.14159000  0.94298000  1
  C  C206  1  0.42727000  0.16825000  0.94379000  1
  C  C207  1  0.54964000  0.10685000  0.02010000  1
  C  C208  1  0.29230000  0.17678000  0.91066000  1
  N  N1  1  0.76098000  0.37235000  0.00352000  1
  N  N2  1  0.59979000  0.30073000  0.46660000  1
  N  N3  1  0.53138000  0.80471000  0.04632000  1
  N  N4  1  0.35900000  0.73350000  0.49523000  1
  N  N5  1  0.01589000  0.97353000  0.69137000  1
  N  N6  1  0.02183000  0.02515000  0.71454000  1
  N  N7  1  0.03256000  0.02642000  0.21839000  1
  N  N8  1  0.04545000  0.98330000  0.20342000  1
  O  O1  1  0.11158000  0.01192000  0.87385000  1
  O  O2  1  0.09258000  0.10538000  0.88565000  1
  O  O3  1  0.12108000  0.91643000  0.92500000  1
  O  O4  1  0.06614000  0.03335000  0.92758000  1
  O  O5  1  0.33165000  0.16823000  0.01510000  1
  O  O6  1  0.24430000  0.08570000  0.95117000  1
  O  O7  1  0.16439000  0.14051000  0.99561000  1
  O  O8  1  0.18017000  0.00674000  0.98632000  1
  O  O9  1  0.21207000  0.23471000  0.95939000  1
  O  O10  1  0.29083000  0.27678000  0.02485000  1
  O  O11  1  0.01453000  0.08404000  0.97245000  1
  O  O12  1  0.99080000  0.84085000  0.99241000  1
  O  O13  1  0.88921000  0.82360000  0.94181000  1
  O  O14  1  0.88794000  0.95838000  0.96454000  1
  O  O15  1  0.97678000  0.98935000  0.02441000  1
  O  O16  1  0.02332000  0.94224000  0.95941000  1
  O  O17  1  0.09699000  0.96618000  0.06872000  1
  O  O18  1  0.12477000  0.08415000  0.09674000  1
  O  O19  1  0.05201000  0.14792000  0.03453000  1
  O  O20  1  0.12239000  0.04720000  0.02752000  1
  O  O21  1  0.96832000  0.94303000  0.33452000  1
  O  O22  1  0.93736000  0.02801000  0.33550000  1
  O  O23  1  0.95312000  0.84474000  0.38098000  1
  O  O24  1  0.89331000  0.95505000  0.37340000  1
  O  O25  1  0.15680000  0.11523000  0.48106000  1
  O  O26  1  0.08425000  0.03552000  0.41661000  1
  O  O27  1  0.97588000  0.06515000  0.44097000  1
  O  O28  1  0.01269000  0.94463000  0.43892000  1
  O  O29  1  0.03351000  0.16164000  0.40793000  1
  O  O30  1  0.09846000  0.20964000  0.47456000  1
  O  O31  1  0.81841000  0.98409000  0.40840000  1
  O  O32  1  0.83256000  0.76192000  0.44147000  1
  O  O33  1  0.72756000  0.72703000  0.38554000  1
  O  O34  1  0.69916000  0.84588000  0.39588000  1
  O  O35  1  0.78230000  0.88678000  0.45930000  1
  O  O36  1  0.85470000  0.86032000  0.40538000  1
  O  O37  1  0.92523000  0.89264000  0.51599000  1
  O  O38  1  0.92537000  0.99819000  0.53651000  1
  O  O39  1  0.84161000  0.04377000  0.46734000  1
  O  O40  1  0.93844000  0.96995000  0.47228000  1
  O  O41  1  0.08996000  0.42027000  0.41687000  1
  O  O42  1  0.23746000  0.30599000  0.49298000  1
  O  O43  1  0.56805000  0.75281000  0.37418000  1
  O  O44  1  0.65560000  0.92711000  0.52214000  1
  O  O45  1  0.18825000  0.85879000  0.40989000  1
  O  O46  1  0.05075000  0.85905000  0.48306000  1
  O  O47  1  0.31073000  0.53521000  0.03310000  1
  O  O48  1  0.37740000  0.33614000  0.98284000  1
  O  O49  1  0.78658000  0.98321000  0.96312000  1
  O  O50  1  0.83499000  0.89802000  0.07745000  1
  O  O51  1  0.23284000  0.76358000  0.94696000  1
  O  O52  1  0.31654000  0.04913000  0.03241000  1
  O  O53  1  0.85955000  0.15667000  0.42239000  1
  O  O54  1  0.59751000  0.02223000  0.40311000  1
  O  O55  1  0.77807000  0.52069000  0.44218000  1
  O  O56  1  0.61590000  0.63922000  0.38790000  1
  O  O57  1  0.28321000  0.12082000  0.51704000  1
  O  O58  1  0.26623000  0.10771000  0.38388000  1
  O  O59  1  0.02054000  0.35885000  0.03809000  1
  O  O60  1  0.88876000  0.07367000  0.92524000  1
  O  O61  1  0.81501000  0.77754000  0.98226000  1
  O  O62  1  0.86804000  0.55803000  0.94528000  1
  O  O63  1  0.55259000  0.17312000  0.03250000  1
  O  O64  1  0.29979000  0.11685000  0.90964000  1
