# generated using pymatgen
data_Zn7H100C110N2(ClO10)2
_symmetry_space_group_name_H-M   'P 1'
_cell_length_a   24.55189000
_cell_length_b   22.31029000
_cell_length_c   31.78644000
_cell_angle_alpha   104.02906000
_cell_angle_beta   115.94002000
_cell_angle_gamma   111.52259000
_symmetry_Int_Tables_number   1
_chemical_formula_structural   Zn7H100C110N2(ClO10)2
_chemical_formula_sum   'Zn14 H200 C220 N4 Cl4 O40'
_cell_volume   12764.93656303
_cell_formula_units_Z   2
loop_
 _symmetry_equiv_pos_site_id
 _symmetry_equiv_pos_as_xyz
  1  'x, y, z'
loop_
 _atom_site_type_symbol
 _atom_site_label
 _atom_site_symmetry_multiplicity
 _atom_site_fract_x
 _atom_site_fract_y
 _atom_site_fract_z
 _atom_site_occupancy
  Zn  Zn1  1  0.18592000  0.16079000  0.00035000  1
  Zn  Zn2  1  0.06476000  0.10378000  0.88770000  1
  Zn  Zn3  1  0.00788000  0.06277000  0.02979000  1
  Zn  Zn4  1  0.12875000  0.14449000  0.48195000  1
  Zn  Zn5  1  0.01116000  0.07273000  0.36414000  1
  Zn  Zn6  1  0.93829000  0.02067000  0.49733000  1
  Zn  Zn7  1  0.03027000  0.01594000  0.94024000  1
  Zn  Zn8  1  0.97995000  0.98559000  0.41810000  1
  Zn  Zn9  1  0.87613000  0.88421000  0.89518000  1
  Zn  Zn10  1  0.00524000  0.92951000  0.99552000  1
  Zn  Zn11  1  0.03818000  0.94637000  0.84759000  1
  Zn  Zn12  1  0.83155000  0.83677000  0.36690000  1
  Zn  Zn13  1  0.96008000  0.90216000  0.47623000  1
  Zn  Zn14  1  0.00534000  0.92441000  0.33456000  1
  H  H1  1  0.64194000  0.36522000  0.92677000  1
  H  H2  1  0.54877000  0.14865000  0.97359000  1
  H  H3  1  0.66389000  0.21988000  0.98703000  1
  H  H4  1  0.53953000  0.34162000  0.01340000  1
  H  H5  1  0.89066000  0.28772000  0.03507000  1
  H  H6  1  0.84776000  0.35613000  0.07046000  1
  H  H7  1  0.67535000  0.28143000  0.90981000  1
  H  H8  1  0.72315000  0.22032000  0.87466000  1
  H  H9  1  0.42828000  0.18051000  0.40092000  1
  H  H10  1  0.52855000  0.21727000  0.39198000  1
  H  H11  1  0.58043000  0.29711000  0.57223000  1
  H  H12  1  0.75784000  0.15701000  0.47169000  1
  H  H13  1  0.73749000  0.24512000  0.51572000  1
  H  H14  1  0.61292000  0.23978000  0.36678000  1
  H  H15  1  0.63178000  0.15014000  0.32247000  1
  H  H16  1  0.10882000  0.05746000  0.03787000  1
  H  H17  1  0.05152000  0.03522000  0.51716000  1
  H  H18  1  0.18186000  0.26858000  0.37695000  1
  H  H19  1  0.33656000  0.35738000  0.42289000  1
  H  H20  1  0.10104000  0.31456000  0.48900000  1
  H  H21  1  0.00910000  0.29253000  0.39813000  1
  H  H22  1  0.23172000  0.01734000  0.49312000  1
  H  H23  1  0.35417000  0.06003000  0.60536000  1
  H  H24  1  0.43793000  0.07636000  0.61612000  1
  H  H25  1  0.31321000  0.32798000  0.96996000  1
  H  H26  1  0.12162000  0.40124000  0.97035000  1
  H  H27  1  0.10870000  0.31474000  0.96305000  1
  H  H28  1  0.07522000  0.36158000  0.87549000  1
  H  H29  1  0.01165000  0.29678000  0.88088000  1
  H  H30  1  0.06675000  0.27450000  0.86604000  1
  H  H31  1  0.88077000  0.06162000  0.09998000  1
  H  H32  1  0.83950000  0.07660000  0.99822000  1
  H  H33  1  0.89615000  0.14966000  0.06582000  1
  H  H34  1  0.80144000  0.08842000  0.03478000  1
  H  H35  1  0.79216000  0.18953000  0.37071000  1
  H  H36  1  0.93182000  0.15344000  0.40780000  1
  H  H37  1  0.89686000  0.20201000  0.38000000  1
  H  H38  1  0.86297000  0.04934000  0.31609000  1
  H  H39  1  0.91802000  0.13526000  0.32187000  1
  H  H40  1  0.82238000  0.09530000  0.28741000  1
  H  H41  1  0.57948000  0.00165000  0.33152000  1
  H  H42  1  0.63216000  0.03480000  0.42537000  1
  H  H43  1  0.27562000  0.05736000  0.43924000  1
  H  H44  1  0.47110000  0.32150000  0.53895000  1
  H  H45  1  0.40625000  0.07561000  0.41938000  1
  H  H46  1  0.35068000  0.02027000  0.43342000  1
  H  H47  1  0.51449000  0.12596000  0.50637000  1
  H  H48  1  0.46023000  0.03094000  0.48670000  1
  H  H49  1  0.41572000  0.34516000  0.58525000  1
  H  H50  1  0.32645000  0.27926000  0.55998000  1
  H  H51  1  0.37600000  0.37102000  0.51094000  1
  H  H52  1  0.32291000  0.37343000  0.53569000  1
  H  H53  1  0.28418000  0.29452000  0.47489000  1
  H  H54  1  0.73263000  0.10555000  0.88503000  1
  H  H55  1  0.99284000  0.22383000  0.96118000  1
  H  H56  1  0.00830000  0.33989000  0.97953000  1
  H  H57  1  0.95383000  0.35673000  0.99710000  1
  H  H58  1  0.91439000  0.30011000  0.88257000  1
  H  H59  1  0.95936000  0.39517000  0.92965000  1
  H  H60  1  0.86869000  0.33023000  0.90545000  1
  H  H61  1  0.39712000  0.19954000  0.05630000  1
  H  H62  1  0.40614000  0.14214000  0.89926000  1
  H  H63  1  0.57428000  0.23564000  0.08294000  1
  H  H64  1  0.51699000  0.20584000  0.10331000  1
  H  H65  1  0.57756000  0.35443000  0.10363000  1
  H  H66  1  0.52012000  0.32339000  0.12493000  1
  H  H67  1  0.28132000  0.06292000  0.84028000  1
  H  H68  1  0.68070000  0.34236000  0.56321000  1
  H  H69  1  0.89372000  0.96345000  0.60790000  1
  H  H70  1  0.23599000  0.34198000  0.34429000  1
  H  H71  1  0.46514000  0.10000000  0.53425000  1
  H  H72  1  0.23382000  0.09556000  0.85610000  1
  H  H73  1  0.35064000  0.04406000  0.52364000  1
  H  H74  1  0.91527000  0.04721000  0.06288000  1
  H  H75  1  0.60910000  0.33951000  0.16055000  1
  H  H76  1  0.58647000  0.33292000  0.39880000  1
  H  H77  1  0.39409000  0.07333000  0.05354000  1
  H  H78  1  0.37145000  0.41753000  0.39999000  1
  H  H79  1  0.13598000  0.41011000  0.51494000  1
  H  H80  1  0.00196000  0.33395000  0.45031000  1
  H  H81  1  0.65727000  0.41499000  0.03093000  1
  H  H82  1  0.21805000  0.48990000  0.97167000  1
  H  H83  1  0.14084000  0.07460000  0.28494000  1
  H  H84  1  0.77294000  0.05053000  0.55802000  1
  H  H85  1  0.85182000  0.50286000  0.07748000  1
  H  H86  1  0.66666667  0.46680000  0.90537000  1
  H  H87  1  0.80513000  0.42419000  0.52944000  1
  H  H88  1  0.27334000  0.43779000  0.37206000  1
  H  H89  1  0.37411000  0.45501000  0.45840000  1
  H  H90  1  0.04339000  0.38975000  0.42761000  1
  H  H91  1  0.74917000  0.04761000  0.60404000  1
  H  H92  1  0.68024000  0.01334000  0.53502000  1
  H  H93  1  0.26805000  0.03026000  0.99015000  1
  H  H94  1  0.82736000  0.43458000  0.36357000  1
  H  H95  1  0.62744000  0.43948000  0.38446000  1
  H  H96  1  0.40788000  0.41656000  0.96890000  1
  H  H97  1  0.45179000  0.44919000  0.06355000  1
  H  H98  1  0.72180000  0.43292000  0.35573000  1
  H  H99  1  0.32508000  0.53972000  0.92037000  1
  H  H100  1  0.20267000  0.48536000  0.48991000  1
  H  H101  1  0.42425000  0.50536000  0.98104000  1
  H  H102  1  0.84623000  0.53036000  0.51418000  1
  H  H103  1  0.21969000  0.51322000  0.38036000  1
  H  H104  1  0.46821000  0.53998000  0.07694000  1
  H  H105  1  0.51854000  0.51161000  0.05934000  1
  H  H106  1  0.75043000  0.48035000  0.32479000  1
  H  H107  1  0.85189000  0.48600000  0.42901000  1
  H  H108  1  0.82471000  0.54905000  0.92067000  1
  H  H109  1  0.45931000  0.06003000  0.01427000  1
  H  H110  1  0.42078000  0.01201000  0.06530000  1
  H  H111  1  0.87694000  0.60400000  0.05535000  1
  H  H112  1  0.38977000  0.59833000  0.08144000  1
  H  H113  1  0.36465000  0.55227000  0.53816000  1
  H  H114  1  0.54310000  0.63809000  0.87628000  1
  H  H115  1  0.87984000  0.53371000  0.39660000  1
  H  H116  1  0.71378000  0.60862000  0.00200000  1
  H  H117  1  0.89605000  0.61082000  0.89358000  1
  H  H118  1  0.76929000  0.55498000  0.81554000  1
  H  H119  1  0.83497000  0.60577000  0.80570000  1
  H  H120  1  0.36791000  0.02659000  0.96276000  1
  H  H121  1  0.40043000  0.67051000  0.94790000  1
  H  H122  1  0.30006000  0.64196000  0.40646000  1
  H  H123  1  0.47176000  0.67595000  0.47787000  1
  H  H124  1  0.63792000  0.68576000  0.90447000  1
  H  H125  1  0.60826000  0.69045000  0.94760000  1
  H  H126  1  0.76617000  0.62196000  0.50215000  1
  H  H127  1  0.81161000  0.61369000  0.36364000  1
  H  H128  1  0.71668000  0.68630000  0.99544000  1
  H  H129  1  0.84314000  0.69170000  0.08428000  1
  H  H130  1  0.78439000  0.71741000  0.09043000  1
  H  H131  1  0.79072000  0.64537000  0.82293000  1
  H  H132  1  0.37627000  0.99133000  0.60758000  1
  H  H133  1  0.66285000  0.97275000  0.42186000  1
  H  H134  1  0.92339000  0.93847000  0.09770000  1
  H  H135  1  0.71432000  0.94682000  0.36452000  1
  H  H136  1  0.58850000  0.92468000  0.31910000  1
  H  H137  1  0.25919000  0.97657000  0.87744000  1
  H  H138  1  0.56800000  0.93719000  0.38697000  1
  H  H139  1  0.20560000  0.00533000  0.89043000  1
  H  H140  1  0.13274000  0.03666000  0.75900000  1
  H  H141  1  0.55654000  0.76374000  0.30272000  1
  H  H142  1  0.59155000  0.68022000  0.27243000  1
  H  H143  1  0.09807000  0.87888000  0.01510000  1
  H  H144  1  0.46316000  0.72955000  0.10866000  1
  H  H145  1  0.60275000  0.92609000  0.99535000  1
  H  H146  1  0.51798000  0.89523000  0.01959000  1
  H  H147  1  0.56597000  0.73913000  0.05623000  1
  H  H148  1  0.65662000  0.77666000  0.03738000  1
  H  H149  1  0.38214000  0.91010000  0.09609000  1
  H  H150  1  0.46604000  0.86783000  0.11595000  1
  H  H151  1  0.38102000  0.76593000  0.94935000  1
  H  H152  1  0.29816000  0.80911000  0.92977000  1
  H  H153  1  0.43929000  0.68370000  0.56638000  1
  H  H154  1  0.55984000  0.71760000  0.45749000  1
  H  H155  1  0.47736000  0.87835000  0.50461000  1
  H  H156  1  0.55708000  0.91380000  0.47618000  1
  H  H157  1  0.32569000  0.85667000  0.57727000  1
  H  H158  1  0.40340000  0.80858000  0.58336000  1
  H  H159  1  0.33398000  0.76382000  0.42290000  1
  H  H160  1  0.25870000  0.81449000  0.41776000  1
  H  H161  1  0.95302000  0.97973000  0.84446000  1
  H  H162  1  0.90809000  0.94258000  0.32064000  1
  H  H163  1  0.53749000  0.76343000  0.36974000  1
  H  H164  1  0.79650000  0.95732000  0.50981000  1
  H  H165  1  0.64107000  0.81365000  0.31588000  1
  H  H166  1  0.66666667  0.71845000  0.34012000  1
  H  H167  1  0.57590000  0.66975000  0.32134000  1
  H  H168  1  0.77137000  0.94889000  0.57736000  1
  H  H169  1  0.68284000  0.91306000  0.56009000  1
  H  H170  1  0.15206000  0.76441000  0.46851000  1
  H  H171  1  0.01665000  0.81858000  0.44293000  1
  H  H172  1  0.04682000  0.76585000  0.46838000  1
  H  H173  1  0.99346000  0.74643000  0.35516000  1
  H  H174  1  0.94248000  0.68988000  0.37253000  1
  H  H175  1  0.02095000  0.69156000  0.38170000  1
  H  H176  1  0.37275000  0.97679000  0.52466000  1
  H  H177  1  0.76324000  0.97443000  0.07214000  1
  H  H178  1  0.70977000  0.81074000  0.90323000  1
  H  H179  1  0.57936000  0.75008000  0.86744000  1
  H  H180  1  0.55284000  0.75689000  0.91119000  1
  H  H181  1  0.19782000  0.78350000  0.97633000  1
  H  H182  1  0.39377000  0.96248000  0.97316000  1
  H  H183  1  0.07269000  0.74685000  0.93167000  1
  H  H184  1  0.04475000  0.80734000  0.91909000  1
  H  H185  1  0.13459000  0.82382000  0.03112000  1
  H  H186  1  0.03867000  0.78222000  0.99048000  1
  H  H187  1  0.85138000  0.80259000  0.50773000  1
  H  H188  1  0.82767000  0.75619000  0.54083000  1
  H  H189  1  0.71949000  0.74269000  0.43535000  1
  H  H190  1  0.74489000  0.79564000  0.50099000  1
  H  H191  1  0.69631000  0.69685000  0.47023000  1
  H  H192  1  0.79750000  0.97950000  0.85760000  1
  H  H193  1  0.73710000  0.99997000  0.81759000  1
  H  H194  1  0.74130000  0.98031000  0.91149000  1
  H  H195  1  0.67149000  0.97821000  0.85682000  1
  H  H196  1  0.68702000  0.90517000  0.84486000  1
  H  H197  1  0.80094000  0.76045000  0.97831000  1
  H  H198  1  0.84406000  0.76988000  0.07679000  1
  H  H199  1  0.91794000  0.69968000  0.90117000  1
  H  H200  1  0.17800000  0.96031000  0.82321000  1
  C  C1  1  0.53640000  0.24032000  0.99237000  1
  C  C2  1  0.57136000  0.20625000  0.98433000  1
  C  C3  1  0.63635000  0.24669000  0.99118000  1
  C  C4  1  0.66613000  0.32181000  0.00461000  1
  C  C5  1  0.63237000  0.35623000  0.01567000  1
  C  C6  1  0.56652000  0.31504000  0.00725000  1
  C  C7  1  0.81148000  0.25165000  0.95252000  1
  C  C8  1  0.84523000  0.28854000  0.00773000  1
  C  C9  1  0.82050000  0.32653000  0.02777000  1
  C  C10  1  0.76010000  0.32560000  0.99287000  1
  C  C11  1  0.72423000  0.28588000  0.93733000  1
  C  C12  1  0.75067000  0.25021000  0.91739000  1
  C  C13  1  0.49746000  0.23424000  0.48717000  1
  C  C14  1  0.48332000  0.21421000  0.43641000  1
  C  C15  1  0.54017000  0.23655000  0.43134000  1
  C  C16  1  0.61177000  0.28443000  0.47714000  1
  C  C17  1  0.62568000  0.30641000  0.52777000  1
  C  C18  1  0.56893000  0.28081000  0.53285000  1
  C  C19  1  0.69540000  0.14690000  0.39396000  1
  C  C20  1  0.72505000  0.17398000  0.44850000  1
  C  C21  1  0.71375000  0.22397000  0.47346000  1
  C  C22  1  0.67477000  0.24939000  0.44475000  1
  C  C23  1  0.64400000  0.22147000  0.38974000  1
  C  C24  1  0.65433000  0.17031000  0.36451000  1
  C  C25  1  0.27095000  0.14876000  0.96502000  1
  C  C26  1  0.18670000  0.26439000  0.95606000  1
  C  C27  1  0.92959000  0.08692000  0.94838000  1
  C  C28  1  0.23561000  0.14767000  0.46758000  1
  C  C29  1  0.12005000  0.23660000  0.42675000  1
  C  C30  1  0.85670000  0.03184000  0.40951000  1
  C  C31  1  0.18597000  0.31584000  0.40123000  1
  C  C32  1  0.15242000  0.30736000  0.42740000  1
  C  C33  1  0.15646000  0.36854000  0.45826000  1
  C  C34  1  0.10940000  0.35905000  0.47803000  1
  C  C35  1  0.38009000  0.03371000  0.59459000  1
  C  C36  1  0.29228000  0.36320000  0.96999000  1
  C  C37  1  0.22468000  0.33691000  0.96083000  1
  C  C38  1  0.19723000  0.38266000  0.96107000  1
  C  C39  1  0.12290000  0.35491000  0.94883000  1
  C  C40  1  0.06580000  0.31980000  0.88910000  1
  C  C41  1  0.84951000  0.09191000  0.03792000  1
  C  C42  1  0.79985000  0.04260000  0.37808000  1
  C  C43  1  0.81823000  0.10740000  0.37365000  1
  C  C44  1  0.77518000  0.13641000  0.36930000  1
  C  C45  1  0.71516000  0.10135000  0.36983000  1
  C  C46  1  0.68846000  0.02873000  0.36174000  1
  C  C47  1  0.73148000  0.99984000  0.36609000  1
  C  C48  1  0.88377000  0.14612000  0.37408000  1
  C  C49  1  0.61502000  0.98220000  0.34938000  1
  C  C50  1  0.87071000  0.10363000  0.32156000  1
  C  C51  1  0.62023000  0.98198000  0.39905000  1
  C  C52  1  0.43729000  0.21040000  0.49260000  1
  C  C53  1  0.38478000  0.13492000  0.46880000  1
  C  C54  1  0.31914000  0.11479000  0.46228000  1
  C  C55  1  0.30894000  0.16848000  0.48461000  1
  C  C56  1  0.36683000  0.24309000  0.51676000  1
  C  C57  1  0.42937000  0.26371000  0.51853000  1
  C  C58  1  0.39848000  0.07557000  0.45122000  1
  C  C59  1  0.36167000  0.30170000  0.54760000  1
  C  C60  1  0.46351000  0.08398000  0.49761000  1
  C  C61  1  0.33437000  0.33719000  0.51509000  1
  C  C62  1  0.89364000  0.12244000  0.92587000  1
  C  C63  1  0.81815000  0.08766000  0.89826000  1
  C  C64  1  0.78968000  0.13124000  0.90263000  1
  C  C65  1  0.83528000  0.20806000  0.93148000  1
  C  C66  1  0.90695000  0.24141000  0.94694000  1
  C  C67  1  0.93604000  0.19806000  0.94469000  1
  C  C68  1  0.95162000  0.32215000  0.96400000  1
  C  C69  1  0.92145000  0.33757000  0.91743000  1
  C  C70  1  0.46784000  0.19782000  0.98503000  1
  C  C71  1  0.46489000  0.20817000  0.02941000  1
  C  C72  1  0.39880000  0.18730000  0.02190000  1
  C  C73  1  0.33540000  0.15286000  0.97048000  1
  C  C74  1  0.33681000  0.12893000  0.92546000  1
  C  C75  1  0.40376000  0.15441000  0.93335000  1
  C  C76  1  0.53126000  0.23924000  0.08461000  1
  C  C77  1  0.26818000  0.07356000  0.86954000  1
  C  C78  1  0.56109000  0.31902000  0.12040000  1
  C  C79  1  0.04572000  0.01413000  0.10745000  1
  C  C80  1  0.04017000  0.02308000  0.78548000  1
  C  C81  1  0.98862000  0.98568000  0.58355000  1
  C  C82  1  0.01758000  0.00503000  0.27599000  1
  C  C83  1  0.00090000  0.99051000  0.63413000  1
  C  C84  1  0.02626000  0.01196000  0.73337000  1
  C  C85  1  0.95822000  0.99019000  0.69018000  1
  C  C86  1  0.94601000  0.97982000  0.64095000  1
  C  C87  1  0.02455000  0.00641000  0.23262000  1
  C  C88  1  0.03957000  0.00775000  0.15017000  1
  C  C89  1  0.22858000  0.38562000  0.40886000  1
  C  C90  1  0.26776000  0.39313000  0.38264000  1
  C  C91  1  0.23883000  0.45459000  0.97144000  1
  C  C92  1  0.86630000  0.04157000  0.05873000  1
  C  C93  1  0.74582000  0.42675000  0.00357000  1
  C  C94  1  0.69314000  0.37104000  0.46539000  1
  C  C95  1  0.10106000  0.04623000  0.20318000  1
  C  C96  1  0.09335000  0.04500000  0.24411000  1
  C  C97  1  0.69320000  0.41720000  0.95504000  1
  C  C98  1  0.34208000  0.40671000  0.41843000  1
  C  C99  1  0.03644000  0.34277000  0.43578000  1
  C  C100  1  0.64299000  0.37588000  0.42444000  1
  C  C101  1  0.81103000  0.49511000  0.04020000  1
  C  C102  1  0.70689000  0.47494000  0.94311000  1
  C  C103  1  0.76625000  0.42742000  0.49783000  1
  C  C104  1  0.23692000  0.44778000  0.44300000  1
  C  C105  1  0.19900000  0.43824000  0.46592000  1
  C  C106  1  0.30774000  0.48188000  0.98277000  1
  C  C107  1  0.33413000  0.43524000  0.98078000  1
  C  C108  1  0.66630000  0.43608000  0.41598000  1
  C  C109  1  0.73092000  0.01792000  0.56235000  1
  C  C110  1  0.40830000  0.46254000  0.99279000  1
  C  C111  1  0.46500000  0.49268000  0.05185000  1
  C  C112  1  0.77318000  0.54240000  0.97913000  1
  C  C113  1  0.82505000  0.55244000  0.02780000  1
  C  C114  1  0.73978000  0.49116000  0.44753000  1
  C  C115  1  0.78951000  0.48724000  0.48901000  1
  C  C116  1  0.35290000  0.56014000  0.99916000  1
  C  C117  1  0.35522000  0.58103000  0.96147000  1
  C  C118  1  0.28739000  0.52343000  0.45714000  1
  C  C119  1  0.26860000  0.54977000  0.42056000  1
  C  C120  1  0.76611000  0.48376000  0.36424000  1
  C  C121  1  0.83572000  0.48483000  0.39015000  1
  C  C122  1  0.39185000  0.61402000  0.05222000  1
  C  C123  1  0.39733000  0.65522000  0.97696000  1
  C  C124  1  0.31311000  0.62329000  0.43575000  1
  C  C125  1  0.34996000  0.57190000  0.50949000  1
  C  C126  1  0.76421000  0.55530000  0.43922000  1
  C  C127  1  0.77578000  0.55221000  0.39906000  1
  C  C128  1  0.79154000  0.59931000  0.96317000  1
  C  C129  1  0.82038000  0.59567000  0.93379000  1
  C  C130  1  0.75025000  0.66337000  0.00907000  1
  C  C131  1  0.81316000  0.61075000  0.82956000  1
  C  C132  1  0.34409000  0.99962000  0.53458000  1
  C  C133  1  0.38353000  0.01807000  0.03336000  1
  C  C134  1  0.78212000  0.65793000  0.97792000  1
  C  C135  1  0.43354000  0.68825000  0.06768000  1
  C  C136  1  0.43627000  0.70942000  0.03023000  1
  C  C137  1  0.37371000  0.67267000  0.48902000  1
  C  C138  1  0.39225000  0.64631000  0.52551000  1
  C  C139  1  0.59662000  0.68865000  0.90930000  1
  C  C140  1  0.77656000  0.62039000  0.47218000  1
  C  C141  1  0.80085000  0.61517000  0.39342000  1
  C  C142  1  0.84507000  0.65243000  0.92223000  1
  C  C143  1  0.87326000  0.64550000  0.88852000  1
  C  C144  1  0.80932000  0.71369000  0.06879000  1
  C  C145  1  0.40196000  0.01635000  0.99324000  1
  C  C146  1  0.96304000  0.96765000  0.17949000  1
  C  C147  1  0.97087000  0.96803000  0.13854000  1
  C  C148  1  0.22542000  0.99966000  0.86527000  1
  C  C149  1  0.06837000  0.01054000  0.67686000  1
  C  C150  1  0.08062000  0.02084000  0.72613000  1
  C  C151  1  0.63265000  0.85057000  0.01200000  1
  C  C152  1  0.59352000  0.88407000  0.00747000  1
  C  C153  1  0.54349000  0.86472000  0.01965000  1
  C  C154  1  0.52839000  0.80764000  0.03320000  1
  C  C155  1  0.57163000  0.77792000  0.04109000  1
  C  C156  1  0.62336000  0.79939000  0.03061000  1
  C  C157  1  0.33567000  0.86393000  0.01178000  1
  C  C158  1  0.38234000  0.87925000  0.06412000  1
  C  C159  1  0.42983000  0.85537000  0.07538000  1
  C  C160  1  0.42986000  0.81438000  0.03429000  1
  C  C161  1  0.38127000  0.79697000  0.98144000  1
  C  C162  1  0.33475000  0.82202000  0.97042000  1
  C  C163  1  0.56527000  0.81900000  0.46620000  1
  C  C164  1  0.53974000  0.75141000  0.46588000  1
  C  C165  1  0.48876000  0.72734000  0.47683000  1
  C  C166  1  0.46211000  0.77078000  0.48833000  1
  C  C167  1  0.49100000  0.84050000  0.49099000  1
  C  C168  1  0.53907000  0.86236000  0.47719000  1
  C  C169  1  0.28780000  0.83987000  0.49742000  1
  C  C170  1  0.32839000  0.83760000  0.54391000  1
  C  C171  1  0.37229000  0.81025000  0.54733000  1
  C  C172  1  0.37484000  0.78345000  0.50392000  1
  C  C173  1  0.33291000  0.78454000  0.45685000  1
  C  C174  1  0.29021000  0.81324000  0.45392000  1
  C  C175  1  0.87737000  0.77967000  0.93816000  1
  C  C176  1  0.84141000  0.93395000  0.96363000  1
  C  C177  1  0.12506000  0.94003000  0.93694000  1
  C  C178  1  0.84584000  0.74681000  0.42266000  1
  C  C179  1  0.77556000  0.87827000  0.41967000  1
  C  C180  1  0.08730000  0.92406000  0.42828000  1
  C  C181  1  0.71828000  0.87204000  0.42751000  1
  C  C182  1  0.64310000  0.81965000  0.38657000  1
  C  C183  1  0.59422000  0.80519000  0.40028000  1
  C  C184  1  0.61762000  0.84278000  0.45291000  1
  C  C185  1  0.69129000  0.89855000  0.49278000  1
  C  C186  1  0.74022000  0.91420000  0.47918000  1
  C  C187  1  0.61306000  0.77881000  0.32826000  1
  C  C188  1  0.71910000  0.94192000  0.55016000  1
  C  C189  1  0.61206000  0.70766000  0.31496000  1
  C  C190  1  0.14098000  0.91002000  0.46069000  1
  C  C191  1  0.11925000  0.84023000  0.45791000  1
  C  C192  1  0.16934000  0.81937000  0.47339000  1
  C  C193  1  0.24100000  0.86827000  0.49345000  1
  C  C194  1  0.26482000  0.94169000  0.50373000  1
  C  C195  1  0.21431000  0.96197000  0.48725000  1
  C  C196  1  0.04378000  0.78884000  0.44063000  1
  C  C197  1  0.99758000  0.72544000  0.38399000  1
  C  C198  1  0.78749000  0.91501000  0.97571000  1
  C  C199  1  0.80208000  0.96261000  0.02339000  1
  C  C200  1  0.75181000  0.93890000  0.03532000  1
  C  C201  1  0.68554000  0.87138000  0.99911000  1
  C  C202  1  0.66893000  0.82623000  0.94993000  1
  C  C203  1  0.72114000  0.84723000  0.93968000  1
  C  C204  1  0.59550000  0.75597000  0.90753000  1
  C  C205  1  0.28438000  0.88777000  0.99960000  1
  C  C206  1  0.30544000  0.95954000  0.00647000  1
  C  C207  1  0.25284000  0.97676000  0.98759000  1
  C  C208  1  0.18051000  0.92470000  0.96422000  1
  C  C209  1  0.16100000  0.85554000  0.96235000  1
  C  C210  1  0.21293000  0.83715000  0.97894000  1
  C  C211  1  0.08806000  0.80487000  0.94931000  1
  C  C212  1  0.09018000  0.82387000  0.99970000  1
  C  C213  1  0.81436000  0.68065000  0.42701000  1
  C  C214  1  0.80178000  0.68337000  0.46667000  1
  C  C215  1  0.80964000  0.75111000  0.50067000  1
  C  C216  1  0.73802000  0.74606000  0.47504000  1
  C  C217  1  0.76759000  0.00636000  0.85822000  1
  C  C218  1  0.71381000  0.96536000  0.86874000  1
  C  C219  1  0.80582000  0.71410000  0.96558000  1
  C  C220  1  0.83946000  0.71306000  0.93966000  1
  N  N1  1  0.73574000  0.36573000  0.01448000  1
  N  N2  1  0.67135000  0.30745000  0.47297000  1
  N  N3  1  0.47657000  0.78672000  0.04639000  1
  N  N4  1  0.41646000  0.75036000  0.50689000  1
  Cl  Cl1  1  0.88684000  0.97282000  0.69646000  1
  Cl  Cl2  1  0.18799000  0.09612000  0.21882000  1
  Cl  Cl3  1  0.87589000  0.91774000  0.16357000  1
  Cl  Cl4  1  0.13886000  0.02553000  0.66987000  1
  O  O1  1  0.03022000  0.07014000  0.81021000  1
  O  O2  1  0.26432000  0.15286000  0.00427000  1
  O  O3  1  0.22654000  0.15308000  0.92538000  1
  O  O4  1  0.08936000  0.11642000  0.96066000  1
  O  O5  1  0.12950000  0.20839000  0.90849000  1
  O  O6  1  0.21413000  0.25597000  0.99869000  1
  O  O7  1  0.93410000  0.03918000  0.91843000  1
  O  O8  1  0.05031000  0.07107000  0.10042000  1
  O  O9  1  0.95799000  0.10424000  0.99869000  1
  O  O10  1  0.05636000  0.03011000  0.00985000  1
  O  O11  1  0.98972000  0.03895000  0.29020000  1
  O  O12  1  0.21935000  0.15147000  0.50194000  1
  O  O13  1  0.18702000  0.12833000  0.41828000  1
  O  O14  1  0.03098000  0.08715000  0.43628000  1
  O  O15  1  0.06137000  0.17794000  0.38131000  1
  O  O16  1  0.15013000  0.23397000  0.47183000  1
  O  O17  1  0.87173000  0.99035000  0.38522000  1
  O  O18  1  0.97356000  0.03084000  0.56838000  1
  O  O19  1  0.88361000  0.05397000  0.46015000  1
  O  O20  1  0.00001000  0.00141000  0.48669000  1
  O  O21  1  0.06866000  0.99097000  0.80903000  1
  O  O22  1  0.07993000  0.90285000  0.88474000  1
  O  O23  1  0.00515000  0.00175000  0.87061000  1
  O  O24  1  0.12884000  0.99847000  0.96375000  1
  O  O25  1  0.94726000  0.82572000  0.97518000  1
  O  O26  1  0.84233000  0.78905000  0.89759000  1
  O  O27  1  0.81906000  0.91027000  0.91368000  1
  O  O28  1  0.90703000  0.95370000  0.99965000  1
  O  O29  1  0.96921000  0.91562000  0.91999000  1
  O  O30  1  0.04030000  0.95965000  0.07402000  1
  O  O31  1  0.04721000  0.97775000  0.30437000  1
  O  O32  1  0.04710000  0.88523000  0.37614000  1
  O  O33  1  0.96032000  0.97027000  0.34934000  1
  O  O34  1  0.08684000  0.98169000  0.45089000  1
  O  O35  1  0.91437000  0.79884000  0.45990000  1
  O  O36  1  0.80883000  0.74747000  0.37782000  1
  O  O37  1  0.76040000  0.85027000  0.37187000  1
  O  O38  1  0.84076000  0.90455000  0.46120000  1
  O  O39  1  0.92840000  0.88424000  0.40045000  1
  O  O40  1  0.99233000  0.93597000  0.55415000  1
