# generated using pymatgen
data_Zn7H82C124S6(O16F3)2
_symmetry_space_group_name_H-M   'P 1'
_cell_length_a   30.91130000
_cell_length_b   26.59649000
_cell_length_c   30.46348000
_cell_angle_alpha   103.72000000
_cell_angle_beta   115.78695000
_cell_angle_gamma   112.16294000
_symmetry_Int_Tables_number   1
_chemical_formula_structural   Zn7H82C124S6(O16F3)2
_chemical_formula_sum   'Zn14 H164 C248 S12 O64 F12'
_cell_volume   18307.56516812
_cell_formula_units_Z   2
loop_
 _symmetry_equiv_pos_site_id
 _symmetry_equiv_pos_as_xyz
  1  'x, y, z'
loop_
 _atom_site_type_symbol
 _atom_site_label
 _atom_site_symmetry_multiplicity
 _atom_site_fract_x
 _atom_site_fract_y
 _atom_site_fract_z
 _atom_site_occupancy
  Zn  Zn1  1  0.08560000  0.08563000  0.95546000  1
  Zn  Zn2  1  0.98297000  0.01926000  0.83639000  1
  Zn  Zn3  1  0.22153000  0.18203000  0.55545000  1
  Zn  Zn4  1  0.13152000  0.14555000  0.44002000  1
  Zn  Zn5  1  0.94926000  0.02551000  0.99745000  1
  Zn  Zn6  1  0.95970000  0.96492000  0.90465000  1
  Zn  Zn7  1  0.09098000  0.06210000  0.48335000  1
  Zn  Zn8  1  0.06574000  0.08724000  0.57344000  1
  Zn  Zn9  1  0.83927000  0.86293000  0.86681000  1
  Zn  Zn10  1  0.95105000  0.88109000  0.80760000  1
  Zn  Zn11  1  0.96183000  0.94918000  0.41996000  1
  Zn  Zn12  1  0.09387000  0.00752000  0.38489000  1
  Zn  Zn13  1  0.93998000  0.91078000  0.97533000  1
  Zn  Zn14  1  0.05931000  0.97401000  0.52500000  1
  H  H1  1  0.45654000  0.23631000  0.85529000  1
  H  H2  1  0.49848000  0.05144000  0.74395000  1
  H  H3  1  0.68286000  0.32614000  0.87864000  1
  H  H4  1  0.27990000  0.14680000  0.83513000  1
  H  H5  1  0.33584000  0.16514000  0.79626000  1
  H  H6  1  0.40636000  0.06744000  0.86334000  1
  H  H7  1  0.34773000  0.04616000  0.89968000  1
  H  H8  1  0.62731000  0.97279000  0.79947000  1
  H  H9  1  0.56574000  0.01372000  0.78551000  1
  H  H10  1  0.64819000  0.12521000  0.73006000  1
  H  H11  1  0.71323000  0.08856000  0.74888000  1
  H  H12  1  0.56611000  0.33172000  0.44233000  1
  H  H13  1  0.67508000  0.20095000  0.38366000  1
  H  H14  1  0.81109000  0.47787000  0.50908000  1
  H  H15  1  0.49724000  0.25480000  0.53393000  1
  H  H16  1  0.56692000  0.28899000  0.51111000  1
  H  H17  1  0.44530000  0.12624000  0.34975000  1
  H  H18  1  0.37715000  0.08998000  0.37429000  1
  H  H19  1  0.81092000  0.13901000  0.44285000  1
  H  H20  1  0.74949000  0.17886000  0.43646000  1
  H  H21  1  0.84630000  0.32124000  0.41173000  1
  H  H22  1  0.90904000  0.28247000  0.42030000  1
  H  H23  1  0.14425000  0.38261000  0.83660000  1
  H  H24  1  0.28561000  0.39160000  0.96679000  1
  H  H25  1  0.43253000  0.55872000  0.65216000  1
  H  H26  1  0.32751000  0.50535000  0.47847000  1
  H  H27  1  0.02611000  0.01155000  0.00811000  1
  H  H28  1  0.14616000  0.08250000  0.58172000  1
  H  H29  1  0.07774000  0.04645000  0.79170000  1
  H  H30  1  0.21160000  0.36487000  0.52786000  1
  H  H31  1  0.39644000  0.43449000  0.54934000  1
  H  H32  1  0.26145000  0.47633000  0.61299000  1
  H  H33  1  0.26902000  0.54265000  0.60418000  1
  H  H34  1  0.33067000  0.53793000  0.63383000  1
  H  H35  1  0.41977000  0.37437000  0.60576000  1
  H  H36  1  0.39115000  0.29324000  0.57339000  1
  H  H37  1  0.36032000  0.31939000  0.60365000  1
  H  H38  1  0.11939000  0.26974000  0.96443000  1
  H  H39  1  0.15155000  0.26438000  0.81759000  1
  H  H40  1  0.13395000  0.40536000  0.92878000  1
  H  H41  1  0.16552000  0.44419000  0.00153000  1
  H  H42  1  0.10477000  0.36569000  0.96014000  1
  H  H43  1  0.00055000  0.13571000  0.76618000  1
  H  H44  1  0.01116000  0.09431000  0.72039000  1
  H  H45  1  0.03877000  0.17441000  0.74033000  1
  H  H46  1  0.18999000  0.02593000  0.08124000  1
  H  H47  1  0.13265000  0.03737000  0.06623000  1
  H  H48  1  0.14696000  0.02307000  0.01541000  1
  H  H49  1  0.85260000  0.10813000  0.36841000  1
  H  H50  1  0.97928000  0.10568000  0.37471000  1
  H  H51  1  0.98849000  0.26416000  0.60043000  1
  H  H52  1  0.41258000  0.12090000  0.51689000  1
  H  H53  1  0.28436000  0.19279000  0.43890000  1
  H  H54  1  0.43182000  0.17027000  0.61539000  1
  H  H55  1  0.38350000  0.13745000  0.63289000  1
  H  H56  1  0.38576000  0.19767000  0.61543000  1
  H  H57  1  0.30545000  0.11565000  0.33837000  1
  H  H58  1  0.31224000  0.17808000  0.32317000  1
  H  H59  1  0.26422000  0.14880000  0.34185000  1
  H  H60  1  0.82142000  0.00014000  0.79629000  1
  H  H61  1  0.73877000  0.06617000  0.88793000  1
  H  H62  1  0.71282000  0.90302000  0.71249000  1
  H  H63  1  0.67096000  0.91008000  0.65457000  1
  H  H64  1  0.65297000  0.90973000  0.70316000  1
  H  H65  1  0.90018000  0.15667000  0.97870000  1
  H  H66  1  0.88906000  0.15109000  0.03079000  1
  H  H67  1  0.84027000  0.15744000  0.97627000  1
  H  H68  1  0.23236000  0.98267000  0.84892000  1
  H  H69  1  0.23512000  0.15660000  0.95859000  1
  H  H70  1  0.09157000  0.94178000  0.79336000  1
  H  H71  1  0.35582000  0.20976000  0.02924000  1
  H  H72  1  0.40077000  0.25959000  0.01592000  1
  H  H73  1  0.38558000  0.18274000  0.99595000  1
  H  H74  1  0.91595000  0.24416000  0.55172000  1
  H  H75  1  0.97369000  0.32317000  0.60113000  1
  H  H76  1  0.66498000  0.39139000  0.82118000  1
  H  H77  1  0.70389000  0.49735000  0.39586000  1
  H  H78  1  0.39130000  0.61098000  0.49859000  1
  H  H79  1  0.69701000  0.01219000  0.92935000  1
  H  H80  1  0.90747000  0.08673000  0.32479000  1
  H  H81  1  0.12700000  0.90255000  0.78561000  1
  H  H82  1  0.21028000  0.48917000  0.86034000  1
  H  H83  1  0.62218000  0.98344000  0.89411000  1
  H  H84  1  0.65879000  0.98382000  0.95886000  1
  H  H85  1  0.95727000  0.03726000  0.15168000  1
  H  H86  1  0.03934000  0.23821000  0.55522000  1
  H  H87  1  0.14581000  0.06720000  0.27227000  1
  H  H88  1  0.19005000  0.92703000  0.05891000  1
  H  H89  1  0.72682000  0.57766000  0.97788000  1
  H  H90  1  0.67352000  0.47403000  0.96718000  1
  H  H91  1  0.71777000  0.49506000  0.83162000  1
  H  H92  1  0.74957000  0.58617000  0.38336000  1
  H  H93  1  0.82909000  0.61017000  0.57347000  1
  H  H94  1  0.87485000  0.69877000  0.56093000  1
  H  H95  1  0.44734000  0.69198000  0.92434000  1
  H  H96  1  0.40084000  0.87030000  0.03495000  1
  H  H97  1  0.28993000  0.60180000  0.99357000  1
  H  H98  1  0.35160000  0.49814000  0.99055000  1
  H  H99  1  0.56734000  0.78880000  0.87308000  1
  H  H100  1  0.48707000  0.75033000  0.88202000  1
  H  H101  1  0.60136000  0.89087000  0.05443000  1
  H  H102  1  0.68085000  0.93078000  0.04460000  1
  H  H103  1  0.25021000  0.90278000  0.96200000  1
  H  H104  1  0.32030000  0.87320000  0.98503000  1
  H  H105  1  0.27216000  0.80182000  0.08094000  1
  H  H106  1  0.19781000  0.82583000  0.05286000  1
  H  H107  1  0.59878000  0.79453000  0.53607000  1
  H  H108  1  0.51386000  0.96095000  0.58085000  1
  H  H109  1  0.47440000  0.76381000  0.64850000  1
  H  H110  1  0.49587000  0.66454000  0.67246000  1
  H  H111  1  0.70040000  0.84245000  0.45447000  1
  H  H112  1  0.61851000  0.80959000  0.46127000  1
  H  H113  1  0.70726000  0.99368000  0.59360000  1
  H  H114  1  0.78767000  0.02698000  0.58458000  1
  H  H115  1  0.41846000  0.06020000  0.61293000  1
  H  H116  1  0.49670000  0.04192000  0.64587000  1
  H  H117  1  0.37250000  0.84819000  0.57650000  1
  H  H118  1  0.29458000  0.86656000  0.54321000  1
  H  H119  1  0.89282000  0.92317000  0.80342000  1
  H  H120  1  0.03515000  0.04640000  0.38844000  1
  H  H121  1  0.98972000  0.90788000  0.59497000  1
  H  H122  1  0.91159000  0.93974000  0.55064000  1
  H  H123  1  0.77106000  0.99434000  0.46186000  1
  H  H124  1  0.92050000  0.98723000  0.64694000  1
  H  H125  1  0.86873000  0.94595000  0.65824000  1
  H  H126  1  0.86453000  0.00190000  0.63687000  1
  H  H127  1  0.80405000  0.92866000  0.36906000  1
  H  H128  1  0.80515000  0.98880000  0.35187000  1
  H  H129  1  0.75729000  0.95478000  0.36930000  1
  H  H130  1  0.29208000  0.94593000  0.47156000  1
  H  H131  1  0.22610000  0.01960000  0.57981000  1
  H  H132  1  0.18823000  0.86552000  0.38111000  1
  H  H133  1  0.14254000  0.88193000  0.33465000  1
  H  H134  1  0.13245000  0.86953000  0.38564000  1
  H  H135  1  0.24162000  0.95101000  0.62958000  1
  H  H136  1  0.30995000  0.97700000  0.68911000  1
  H  H137  1  0.28414000  0.92111000  0.62285000  1
  H  H138  1  0.71794000  0.84989000  0.00969000  1
  H  H139  1  0.72808000  0.93833000  0.88552000  1
  H  H140  1  0.83018000  0.92203000  0.08718000  1
  H  H141  1  0.86884000  0.96891000  0.06586000  1
  H  H142  1  0.88388000  0.91481000  0.08320000  1
  H  H143  1  0.05097000  0.82248000  0.85352000  1
  H  H144  1  0.11830000  0.73538000  0.91534000  1
  H  H145  1  0.10688000  0.70987000  0.84914000  1
  H  H146  1  0.05454000  0.71955000  0.85395000  1
  H  H147  1  0.92160000  0.02718000  0.32288000  1
  H  H148  1  0.84491000  0.81083000  0.43019000  1
  H  H149  1  0.91649000  0.68214000  0.48598000  1
  H  H150  1  0.79744000  0.74527000  0.51471000  1
  H  H151  1  0.73783000  0.74698000  0.46884000  1
  H  H152  1  0.80870000  0.80723000  0.49594000  1
  H  H153  1  0.94764000  0.68359000  0.41280000  1
  H  H154  1  0.88754000  0.73677000  0.98135000  1
  H  H155  1  0.67523000  0.59115000  0.84942000  1
  H  H156  1  0.83401000  0.56380000  0.91490000  1
  H  H157  1  0.89428000  0.59141000  0.98307000  1
  H  H158  1  0.89900000  0.64123000  0.95244000  1
  H  H159  1  0.67301000  0.74351000  0.85946000  1
  H  H160  1  0.73022000  0.76029000  0.92465000  1
  H  H161  1  0.66189000  0.68520000  0.88084000  1
  H  H162  1  0.07321000  0.87164000  0.79754000  1
  H  H163  1  0.01740000  0.74409000  0.43732000  1
  H  H164  1  0.95673000  0.74702000  0.39616000  1
  C  C1  1  0.49850000  0.20540000  0.82307000  1
  C  C2  1  0.49210000  0.14880000  0.79765000  1
  C  C3  1  0.54028000  0.14720000  0.80727000  1
  C  C4  1  0.59414000  0.20328000  0.83857000  1
  C  C5  1  0.60025000  0.25992000  0.86150000  1
  C  C6  1  0.55342000  0.26013000  0.85741000  1
  C  C7  1  0.45404000  0.19797000  0.82940000  1
  C  C8  1  0.53647000  0.09813000  0.77105000  1
  C  C9  1  0.64549000  0.31851000  0.87784000  1
  C  C10  1  0.41374000  0.13603000  0.80975000  1
  C  C11  1  0.58651000  0.11701000  0.77271000  1
  C  C12  1  0.63331000  0.36405000  0.88706000  1
  C  C13  1  0.30911000  0.09433000  0.86931000  1
  C  C14  1  0.30620000  0.12797000  0.84011000  1
  C  C15  1  0.33828000  0.13876000  0.81842000  1
  C  C16  1  0.37470000  0.11725000  0.82665000  1
  C  C17  1  0.37766000  0.08339000  0.85577000  1
  C  C18  1  0.34481000  0.07180000  0.87685000  1
  C  C19  1  0.67711000  0.03101000  0.77877000  1
  C  C20  1  0.63175000  0.00578000  0.78395000  1
  C  C21  1  0.59661000  0.02881000  0.77579000  1
  C  C22  1  0.60528000  0.07546000  0.76022000  1
  C  C23  1  0.64317000  0.09157000  0.74482000  1
  C  C24  1  0.67971000  0.07027000  0.75494000  1
  C  C25  1  0.62787000  0.32181000  0.42964000  1
  C  C26  1  0.63751000  0.27456000  0.41569000  1
  C  C27  1  0.69361000  0.28866000  0.43868000  1
  C  C28  1  0.74024000  0.35082000  0.47353000  1
  C  C29  1  0.73084000  0.39844000  0.48501000  1
  C  C30  1  0.67505000  0.38331000  0.46592000  1
  C  C31  1  0.57598000  0.30049000  0.42538000  1
  C  C32  1  0.70633000  0.24976000  0.41336000  1
  C  C33  1  0.76881000  0.46042000  0.50025000  1
  C  C34  1  0.54625000  0.23740000  0.41002000  1
  C  C35  1  0.76208000  0.28213000  0.42710000  1
  C  C36  1  0.74215000  0.49315000  0.49288000  1
  C  C37  1  0.43159000  0.17138000  0.45475000  1
  C  C38  1  0.48619000  0.22611000  0.49411000  1
  C  C39  1  0.52527000  0.24591000  0.48083000  1
  C  C40  1  0.50958000  0.21156000  0.42766000  1
  C  C41  1  0.45705000  0.15402000  0.39023000  1
  C  C42  1  0.41837000  0.13364000  0.40401000  1
  C  C43  1  0.86467000  0.20869000  0.43292000  1
  C  C44  1  0.81823000  0.17829000  0.43535000  1
  C  C45  1  0.78333000  0.20083000  0.43158000  1
  C  C46  1  0.79399000  0.25342000  0.42428000  1
  C  C47  1  0.83831000  0.28137000  0.41837000  1
  C  C48  1  0.87362000  0.25920000  0.42286000  1
  C  C49  1  0.21025000  0.38038000  0.90083000  1
  C  C50  1  0.18964000  0.40726000  0.86952000  1
  C  C51  1  0.26922000  0.41239000  0.94289000  1
  C  C52  1  0.37578000  0.52482000  0.56393000  1
  C  C53  1  0.42327000  0.57007000  0.61863000  1
  C  C54  1  0.36418000  0.54000000  0.52081000  1
  C  C55  1  0.14191000  0.04506000  0.91706000  1
  C  C56  1  0.07753000  0.15407000  0.89222000  1
  C  C57  1  0.87906000  0.02792000  0.90447000  1
  C  C58  1  0.26573000  0.14412000  0.50127000  1
  C  C59  1  0.23568000  0.27712000  0.51960000  1
  C  C60  1  0.01642000  0.12569000  0.49981000  1
  C  C61  1  0.05872000  0.01631000  0.74881000  1
  C  C62  1  0.08682000  0.03438000  0.72422000  1
  C  C63  1  0.14605000  0.09356000  0.75894000  1
  C  C64  1  0.08033000  0.04179000  0.18888000  1
  C  C65  1  0.33922000  0.46104000  0.55165000  1
  C  C66  1  0.28709000  0.44144000  0.54612000  1
  C  C67  1  0.25251000  0.38041000  0.53377000  1
  C  C68  1  0.27100000  0.33990000  0.52985000  1
  C  C69  1  0.32373000  0.35989000  0.53659000  1
  C  C70  1  0.35686000  0.41989000  0.54606000  1
  C  C71  1  0.28323000  0.51011000  0.60230000  1
  C  C72  1  0.37939000  0.32747000  0.58034000  1
  C  C73  1  0.16955000  0.32240000  0.89424000  1
  C  C74  1  0.15793000  0.32378000  0.93420000  1
  C  C75  1  0.12534000  0.26826000  0.93172000  1
  C  C76  1  0.10196000  0.21110000  0.88822000  1
  C  C77  1  0.10796000  0.20989000  0.84462000  1
  C  C78  1  0.14363000  0.26556000  0.84904000  1
  C  C79  1  0.14466000  0.39876000  0.96604000  1
  C  C80  1  0.03140000  0.13984000  0.75537000  1
  C  C81  1  0.14608000  0.01085000  0.04765000  1
  C  C82  1  0.98291000  0.15214000  0.47825000  1
  C  C83  1  0.93180000  0.11753000  0.42377000  1
  C  C84  1  0.89345000  0.13667000  0.40907000  1
  C  C85  1  0.90729000  0.19186000  0.44696000  1
  C  C86  1  0.96030000  0.22875000  0.49981000  1
  C  C87  1  0.99854000  0.20960000  0.51450000  1
  C  C88  1  0.31018000  0.15348000  0.49197000  1
  C  C89  1  0.34765000  0.13477000  0.51536000  1
  C  C90  1  0.38433000  0.13618000  0.49956000  1
  C  C91  1  0.38592000  0.15923000  0.46299000  1
  C  C92  1  0.34851000  0.17810000  0.43986000  1
  C  C93  1  0.31200000  0.17666000  0.45564000  1
  C  C94  1  0.38856000  0.15641000  0.60547000  1
  C  C95  1  0.30629000  0.15912000  0.35029000  1
  C  C96  1  0.72829000  0.02902000  0.81033000  1
  C  C97  1  0.75162000  0.00977000  0.78443000  1
  C  C98  1  0.80317000  0.01383000  0.81637000  1
  C  C99  1  0.83008000  0.03355000  0.87349000  1
  C  C100  1  0.80722000  0.05411000  0.89958000  1
  C  C101  1  0.75616000  0.05070000  0.86768000  1
  C  C102  1  0.68924000  0.92551000  0.69912000  1
  C  C103  1  0.18988000  0.05706000  0.91201000  1
  C  C104  1  0.18995000  0.00773000  0.88187000  1
  C  C105  1  0.23270000  0.02054000  0.87253000  1
  C  C106  1  0.27375000  0.08180000  0.89096000  1
  C  C107  1  0.27708000  0.13091000  0.92574000  1
  C  C108  1  0.23442000  0.11840000  0.93493000  1
  C  C109  1  0.36696000  0.21090000  0.99913000  1
  C  C110  1  0.96269000  0.27800000  0.57351000  1
  C  C111  1  0.86656000  0.13708000  0.98586000  1
  C  C112  1  0.67873000  0.43194000  0.85562000  1
  C  C113  1  0.40037000  0.59980000  0.53221000  1
  C  C114  1  0.99733000  0.00919000  0.09435000  1
  C  C115  1  0.02482000  0.02943000  0.15407000  1
  C  C116  1  0.07308000  0.06407000  0.26709000  1
  C  C117  1  0.10946000  0.91525000  0.80823000  1
  C  C118  1  0.74046000  0.54158000  0.43201000  1
  C  C119  1  0.76351000  0.54773000  0.48557000  1
  C  C120  1  0.22701000  0.46759000  0.88298000  1
  C  C121  1  0.07796000  0.02072000  0.63568000  1
  C  C122  1  0.09731000  0.07743000  0.32520000  1
  C  C123  1  0.98120000  0.05241000  0.25297000  1
  C  C124  1  0.97740000  0.94305000  0.74521000  1
  C  C125  1  0.65584000  0.97663000  0.91988000  1
  C  C126  1  0.66573000  0.42564000  0.89356000  1
  C  C127  1  0.00647000  0.95894000  0.71865000  1
  C  C128  1  0.05911000  0.99675000  0.66709000  1
  C  C129  1  0.99636000  0.03960000  0.17698000  1
  C  C130  1  0.10376000  0.05857000  0.24524000  1
  C  C131  1  0.30660000  0.47266000  0.95628000  1
  C  C132  1  0.93220000  0.07168000  0.35118000  1
  C  C133  1  0.01779000  0.05231000  0.23210000  1
  C  C134  1  0.11552000  0.04000000  0.16672000  1
  C  C135  1  0.72626000  0.54341000  0.90572000  1
  C  C136  1  0.71367000  0.53714000  0.94386000  1
  C  C137  1  0.68331000  0.47846000  0.93766000  1
  C  C138  1  0.70861000  0.49062000  0.86151000  1
  C  C139  1  0.81552000  0.64838000  0.47129000  1
  C  C140  1  0.76639000  0.59182000  0.42492000  1
  C  C141  1  0.81111000  0.60504000  0.53200000  1
  C  C142  1  0.83698000  0.65521000  0.52490000  1
  C  C143  1  0.40194000  0.72162000  0.95270000  1
  C  C144  1  0.41191000  0.77757000  0.98531000  1
  C  C145  1  0.38808000  0.77845000  0.01532000  1
  C  C146  1  0.35037000  0.72219000  0.00887000  1
  C  C147  1  0.33429000  0.66562000  0.97076000  1
  C  C148  1  0.36028000  0.66554000  0.94274000  1
  C  C149  1  0.44683000  0.72976000  0.94677000  1
  C  C150  1  0.38008000  0.82633000  0.03371000  1
  C  C151  1  0.31155000  0.61020000  0.97358000  1
  C  C152  1  0.49208000  0.79204000  0.97603000  1
  C  C153  1  0.33529000  0.80693000  0.04036000  1
  C  C154  1  0.32160000  0.56810000  0.94949000  1
  C  C155  1  0.28527000  0.50121000  0.92766000  1
  C  C156  1  0.62957000  0.86233000  0.95827000  1
  C  C157  1  0.57465000  0.81160000  0.91247000  1
  C  C158  1  0.52936000  0.78930000  0.91778000  1
  C  C159  1  0.53883000  0.81716000  0.96921000  1
  C  C160  1  0.59349000  0.86891000  0.01458000  1
  C  C161  1  0.63858000  0.89146000  0.00907000  1
  C  C162  1  0.21781000  0.86427000  0.00415000  1
  C  C163  1  0.25490000  0.88069000  0.98793000  1
  C  C164  1  0.29534000  0.86471000  0.00174000  1
  C  C165  1  0.30079000  0.83446000  0.03410000  1
  C  C166  1  0.26746000  0.82371000  0.05487000  1
  C  C167  1  0.22564000  0.83779000  0.03936000  1
  C  C168  1  0.55190000  0.82693000  0.55896000  1
  C  C169  1  0.54937000  0.87990000  0.56908000  1
  C  C170  1  0.53976000  0.90149000  0.60857000  1
  C  C171  1  0.52775000  0.86643000  0.63465000  1
  C  C172  1  0.52637000  0.81120000  0.62194000  1
  C  C173  1  0.54291000  0.79453000  0.58753000  1
  C  C174  1  0.58474000  0.82617000  0.53790000  1
  C  C175  1  0.51703000  0.93911000  0.60695000  1
  C  C176  1  0.49549000  0.76150000  0.62823000  1
  C  C177  1  0.60785000  0.87867000  0.53206000  1
  C  C178  1  0.48673000  0.93257000  0.63088000  1
  C  C179  1  0.48869000  0.70668000  0.59872000  1
  C  C180  1  0.45907000  0.63002000  0.63013000  1
  C  C181  1  0.44829000  0.64489000  0.58689000  1
  C  C182  1  0.74948000  0.93697000  0.51893000  1
  C  C183  1  0.70166000  0.87566000  0.48441000  1
  C  C184  1  0.65542000  0.85697000  0.48851000  1
  C  C185  1  0.65674000  0.89930000  0.52759000  1
  C  C186  1  0.70491000  0.96075000  0.56241000  1
  C  C187  1  0.75080000  0.97956000  0.55767000  1
  C  C188  1  0.35122000  0.96467000  0.57611000  1
  C  C189  1  0.40846000  0.01412000  0.60566000  1
  C  C190  1  0.45279000  0.00374000  0.62433000  1
  C  C191  1  0.44030000  0.94402000  0.61439000  1
  C  C192  1  0.38299000  0.89477000  0.58560000  1
  C  C193  1  0.33874000  0.90510000  0.56651000  1
  C  C194  1  0.83684000  0.78251000  0.92033000  1
  C  C195  1  0.81334000  0.92010000  0.93293000  1
  C  C196  1  0.02721000  0.89241000  0.90691000  1
  C  C197  1  0.95108000  0.85172000  0.45522000  1
  C  C198  1  0.92809000  0.98694000  0.48569000  1
  C  C199  1  0.16460000  0.99829000  0.47402000  1
  C  C200  1  0.93212000  0.85133000  0.63396000  1
  C  C201  1  0.79871000  0.95602000  0.51524000  1
  C  C202  1  0.84021000  0.94334000  0.54234000  1
  C  C203  1  0.88141000  0.95224000  0.53145000  1
  C  C204  1  0.88330000  0.97651000  0.49556000  1
  C  C205  1  0.84227000  0.99043000  0.46929000  1
  C  C206  1  0.80169000  0.98236000  0.48110000  1
  C  C207  1  0.87472000  0.96588000  0.63170000  1
  C  C208  1  0.80069000  0.96950000  0.37926000  1
  C  C209  1  0.21066000  0.98670000  0.49912000  1
  C  C210  1  0.22916000  0.96489000  0.46833000  1
  C  C211  1  0.27661000  0.96031000  0.49470000  1
  C  C212  1  0.30391000  0.97387000  0.55046000  1
  C  C213  1  0.28484000  0.99420000  0.58094000  1
  C  C214  1  0.23923000  0.00187000  0.55553000  1
  C  C215  1  0.16553000  0.88994000  0.37801000  1
  C  C216  1  0.28572000  0.96273000  0.64411000  1
  C  C217  1  0.77058000  0.91256000  0.94485000  1
  C  C218  1  0.76810000  0.88856000  0.98095000  1
  C  C219  1  0.72135000  0.87151000  0.98433000  1
  C  C220  1  0.67873000  0.88139000  0.95458000  1
  C  C221  1  0.68268000  0.90832000  0.92076000  1
  C  C222  1  0.72753000  0.92186000  0.91467000  1
  C  C223  1  0.84904000  0.92261000  0.06328000  1
  C  C224  1  0.16728000  0.86877000  0.97960000  1
  C  C225  1  0.12610000  0.83674000  0.92151000  1
  C  C226  1  0.08105000  0.84539000  0.89835000  1
  C  C227  1  0.07482000  0.88345000  0.93261000  1
  C  C228  1  0.11471000  0.91344000  0.99100000  1
  C  C229  1  0.15995000  0.90469000  0.01411000  1
  C  C230  1  0.10142000  0.73892000  0.87638000  1
  C  C231  1  0.84817000  0.69802000  0.46356000  1
  C  C232  1  0.82787000  0.73445000  0.44767000  1
  C  C233  1  0.86042000  0.78254000  0.44196000  1
  C  C234  1  0.91394000  0.79585000  0.45379000  1
  C  C235  1  0.93300000  0.75769000  0.46746000  1
  C  C236  1  0.90073000  0.71004000  0.47361000  1
  C  C237  1  0.78071000  0.75687000  0.48077000  1
  C  C238  1  0.97546000  0.73417000  0.42862000  1
  C  C239  1  0.75479000  0.60484000  0.91013000  1
  C  C240  1  0.81496000  0.64602000  0.94726000  1
  C  C241  1  0.84122000  0.70534000  0.95264000  1
  C  C242  1  0.80808000  0.72313000  0.91975000  1
  C  C243  1  0.74750000  0.68240000  0.88407000  1
  C  C244  1  0.72154000  0.62287000  0.87813000  1
  C  C245  1  0.86926000  0.60571000  0.95624000  1
  C  C246  1  0.69426000  0.72298000  0.88119000  1
  C  C247  1  0.98314000  0.91740000  0.66394000  1
  C  C248  1  0.00922000  0.93743000  0.63817000  1
  S  S1  1  0.43450000  0.09238000  0.78699000  1
  S  S2  1  0.63373000  0.19241000  0.81903000  1
  S  S3  1  0.56709000  0.33107000  0.87181000  1
  S  S4  1  0.58443000  0.21006000  0.40228000  1
  S  S5  1  0.79440000  0.35669000  0.47067000  1
  S  S6  1  0.67284000  0.44473000  0.46551000  1
  S  S7  1  0.47577000  0.83498000  0.00714000  1
  S  S8  1  0.30718000  0.73206000  0.02308000  1
  S  S9  1  0.35645000  0.59894000  0.92400000  1
  S  S10  1  0.58920000  0.92515000  0.55452000  1
  S  S11  1  0.48768000  0.88013000  0.65206000  1
  S  S12  1  0.51743000  0.71932000  0.56383000  1
  O  O1  1  0.95737000  0.97551000  0.75763000  1
  O  O2  1  0.15089000  0.08478000  0.96027000  1
  O  O3  1  0.08899000  0.00062000  0.87465000  1
  O  O4  1  0.00755000  0.04489000  0.91610000  1
  O  O5  1  0.03667000  0.10011000  0.84627000  1
  O  O6  1  0.09933000  0.15783000  0.94183000  1
  O  O7  1  0.88343000  0.98527000  0.87758000  1
  O  O8  1  0.98413000  0.98905000  0.97989000  1
  O  O9  1  0.10378000  0.12487000  0.35987000  1
  O  O10  1  0.28030000  0.17475000  0.55119000  1
  O  O11  1  0.21226000  0.11547000  0.45831000  1
  O  O12  1  0.14466000  0.14879000  0.51328000  1
  O  O13  1  0.19326000  0.23253000  0.46784000  1
  O  O14  1  0.24836000  0.26620000  0.56208000  1
  O  O15  1  0.01901000  0.08730000  0.46601000  1
  O  O16  1  0.03674000  0.13397000  0.55054000  1
  O  O17  1  0.10518000  0.06241000  0.55139000  1
  O  O18  1  0.26751000  0.48027000  0.54800000  1
  O  O19  1  0.34001000  0.31874000  0.52818000  1
  O  O20  1  0.18334000  0.37962000  0.97897000  1
  O  O21  1  0.08363000  0.15424000  0.80035000  1
  O  O22  1  0.91635000  0.06165000  0.38679000  1
  O  O23  1  0.97627000  0.28553000  0.53592000  1
  O  O24  1  0.34474000  0.10981000  0.54970000  1
  O  O25  1  0.35195000  0.20403000  0.40621000  1
  O  O26  1  0.72605000  0.99059000  0.72842000  1
  O  O27  1  0.83156000  0.07181000  0.95529000  1
  O  O28  1  0.15169000  0.94744000  0.86627000  1
  O  O29  1  0.31912000  0.19159000  0.94664000  1
  O  O30  1  0.98654000  0.04572000  0.07526000  1
  O  O31  1  0.08389000  0.07316000  0.63769000  1
  O  O32  1  0.91232000  0.05828000  0.95885000  1
  O  O33  1  0.10678000  0.94716000  0.02550000  1
  O  O34  1  0.98211000  0.90566000  0.76593000  1
  O  O35  1  0.98188000  0.85126000  0.85585000  1
  O  O36  1  0.03512000  0.94651000  0.93028000  1
  O  O37  1  0.88911000  0.82847000  0.96485000  1
  O  O38  1  0.81100000  0.78722000  0.87524000  1
  O  O39  1  0.79505000  0.89126000  0.88113000  1
  O  O40  1  0.86627000  0.94111000  0.97350000  1
  O  O41  1  0.91209000  0.88556000  0.89410000  1
  O  O42  1  0.97824000  0.95226000  0.06032000  1
  O  O43  1  0.11506000  0.04368000  0.34257000  1
  O  O44  1  0.12587000  0.96801000  0.42001000  1
  O  O45  1  0.16643000  0.04380000  0.50544000  1
  O  O46  1  0.00715000  0.88448000  0.49348000  1
  O  O47  1  0.92815000  0.86507000  0.41542000  1
  O  O48  1  0.91370000  0.96969000  0.43484000  1
  O  O49  1  0.97662000  0.99605000  0.52376000  1
  O  O50  1  0.03703000  0.97551000  0.45192000  1
  O  O51  1  0.08522000  0.98741000  0.60321000  1
  O  O52  1  0.83777000  0.91766000  0.57631000  1
  O  O53  1  0.84435000  0.01607000  0.43517000  1
  O  O54  1  0.20485000  0.95432000  0.41413000  1
  O  O55  1  0.31435000  0.01240000  0.63712000  1
  O  O56  1  0.80765000  0.87474000  0.00777000  1
  O  O57  1  0.63974000  0.91604000  0.88948000  1
  O  O58  1  0.13226000  0.80034000  0.88698000  1
  O  O59  1  0.77418000  0.72015000  0.43365000  1
  O  O60  1  0.98517000  0.76950000  0.47842000  1
  O  O61  1  0.84776000  0.63009000  0.98153000  1
  O  O62  1  0.71375000  0.69957000  0.85264000  1
  O  O63  1  0.07534000  0.05958000  0.41465000  1
  O  O64  1  0.93423000  0.93985000  0.82867000  1
  F  F1  1  0.17319000  0.11118000  0.81497000  1
  F  F2  1  0.14138000  0.14077000  0.75087000  1
  F  F3  1  0.18007000  0.08506000  0.74395000  1
  F  F4  1  0.00381000  0.11246000  0.28933000  1
  F  F5  1  0.11918000  0.07775000  0.14234000  1
  F  F6  1  0.92505000  0.02756000  0.20968000  1
  F  F7  1  0.17091000  0.06058000  0.20850000  1
  F  F8  1  0.88607000  0.85104000  0.63089000  1
  F  F9  1  0.94701000  0.82055000  0.66251000  1
  F  F10  1  0.91483000  0.81921000  0.58040000  1
  F  F11  1  0.97967000  0.01714000  0.27978000  1
  F  F12  1  0.08961000  0.98000000  0.12758000  1
