# generated using pymatgen
data_Zn7H30C74(N5O2)10
_symmetry_space_group_name_H-M   'P 1'
_cell_length_a   32.29852000
_cell_length_b   27.80255000
_cell_length_c   31.96876000
_cell_angle_alpha   103.66810000
_cell_angle_beta   115.76897000
_cell_angle_gamma   112.33897000
_symmetry_Int_Tables_number   1
_chemical_formula_structural   Zn7H30C74(N5O2)10
_chemical_formula_sum   'Zn14 H60 C148 N100 O40'
_cell_volume   20950.57277523
_cell_formula_units_Z   2
loop_
 _symmetry_equiv_pos_site_id
 _symmetry_equiv_pos_as_xyz
  1  'x, y, z'
loop_
 _atom_site_type_symbol
 _atom_site_label
 _atom_site_symmetry_multiplicity
 _atom_site_fract_x
 _atom_site_fract_y
 _atom_site_fract_z
 _atom_site_occupancy
  Zn  Zn1  1  0.12953000  0.12225000  0.98614000  1
  Zn  Zn2  1  0.04319000  0.07484000  0.86880000  1
  Zn  Zn3  1  0.88869000  0.89267000  0.87080000  1
  Zn  Zn4  1  0.98709000  0.93225000  0.97132000  1
  Zn  Zn5  1  0.00805000  0.00233000  0.91704000  1
  Zn  Zn6  1  0.99120000  0.04199000  0.00513000  1
  Zn  Zn7  1  0.00867000  0.94305000  0.82251000  1
  Zn  Zn8  1  0.12874000  0.12018000  0.48373000  1
  Zn  Zn9  1  0.04298000  0.07182000  0.36639000  1
  Zn  Zn10  1  0.88663000  0.89318000  0.36959000  1
  Zn  Zn11  1  0.98410000  0.93349000  0.47099000  1
  Zn  Zn12  1  0.00664000  0.00149000  0.41561000  1
  Zn  Zn13  1  0.98894000  0.04418000  0.50228000  1
  Zn  Zn14  1  0.00765000  0.93911000  0.32250000  1
  H  H1  1  0.80972000  0.49546000  0.03040000  1
  H  H2  1  0.77329000  0.40654000  0.04021000  1
  H  H3  1  0.61060000  0.33539000  0.90456000  1
  H  H4  1  0.64702000  0.42319000  0.89355000  1
  H  H5  1  0.48312000  0.18711000  0.89008000  1
  H  H6  1  0.56485000  0.22955000  0.88944000  1
  H  H7  1  0.66771000  0.33996000  0.05895000  1
  H  H8  1  0.58633000  0.29663000  0.06014000  1
  H  H9  1  0.72107000  0.17569000  0.96453000  1
  H  H10  1  0.70148000  0.24142000  0.00758000  1
  H  H11  1  0.64583000  0.27572000  0.87547000  1
  H  H12  1  0.66847000  0.21295000  0.83410000  1
  H  H13  1  0.80492000  0.49033000  0.52289000  1
  H  H14  1  0.76824000  0.40065000  0.53163000  1
  H  H15  1  0.60572000  0.33063000  0.39635000  1
  H  H16  1  0.64240000  0.41922000  0.38638000  1
  H  H17  1  0.47805000  0.18261000  0.38259000  1
  H  H18  1  0.55930000  0.22447000  0.38112000  1
  H  H19  1  0.66351000  0.33464000  0.55073000  1
  H  H20  1  0.58263000  0.29194000  0.55274000  1
  H  H21  1  0.71521000  0.16969000  0.45441000  1
  H  H22  1  0.69539000  0.23488000  0.49773000  1
  H  H23  1  0.64049000  0.27083000  0.36660000  1
  H  H24  1  0.66343000  0.20864000  0.32499000  1
  H  H25  1  0.39570000  0.63703000  0.07730000  1
  H  H26  1  0.44641000  0.74036000  0.09564000  1
  H  H27  1  0.40794000  0.67791000  0.93865000  1
  H  H28  1  0.35749000  0.57442000  0.92024000  1
  H  H29  1  0.51244000  0.82219000  0.92442000  1
  H  H30  1  0.44147000  0.78434000  0.94025000  1
  H  H31  1  0.56095000  0.80995000  0.09010000  1
  H  H32  1  0.63159000  0.84525000  0.07328000  1
  H  H33  1  0.41316000  0.91002000  0.07759000  1
  H  H34  1  0.47770000  0.87823000  0.09248000  1
  H  H35  1  0.35635000  0.72614000  0.93637000  1
  H  H36  1  0.29191000  0.75756000  0.92146000  1
  H  H37  1  0.39407000  0.63286000  0.57257000  1
  H  H38  1  0.44416000  0.73647000  0.59130000  1
  H  H39  1  0.40392000  0.67540000  0.43361000  1
  H  H40  1  0.35401000  0.57163000  0.41478000  1
  H  H41  1  0.50851000  0.82091000  0.42021000  1
  H  H42  1  0.43771000  0.78200000  0.43614000  1
  H  H43  1  0.55789000  0.80727000  0.58543000  1
  H  H44  1  0.62837000  0.84376000  0.56856000  1
  H  H45  1  0.41116000  0.90729000  0.57584000  1
  H  H46  1  0.47531000  0.87516000  0.58928000  1
  H  H47  1  0.35267000  0.72371000  0.43290000  1
  H  H48  1  0.28855000  0.75538000  0.41949000  1
  H  H49  1  0.06691000  0.03514000  0.01349000  1
  H  H50  1  0.95114000  0.97953000  0.82305000  1
  H  H51  1  0.06452000  0.03584000  0.51250000  1
  H  H52  1  0.95070000  0.97708000  0.32104000  1
  H  H53  1  0.97655000  0.05176000  0.70422000  1
  H  H54  1  0.06576000  0.96652000  0.72274000  1
  H  H55  1  0.06068000  0.96344000  0.64288000  1
  H  H56  1  0.97191000  0.04894000  0.62479000  1
  H  H57  1  0.06993000  0.09961000  0.17580000  1
  H  H58  1  0.98774000  0.90910000  0.10245000  1
  H  H59  1  0.99016000  0.91104000  0.18097000  1
  H  H60  1  0.07122000  0.10119000  0.25367000  1
  C  C1  1  0.73124000  0.46498000  0.96046000  1
  C  C2  1  0.76627000  0.46054000  0.00268000  1
  C  C3  1  0.74561000  0.41043000  0.00857000  1
  C  C4  1  0.68983000  0.36429000  0.97263000  1
  C  C5  1  0.65392000  0.37036000  0.93235000  1
  C  C6  1  0.67464000  0.42027000  0.92611000  1
  C  C7  1  0.52886000  0.23833000  0.97525000  1
  C  C8  1  0.52331000  0.21999000  0.92714000  1
  C  C9  1  0.56968000  0.24422000  0.92671000  1
  C  C10  1  0.62214000  0.28753000  0.97440000  1
  C  C11  1  0.62744000  0.30677000  0.02210000  1
  C  C12  1  0.58124000  0.28218000  0.02269000  1
  C  C13  1  0.69717000  0.19081000  0.89689000  1
  C  C14  1  0.70448000  0.19736000  0.94494000  1
  C  C15  1  0.69356000  0.23471000  0.96943000  1
  C  C16  1  0.67491000  0.26557000  0.94606000  1
  C  C17  1  0.66347000  0.25531000  0.89576000  1
  C  C18  1  0.67531000  0.21872000  0.87175000  1
  C  C19  1  0.72654000  0.46054000  0.45322000  1
  C  C20  1  0.76146000  0.45550000  0.49500000  1
  C  C21  1  0.74067000  0.40494000  0.50028000  1
  C  C22  1  0.68484000  0.35896000  0.46418000  1
  C  C23  1  0.64906000  0.36551000  0.42427000  1
  C  C24  1  0.66993000  0.41587000  0.41862000  1
  C  C25  1  0.52451000  0.23379000  0.46786000  1
  C  C26  1  0.51843000  0.21532000  0.41949000  1
  C  C27  1  0.56452000  0.23922000  0.41859000  1
  C  C28  1  0.61722000  0.28227000  0.46607000  1
  C  C29  1  0.62305000  0.30163000  0.51404000  1
  C  C30  1  0.57713000  0.27740000  0.51509000  1
  C  C31  1  0.69181000  0.18575000  0.38730000  1
  C  C32  1  0.69873000  0.19158000  0.43507000  1
  C  C33  1  0.68765000  0.22862000  0.45971000  1
  C  C34  1  0.66926000  0.25988000  0.43677000  1
  C  C35  1  0.65800000  0.25015000  0.38662000  1
  C  C36  1  0.67001000  0.21390000  0.36246000  1
  C  C37  1  0.37268000  0.59837000  0.99734000  1
  C  C38  1  0.39863000  0.64566000  0.04705000  1
  C  C39  1  0.42736000  0.70426000  0.05750000  1
  C  C40  1  0.43044000  0.71647000  0.01852000  1
  C  C41  1  0.40564000  0.66919000  0.96908000  1
  C  C42  1  0.37669000  0.61044000  0.95851000  1
  C  C43  1  0.57732000  0.83698000  0.99793000  1
  C  C44  1  0.52325000  0.81935000  0.96051000  1
  C  C45  1  0.48301000  0.79853000  0.96981000  1
  C  C46  1  0.49657000  0.79566000  0.01702000  1
  C  C47  1  0.55027000  0.81240000  0.05387000  1
  C  C48  1  0.59040000  0.83285000  0.04446000  1
  C  C49  1  0.34752000  0.83533000  0.99891000  1
  C  C50  1  0.40073000  0.87010000  0.04652000  1
  C  C51  1  0.43736000  0.85213000  0.05500000  1
  C  C52  1  0.42121000  0.79922000  0.01626000  1
  C  C53  1  0.36879000  0.76587000  0.96752000  1
  C  C54  1  0.33227000  0.78389000  0.95898000  1
  C  C55  1  0.37022000  0.59489000  0.49224000  1
  C  C56  1  0.39646000  0.64186000  0.54224000  1
  C  C57  1  0.42483000  0.70061000  0.55291000  1
  C  C58  1  0.42728000  0.71328000  0.51387000  1
  C  C59  1  0.40211000  0.66633000  0.46409000  1
  C  C60  1  0.37349000  0.60742000  0.45329000  1
  C  C61  1  0.57373000  0.83571000  0.49349000  1
  C  C62  1  0.51950000  0.81777000  0.45619000  1
  C  C63  1  0.47937000  0.79632000  0.46554000  1
  C  C64  1  0.49319000  0.79307000  0.51264000  1
  C  C65  1  0.54701000  0.81002000  0.54930000  1
  C  C66  1  0.58705000  0.83114000  0.53986000  1
  C  C67  1  0.34489000  0.83289000  0.49716000  1
  C  C68  1  0.39836000  0.86742000  0.54441000  1
  C  C69  1  0.43476000  0.84926000  0.55207000  1
  C  C70  1  0.41815000  0.79641000  0.51283000  1
  C  C71  1  0.36547000  0.76335000  0.46443000  1
  C  C72  1  0.32914000  0.78152000  0.45673000  1
  C  C73  1  0.19375000  0.09572000  0.95899000  1
  C  C74  1  0.14144000  0.20331000  0.94072000  1
  C  C75  1  0.89330000  0.80903000  0.91567000  1
  C  C76  1  0.86020000  0.94122000  0.93276000  1
  C  C77  1  0.01975000  0.00230000  0.08344000  1
  C  C78  1  0.93291000  0.06078000  0.92444000  1
  C  C79  1  0.02457000  0.01163000  0.76728000  1
  C  C80  1  0.07386000  0.93636000  0.90988000  1
  C  C81  1  0.19191000  0.09145000  0.45633000  1
  C  C82  1  0.14144000  0.20019000  0.43738000  1
  C  C83  1  0.89011000  0.81016000  0.41541000  1
  C  C84  1  0.85772000  0.94361000  0.43008000  1
  C  C85  1  0.01336000  0.00517000  0.58094000  1
  C  C86  1  0.93131000  0.06110000  0.41974000  1
  C  C87  1  0.02785000  0.00677000  0.26753000  1
  C  C88  1  0.07174000  0.93388000  0.41131000  1
  C  C89  1  0.99541000  0.03289000  0.69138000  1
  C  C90  1  0.02172000  0.00964000  0.71942000  1
  C  C91  1  0.04506000  0.98437000  0.70144000  1
  C  C92  1  0.04222000  0.98263000  0.65611000  1
  C  C93  1  0.01634000  0.00642000  0.62852000  1
  C  C94  1  0.99281000  0.03134000  0.64629000  1
  C  C95  1  0.05230000  0.05829000  0.17658000  1
  C  C96  1  0.02793000  0.00412000  0.13312000  1
  C  C97  1  0.00669000  0.95122000  0.13559000  1
  C  C98  1  0.00780000  0.95227000  0.18004000  1
  C  C99  1  0.02983000  0.00611000  0.22228000  1
  C  C100  1  0.05294000  0.05921000  0.22074000  1
  C  C101  1  0.24217000  0.36393000  0.45619000  1
  C  C102  1  0.17651000  0.25778000  0.44368000  1
  C  C103  1  0.33922000  0.53286000  0.48083000  1
  C  C104  1  0.27752000  0.42227000  0.46364000  1
  C  C105  1  0.69517000  0.89870000  0.46705000  1
  C  C106  1  0.61648000  0.85919000  0.48406000  1
  C  C107  1  0.81659000  0.93941000  0.44023000  1
  C  C108  1  0.73825000  0.91663000  0.45790000  1
  C  C109  1  0.18859000  0.89199000  0.46609000  1
  C  C110  1  0.11207000  0.91926000  0.43589000  1
  C  C111  1  0.30456000  0.84869000  0.49095000  1
  C  C112  1  0.23000000  0.87709000  0.47757000  1
  C  C113  1  0.24255000  0.36779000  0.96089000  1
  C  C114  1  0.17639000  0.26132000  0.94755000  1
  C  C115  1  0.34110000  0.53650000  0.98606000  1
  C  C116  1  0.27838000  0.42614000  0.96869000  1
  C  C117  1  0.74167000  0.91514000  0.96182000  1
  C  C118  1  0.81948000  0.93712000  0.94349000  1
  C  C119  1  0.62013000  0.85958000  0.98843000  1
  C  C120  1  0.69874000  0.89777000  0.97118000  1
  C  C121  1  0.23190000  0.87907000  0.97665000  1
  C  C122  1  0.30692000  0.85097000  0.99178000  1
  C  C123  1  0.11397000  0.92125000  0.93378000  1
  C  C124  1  0.19036000  0.89385000  0.96438000  1
  C  C125  1  0.77258000  0.11473000  0.35393000  1
  C  C126  1  0.71381000  0.15677000  0.36719000  1
  C  C127  1  0.89012000  0.07335000  0.39235000  1
  C  C128  1  0.81281000  0.09930000  0.36055000  1
  C  C129  1  0.79286000  0.60262000  0.42764000  1
  C  C130  1  0.74981000  0.51071000  0.44409000  1
  C  C131  1  0.86403000  0.75354000  0.41467000  1
  C  C132  1  0.81748000  0.65460000  0.42152000  1
  C  C133  1  0.33707000  0.13706000  0.46962000  1
  C  C134  1  0.24315000  0.10326000  0.46287000  1
  C  C135  1  0.47601000  0.20759000  0.46912000  1
  C  C136  1  0.38693000  0.16038000  0.47090000  1
  C  C137  1  0.81557000  0.10111000  0.86831000  1
  C  C138  1  0.89189000  0.07370000  0.89831000  1
  C  C139  1  0.71862000  0.16109000  0.87664000  1
  C  C140  1  0.77607000  0.11749000  0.86248000  1
  C  C141  1  0.82122000  0.65539000  0.92445000  1
  C  C142  1  0.86732000  0.75279000  0.91553000  1
  C  C143  1  0.75438000  0.51443000  0.95052000  1
  C  C144  1  0.79693000  0.60448000  0.93192000  1
  C  C145  1  0.33982000  0.14086000  0.97438000  1
  C  C146  1  0.24519000  0.10739000  0.96614000  1
  C  C147  1  0.48006000  0.21177000  0.97599000  1
  C  C148  1  0.39017000  0.16420000  0.97650000  1
  N  N1  1  0.67099000  0.30984000  0.97544000  1
  N  N2  1  0.66576000  0.30428000  0.46660000  1
  N  N3  1  0.45659000  0.77723000  0.02888000  1
  N  N4  1  0.45337000  0.77420000  0.52464000  1
  N  N5  1  0.19593000  0.31967000  0.40739000  1
  N  N6  1  0.16366000  0.26718000  0.40118000  1
  N  N7  1  0.22267000  0.30205000  0.49234000  1
  N  N8  1  0.25508000  0.35425000  0.49848000  1
  N  N9  1  0.35734000  0.51789000  0.51950000  1
  N  N10  1  0.32694000  0.46346000  0.51105000  1
  N  N11  1  0.25988000  0.43673000  0.42448000  1
  N  N12  1  0.29028000  0.49130000  0.43298000  1
  N  N13  1  0.64123000  0.86005000  0.42548000  1
  N  N14  1  0.60246000  0.84053000  0.43386000  1
  N  N15  1  0.67038000  0.89857000  0.52560000  1
  N  N16  1  0.70915000  0.91788000  0.51721000  1
  N  N17  1  0.83078000  0.95819000  0.49048000  1
  N  N18  1  0.79218000  0.94707000  0.49919000  1
  N  N19  1  0.72426000  0.89944000  0.40778000  1
  N  N20  1  0.76288000  0.91075000  0.39909000  1
  N  N21  1  0.20425000  0.94954000  0.48650000  1
  N  N22  1  0.16647000  0.96297000  0.47171000  1
  N  N23  1  0.09646000  0.86176000  0.41671000  1
  N  N24  1  0.13412000  0.84831000  0.43188000  1
  N  N25  1  0.25064000  0.80543000  0.46464000  1
  N  N26  1  0.21392000  0.81942000  0.45797000  1
  N  N27  1  0.28405000  0.92048000  0.50451000  1
  N  N28  1  0.32084000  0.90648000  0.51119000  1
  N  N29  1  0.25437000  0.35816000  0.00312000  1
  N  N30  1  0.22172000  0.30579000  0.99657000  1
  N  N31  1  0.16457000  0.27072000  0.90513000  1
  N  N32  1  0.19708000  0.32337000  0.91175000  1
  N  N33  1  0.29276000  0.49479000  0.93776000  1
  N  N34  1  0.26186000  0.44033000  0.92918000  1
  N  N35  1  0.32717000  0.46750000  0.01658000  1
  N  N36  1  0.35809000  0.52181000  0.02512000  1
  N  N37  1  0.79551000  0.94408000  0.00281000  1
  N  N38  1  0.83385000  0.95480000  0.99376000  1
  N  N39  1  0.76590000  0.90990000  0.90270000  1
  N  N40  1  0.72754000  0.89898000  0.91172000  1
  N  N41  1  0.60596000  0.84121000  0.93818000  1
  N  N42  1  0.64469000  0.86009000  0.92969000  1
  N  N43  1  0.71291000  0.91662000  0.02140000  1
  N  N44  1  0.67418000  0.89798000  0.02991000  1
  N  N45  1  0.28610000  0.92257000  0.00464000  1
  N  N46  1  0.32312000  0.90872000  0.01217000  1
  N  N47  1  0.25284000  0.80758000  0.96443000  1
  N  N48  1  0.21588000  0.82142000  0.95689000  1
  N  N49  1  0.09840000  0.86383000  0.91323000  1
  N  N50  1  0.13599000  0.85029000  0.92859000  1
  N  N51  1  0.20593000  0.95129000  0.98596000  1
  N  N52  1  0.16821000  0.96478000  0.97099000  1
  N  N53  1  0.73023000  0.08155000  0.35545000  1
  N  N54  1  0.70151000  0.10247000  0.36237000  1
  N  N55  1  0.75372000  0.18818000  0.36213000  1
  N  N56  1  0.78290000  0.16762000  0.35591000  1
  N  N57  1  0.90519000  0.13026000  0.40562000  1
  N  N58  1  0.86704000  0.14298000  0.38939000  1
  N  N59  1  0.79765000  0.04210000  0.34564000  1
  N  N60  1  0.83578000  0.02928000  0.36098000  1
  N  N61  1  0.74024000  0.57652000  0.41301000  1
  N  N62  1  0.71901000  0.53122000  0.42114000  1
  N  N63  1  0.80222000  0.53650000  0.45820000  1
  N  N64  1  0.82348000  0.58191000  0.45029000  1
  N  N65  1  0.89564000  0.73638000  0.44246000  1
  N  N66  1  0.87266000  0.68745000  0.44558000  1
  N  N67  1  0.78570000  0.67139000  0.39325000  1
  N  N68  1  0.80866000  0.72014000  0.38975000  1
  N  N69  1  0.28790000  0.09034000  0.42457000  1
  N  N70  1  0.24156000  0.07379000  0.42118000  1
  N  N71  1  0.29253000  0.14848000  0.50861000  1
  N  N72  1  0.33883000  0.16525000  0.51191000  1
  N  N73  1  0.47652000  0.23805000  0.50960000  1
  N  N74  1  0.43268000  0.21473000  0.51052000  1
  N  N75  1  0.38649000  0.12970000  0.43061000  1
  N  N76  1  0.43049000  0.15282000  0.42986000  1
  N  N77  1  0.79981000  0.04377000  0.85357000  1
  N  N78  1  0.83745000  0.03021000  0.86802000  1
  N  N79  1  0.90752000  0.13074000  0.91150000  1
  N  N80  1  0.86984000  0.14418000  0.89617000  1
  N  N81  1  0.75824000  0.19173000  0.87098000  1
  N  N82  1  0.78678000  0.17040000  0.86431000  1
  N  N83  1  0.73404000  0.08511000  0.86471000  1
  N  N84  1  0.70596000  0.10680000  0.87207000  1
  N  N85  1  0.78937000  0.67201000  0.89602000  1
  N  N86  1  0.81211000  0.72000000  0.89152000  1
  N  N87  1  0.89899000  0.73572000  0.94339000  1
  N  N88  1  0.87623000  0.68754000  0.94754000  1
  N  N89  1  0.80666000  0.53974000  0.96432000  1
  N  N90  1  0.82768000  0.58423000  0.95534000  1
  N  N91  1  0.74447000  0.57891000  0.91768000  1
  N  N92  1  0.72349000  0.53452000  0.92687000  1
  N  N93  1  0.29078000  0.09477000  0.92877000  1
  N  N94  1  0.24410000  0.07839000  0.92465000  1
  N  N95  1  0.29440000  0.15194000  0.01241000  1
  N  N96  1  0.34105000  0.16856000  0.01643000  1
  N  N97  1  0.48008000  0.24190000  0.01622000  1
  N  N98  1  0.43584000  0.21840000  0.01652000  1
  N  N99  1  0.39024000  0.13381000  0.93649000  1
  N  N100  1  0.43464000  0.15711000  0.93639000  1
  O  O1  1  0.03725000  0.97817000  0.78619000  1
  O  O2  1  0.01767000  0.04942000  0.79245000  1
  O  O3  1  0.03537000  0.90503000  0.85867000  1
  O  O4  1  0.98994000  0.99323000  0.84836000  1
  O  O5  1  0.19482000  0.12266000  0.99951000  1
  O  O6  1  0.14750000  0.06402000  0.91110000  1
  O  O7  1  0.05575000  0.08374000  0.93922000  1
  O  O8  1  0.08070000  0.98538000  0.93816000  1
  O  O9  1  0.10236000  0.15736000  0.89231000  1
  O  O10  1  0.15104000  0.19801000  0.98336000  1
  O  O11  1  0.93475000  0.02022000  0.89545000  1
  O  O12  1  0.94678000  0.84803000  0.95144000  1
  O  O13  1  0.86314000  0.81882000  0.87916000  1
  O  O14  1  0.84358000  0.91555000  0.88348000  1
  O  O15  1  0.90893000  0.95636000  0.97121000  1
  O  O16  1  0.96034000  0.92066000  0.89626000  1
  O  O17  1  0.01273000  0.95687000  0.04906000  1
  O  O18  1  0.02012000  0.04640000  0.07449000  1
  O  O19  1  0.95894000  0.08000000  0.97555000  1
  O  O20  1  0.02683000  0.01315000  0.98569000  1
  O  O21  1  0.03844000  0.97271000  0.28692000  1
  O  O22  1  0.01945000  0.04443000  0.29049000  1
  O  O23  1  0.03300000  0.90155000  0.36019000  1
  O  O24  1  0.98940000  0.99077000  0.34678000  1
  O  O25  1  0.19352000  0.11940000  0.49691000  1
  O  O26  1  0.14524000  0.05885000  0.40872000  1
  O  O27  1  0.05498000  0.08238000  0.43693000  1
  O  O28  1  0.07892000  0.98364000  0.43861000  1
  O  O29  1  0.10233000  0.15387000  0.38919000  1
  O  O30  1  0.15102000  0.19559000  0.48030000  1
  O  O31  1  0.93352000  0.02004000  0.39186000  1
  O  O32  1  0.94335000  0.84962000  0.45213000  1
  O  O33  1  0.86031000  0.81992000  0.37861000  1
  O  O34  1  0.84141000  0.91702000  0.38103000  1
  O  O35  1  0.90642000  0.95933000  0.46906000  1
  O  O36  1  0.95831000  0.92038000  0.39570000  1
  O  O37  1  0.00776000  0.95952000  0.54838000  1
  O  O38  1  0.01695000  0.05005000  0.57202000  1
  O  O39  1  0.95709000  0.08154000  0.47097000  1
  O  O40  1  0.02454000  0.01391000  0.48438000  1
