# generated using pymatgen
data_Zn7H82C122S6(ClO16)2
_symmetry_space_group_name_H-M   'P 1'
_cell_length_a   30.86087000
_cell_length_b   27.45375000
_cell_length_c   31.95985000
_cell_angle_alpha   103.71249000
_cell_angle_beta   115.78899000
_cell_angle_gamma   112.16340000
_symmetry_Int_Tables_number   1
_chemical_formula_structural   Zn7H82C122S6(ClO16)2
_chemical_formula_sum   'Zn14 H164 C244 S12 Cl4 O64'
_cell_volume   19794.70372771
_cell_formula_units_Z   2
loop_
 _symmetry_equiv_pos_site_id
 _symmetry_equiv_pos_as_xyz
  1  'x, y, z'
loop_
 _atom_site_type_symbol
 _atom_site_label
 _atom_site_symmetry_multiplicity
 _atom_site_fract_x
 _atom_site_fract_y
 _atom_site_fract_z
 _atom_site_occupancy
  Zn  Zn1  1  0.16154000  0.15162000  0.02073000  1
  Zn  Zn2  1  0.07132000  0.08921000  0.90127000  1
  Zn  Zn3  1  0.14559000  0.13360000  0.50631000  1
  Zn  Zn4  1  0.04898000  0.08379000  0.39283000  1
  Zn  Zn5  1  0.00135000  0.05215000  0.53485000  1
  Zn  Zn6  1  0.03806000  0.02205000  0.95435000  1
  Zn  Zn7  1  0.01546000  0.01290000  0.44385000  1
  Zn  Zn8  1  0.01391000  0.06173000  0.03724000  1
  Zn  Zn9  1  0.91555000  0.91080000  0.90463000  1
  Zn  Zn10  1  0.04543000  0.96037000  0.86589000  1
  Zn  Zn11  1  0.89069000  0.90803000  0.39758000  1
  Zn  Zn12  1  0.00883000  0.94851000  0.34592000  1
  Zn  Zn13  1  0.99154000  0.93871000  0.49575000  1
  Zn  Zn14  1  0.01301000  0.95315000  0.00982000  1
  H  H1  1  0.58988000  0.34607000  0.98875000  1
  H  H2  1  0.62711000  0.15535000  0.89373000  1
  H  H3  1  0.74985000  0.40156000  0.91602000  1
  H  H4  1  0.49259000  0.27407000  0.07314000  1
  H  H5  1  0.57535000  0.30459000  0.06760000  1
  H  H6  1  0.46204000  0.16672000  0.90416000  1
  H  H7  1  0.37959000  0.13603000  0.90989000  1
  H  H8  1  0.78977000  0.12460000  0.94769000  1
  H  H9  1  0.72893000  0.16304000  0.94505000  1
  H  H10  1  0.70510000  0.17350000  0.80486000  1
  H  H11  1  0.76554000  0.13400000  0.80725000  1
  H  H12  1  0.54564000  0.30891000  0.44271000  1
  H  H13  1  0.61581000  0.14360000  0.37095000  1
  H  H14  1  0.67747000  0.36190000  0.34298000  1
  H  H15  1  0.36324000  0.20934000  0.40682000  1
  H  H16  1  0.44351000  0.24407000  0.39817000  1
  H  H17  1  0.49579000  0.14036000  0.46499000  1
  H  H18  1  0.41271000  0.10210000  0.46983000  1
  H  H19  1  0.70287000  0.04638000  0.33099000  1
  H  H20  1  0.62975000  0.07176000  0.30501000  1
  H  H21  1  0.76372000  0.25813000  0.38001000  1
  H  H22  1  0.83613000  0.23219000  0.40395000  1
  H  H23  1  0.31976000  0.49355000  0.05111000  1
  H  H24  1  0.28539000  0.40442000  0.89936000  1
  H  H25  1  0.32692000  0.49044000  0.56307000  1
  H  H26  1  0.21566000  0.41406000  0.39332000  1
  H  H27  1  0.09680000  0.05834000  0.05227000  1
  H  H28  1  0.07798000  0.04188000  0.53961000  1
  H  H29  1  0.20546000  0.41375000  0.51644000  1
  H  H30  1  0.20675000  0.24432000  0.41902000  1
  H  H31  1  0.08982000  0.33225000  0.46730000  1
  H  H32  1  0.06696000  0.28933000  0.49634000  1
  H  H33  1  0.06547000  0.25303000  0.44078000  1
  H  H34  1  0.34775000  0.40361000  0.49702000  1
  H  H35  1  0.34707000  0.36827000  0.44173000  1
  H  H36  1  0.32211000  0.32403000  0.46899000  1
  H  H37  1  0.27814000  0.30084000  0.03301000  1
  H  H38  1  0.18389000  0.36113000  0.90367000  1
  H  H39  1  0.36070000  0.33136000  0.01364000  1
  H  H40  1  0.42223000  0.40660000  0.05009000  1
  H  H41  1  0.36480000  0.38073000  0.98378000  1
  H  H42  1  0.09344000  0.27573000  0.94801000  1
  H  H43  1  0.03791000  0.25028000  0.88103000  1
  H  H44  1  0.09863000  0.32631000  0.91939000  1
  H  H45  1  0.87194000  0.04692000  0.35626000  1
  H  H46  1  0.84750000  0.17347000  0.47230000  1
  H  H47  1  0.86340000  0.11242000  0.30326000  1
  H  H48  1  0.83017000  0.15318000  0.31212000  1
  H  H49  1  0.79460000  0.09069000  0.24934000  1
  H  H50  1  0.38793000  0.16619000  0.52807000  1
  H  H51  1  0.18932000  0.07192000  0.36995000  1
  H  H52  1  0.25642000  0.05318000  0.52707000  1
  H  H53  1  0.31515000  0.10199000  0.59552000  1
  H  H54  1  0.33006000  0.07664000  0.54950000  1
  H  H55  1  0.20967000  0.99514000  0.31869000  1
  H  H56  1  0.76754000  0.02103000  0.83120000  1
  H  H57  1  0.31568000  0.11939000  0.04469000  1
  H  H58  1  0.35235000  0.23042000  0.94956000  1
  H  H59  1  0.34473000  0.04862000  0.00201000  1
  H  H60  1  0.41816000  0.07037000  0.03627000  1
  H  H61  1  0.38764000  0.07876000  0.97843000  1
  H  H62  1  0.24338000  0.16905000  0.87039000  1
  H  H63  1  0.19140000  0.18252000  0.87155000  1
  H  H64  1  0.19193000  0.12015000  0.87892000  1
  H  H65  1  0.87927000  0.22675000  0.87798000  1
  H  H66  1  0.69255000  0.45365000  0.84521000  1
  H  H67  1  0.28568000  0.02246000  0.34884000  1
  H  H68  1  0.85694000  0.11762000  0.52830000  1
  H  H69  1  0.88687000  0.07242000  0.52201000  1
  H  H70  1  0.33458000  0.50256000  0.90411000  1
  H  H71  1  0.22944000  0.04758000  0.03190000  1
  H  H72  1  0.31574000  0.08444000  0.13583000  1
  H  H73  1  0.38580000  0.10359000  0.15357000  1
  H  H74  1  0.88498000  0.00628000  0.82161000  1
  H  H75  1  0.92494000  0.13860000  0.58288000  1
  H  H76  1  0.92727000  0.29610000  0.93868000  1
  H  H77  1  0.77500000  0.46905000  0.41833000  1
  H  H78  1  0.64014000  0.49294000  0.40528000  1
  H  H79  1  0.26726000  0.51356000  0.40129000  1
  H  H80  1  0.74006000  0.01619000  0.92264000  1
  H  H81  1  0.96954000  0.03964000  0.13894000  1
  H  H82  1  0.97159000  0.18465000  0.97565000  1
  H  H83  1  0.95447000  0.25233000  0.92390000  1
  H  H84  1  0.96876000  0.01461000  0.72088000  1
  H  H85  1  0.24199000  0.01588000  0.28564000  1
  H  H86  1  0.10395000  0.99738000  0.68309000  1
  H  H87  1  0.69612000  0.93430000  0.35590000  1
  H  H88  1  0.74706000  0.55256000  0.85357000  1
  H  H89  1  0.76137000  0.53882000  0.01075000  1
  H  H90  1  0.81575000  0.63776000  0.01902000  1
  H  H91  1  0.82779000  0.57012000  0.42958000  1
  H  H92  1  0.69349000  0.59438000  0.41734000  1
  H  H93  1  0.54606000  0.74607000  0.00045000  1
  H  H94  1  0.44804000  0.89659000  0.02426000  1
  H  H95  1  0.32943000  0.64368000  0.99867000  1
  H  H96  1  0.37006000  0.59157000  0.05652000  1
  H  H97  1  0.64530000  0.81166000  0.92169000  1
  H  H98  1  0.56599000  0.77338000  0.93157000  1
  H  H99  1  0.65655000  0.94476000  0.06717000  1
  H  H100  1  0.73546000  0.98320000  0.05665000  1
  H  H101  1  0.29516000  0.93205000  0.97806000  1
  H  H102  1  0.35741000  0.89486000  0.98326000  1
  H  H103  1  0.36727000  0.87203000  0.11550000  1
  H  H104  1  0.30307000  0.90743000  0.10879000  1
  H  H105  1  0.50098000  0.72064000  0.46933000  1
  H  H106  1  0.42961000  0.89175000  0.52447000  1
  H  H107  1  0.34577000  0.67050000  0.54667000  1
  H  H108  1  0.37779000  0.59015000  0.57111000  1
  H  H109  1  0.61338000  0.80312000  0.39658000  1
  H  H110  1  0.52780000  0.76541000  0.39784000  1
  H  H111  1  0.63259000  0.89995000  0.56160000  1
  H  H112  1  0.71823000  0.93738000  0.56034000  1
  H  H113  1  0.32417000  0.97933000  0.58382000  1
  H  H114  1  0.39682000  0.95326000  0.61301000  1
  H  H115  1  0.28158000  0.78804000  0.46530000  1
  H  H116  1  0.20893000  0.81390000  0.43630000  1
  H  H117  1  0.10191000  0.00932000  0.27236000  1
  H  H118  1  0.70008000  0.94779000  0.43991000  1
  H  H119  1  0.83945000  0.88908000  0.50936000  1
  H  H120  1  0.74476000  0.91343000  0.35299000  1
  H  H121  1  0.74996000  0.97931000  0.34956000  1
  H  H122  1  0.75534000  0.77879000  0.47200000  1
  H  H123  1  0.68506000  0.76766000  0.44930000  1
  H  H124  1  0.72206000  0.75712000  0.50408000  1
  H  H125  1  0.12072000  0.92000000  0.51255000  1
  H  H126  1  0.23066000  0.93403000  0.43461000  1
  H  H127  1  0.11833000  0.82044000  0.51498000  1
  H  H128  1  0.17654000  0.82537000  0.56855000  1
  H  H129  1  0.16934000  0.80812000  0.50736000  1
  H  H130  1  0.14386000  0.88907000  0.33837000  1
  H  H131  1  0.10637000  0.92237000  0.31180000  1
  H  H132  1  0.07741000  0.87121000  0.33239000  1
  H  H133  1  0.79741000  0.91682000  0.05537000  1
  H  H134  1  0.78416000  0.95118000  0.90559000  1
  H  H135  1  0.91082000  0.87712000  0.06125000  1
  H  H136  1  0.83798000  0.84883000  0.03985000  1
  H  H137  1  0.71268000  0.00550000  0.96254000  1
  H  H138  1  0.66488000  0.98221000  0.89387000  1
  H  H139  1  0.18197000  0.84204000  0.99791000  1
  H  H140  1  0.33868000  0.03285000  0.14452000  1
  H  H141  1  0.08219000  0.83463000  0.88166000  1
  H  H142  1  0.02483000  0.77902000  0.87848000  1
  H  H143  1  0.09118000  0.78282000  0.90578000  1
  H  H144  1  0.78452000  0.71888000  0.35309000  1
  H  H145  1  0.86343000  0.68938000  0.51067000  1
  H  H146  1  0.75525000  0.60845000  0.29300000  1
  H  H147  1  0.68878000  0.54164000  0.26664000  1
  H  H148  1  0.75360000  0.55934000  0.32306000  1
  H  H149  1  0.88816000  0.80078000  0.56728000  1
  H  H150  1  0.80834000  0.97751000  0.77909000  1
  H  H151  1  0.83132000  0.92878000  0.79288000  1
  H  H152  1  0.80002000  0.75966000  0.90192000  1
  H  H153  1  0.89967000  0.66763000  0.98384000  1
  H  H154  1  0.74267000  0.67871000  0.96852000  1
  H  H155  1  0.67748000  0.66384000  0.91480000  1
  H  H156  1  0.74285000  0.73492000  0.94705000  1
  H  H157  1  0.85756000  0.85311000  0.99390000  1
  H  H158  1  0.89896000  0.85374000  0.54145000  1
  H  H159  1  0.95755000  0.69542000  0.93867000  1
  H  H160  1  0.96115000  0.75504000  0.92121000  1
  H  H161  1  0.02431000  0.76617000  0.97445000  1
  H  H162  1  0.97892000  0.99084000  0.85829000  1
  H  H163  1  0.95304000  0.99025000  0.35083000  1
  H  H164  1  0.95847000  0.86494000  0.59868000  1
  C  C1  1  0.62086000  0.30660000  0.94908000  1
  C  C2  1  0.61969000  0.25335000  0.93419000  1
  C  C3  1  0.66214000  0.25238000  0.92887000  1
  C  C4  1  0.70219000  0.30323000  0.93294000  1
  C  C5  1  0.70000000  0.35450000  0.94237000  1
  C  C6  1  0.66262000  0.35784000  0.95509000  1
  C  C7  1  0.59367000  0.30887000  0.97491000  1
  C  C8  1  0.65538000  0.19886000  0.90010000  1
  C  C9  1  0.71890000  0.39585000  0.92516000  1
  C  C10  1  0.57293000  0.25832000  0.98144000  1
  C  C11  1  0.68943000  0.20799000  0.88095000  1
  C  C12  1  0.69508000  0.43033000  0.92324000  1
  C  C13  1  0.43056000  0.20295000  0.99190000  1
  C  C14  1  0.48598000  0.25019000  0.03643000  1
  C  C15  1  0.53277000  0.26747000  0.03328000  1
  C  C16  1  0.52444000  0.23741000  0.98568000  1
  C  C17  1  0.46906000  0.18965000  0.94133000  1
  C  C18  1  0.42233000  0.17250000  0.94447000  1
  C  C19  1  0.78224000  0.12734000  0.87800000  1
  C  C20  1  0.76996000  0.13354000  0.91558000  1
  C  C21  1  0.73550000  0.15538000  0.91407000  1
  C  C22  1  0.71330000  0.17165000  0.87508000  1
  C  C23  1  0.72239000  0.16154000  0.83535000  1
  C  C24  1  0.75665000  0.13925000  0.83672000  1
  C  C25  1  0.58812000  0.27820000  0.41297000  1
  C  C26  1  0.58652000  0.22510000  0.39518000  1
  C  C27  1  0.59738000  0.21062000  0.35718000  1
  C  C28  1  0.61440000  0.25228000  0.33993000  1
  C  C29  1  0.62073000  0.30768000  0.36084000  1
  C  C30  1  0.60297000  0.31822000  0.39397000  1
  C  C31  1  0.55445000  0.27490000  0.43276000  1
  C  C32  1  0.61640000  0.17123000  0.35171000  1
  C  C33  1  0.65884000  0.36100000  0.36495000  1
  C  C34  1  0.52655000  0.21901000  0.42994000  1
  C  C35  1  0.64841000  0.18252000  0.33066000  1
  C  C36  1  0.67137000  0.41253000  0.40213000  1
  C  C37  1  0.38234000  0.15322000  0.43883000  1
  C  C38  1  0.39176000  0.19377000  0.41908000  1
  C  C39  1  0.43789000  0.21423000  0.41497000  1
  C  C40  1  0.47620000  0.19572000  0.43207000  1
  C  C41  1  0.46664000  0.15502000  0.45170000  1
  C  C42  1  0.41978000  0.13365000  0.45481000  1
  C  C43  1  0.77451000  0.13759000  0.36937000  1
  C  C44  1  0.71605000  0.09238000  0.34066000  1
  C  C45  1  0.67468000  0.10685000  0.32629000  1
  C  C46  1  0.69147000  0.16672000  0.34082000  1
  C  C47  1  0.74989000  0.21164000  0.36798000  1
  C  C48  1  0.79106000  0.19701000  0.38184000  1
  C  C49  1  0.29852000  0.44229000  0.97458000  1
  C  C50  1  0.32339000  0.49539000  0.01921000  1
  C  C51  1  0.30392000  0.44521000  0.93371000  1
  C  C52  1  0.26771000  0.44540000  0.47765000  1
  C  C53  1  0.31359000  0.49539000  0.52773000  1
  C  C54  1  0.25120000  0.45230000  0.43213000  1
  C  C55  1  0.23018000  0.13399000  0.99152000  1
  C  C56  1  0.16329000  0.22209000  0.96512000  1
  C  C57  1  0.19658000  0.09900000  0.46078000  1
  C  C58  1  0.14705000  0.21387000  0.46001000  1
  C  C59  1  0.17615000  0.27246000  0.46306000  1
  C  C60  1  0.17489000  0.32022000  0.48974000  1
  C  C61  1  0.20589000  0.37691000  0.49525000  1
  C  C62  1  0.23669000  0.38587000  0.47294000  1
  C  C63  1  0.23803000  0.33805000  0.44638000  1
  C  C64  1  0.20640000  0.28120000  0.44026000  1
  C  C65  1  0.08994000  0.29614000  0.47741000  1
  C  C66  1  0.32328000  0.36106000  0.45989000  1
  C  C67  1  0.26444000  0.38367000  0.96958000  1
  C  C68  1  0.29118000  0.36534000  0.00494000  1
  C  C69  1  0.25743000  0.31400000  0.00489000  1
  C  C70  1  0.19747000  0.27835000  0.96730000  1
  C  C71  1  0.17080000  0.29571000  0.93088000  1
  C  C72  1  0.20452000  0.34781000  0.93167000  1
  C  C73  1  0.37474000  0.37807000  0.02080000  1
  C  C74  1  0.08514000  0.27954000  0.91173000  1
  C  C75  1  0.81883000  0.12419000  0.39229000  1
  C  C76  1  0.82723000  0.09011000  0.35976000  1
  C  C77  1  0.86698000  0.07457000  0.38191000  1
  C  C78  1  0.90021000  0.09473000  0.43681000  1
  C  C79  1  0.89226000  0.13013000  0.46948000  1
  C  C80  1  0.85261000  0.14552000  0.44701000  1
  C  C81  1  0.82226000  0.10829000  0.29280000  1
  C  C82  1  0.24327000  0.10637000  0.45475000  1
  C  C83  1  0.29914000  0.12963000  0.49894000  1
  C  C84  1  0.34440000  0.14441000  0.49339000  1
  C  C85  1  0.33368000  0.13198000  0.44346000  1
  C  C86  1  0.27672000  0.10189000  0.39840000  1
  C  C87  1  0.23227000  0.09130000  0.40444000  1
  C  C88  1  0.30250000  0.09082000  0.55463000  1
  C  C89  1  0.25007000  0.02750000  0.32510000  1
  C  C90  1  0.82732000  0.11592000  0.88602000  1
  C  C91  1  0.88567000  0.16270000  0.92417000  1
  C  C92  1  0.91169000  0.08944000  0.92207000  1
  C  C93  1  0.85472000  0.04393000  0.87794000  1
  C  C94  1  0.81229000  0.05701000  0.86152000  1
  C  C95  1  0.38067000  0.18746000  0.99392000  1
  C  C96  1  0.36970000  0.15505000  0.02014000  1
  C  C97  1  0.32216000  0.14108000  0.02190000  1
  C  C98  1  0.28262000  0.15413000  0.99358000  1
  C  C99  1  0.29304000  0.18574000  0.96660000  1
  C  C100  1  0.34306000  0.20392000  0.96842000  1
  C  C101  1  0.38809000  0.08211000  0.01404000  1
  C  C102  1  0.21996000  0.16715000  0.88901000  1
  C  C103  1  0.05397000  0.02025000  0.80171000  1
  C  C104  1  0.02528000  0.00509000  0.60793000  1
  C  C105  1  0.04489000  0.01172000  0.75052000  1
  C  C106  1  0.02950000  0.00310000  0.65500000  1
  C  C107  1  0.33208000  0.50081000  0.93655000  1
  C  C108  1  0.04083000  0.02610000  0.11823000  1
  C  C109  1  0.02633000  0.01707000  0.29010000  1
  C  C110  1  0.03901000  0.02569000  0.16337000  1
  C  C111  1  0.02994000  0.01957000  0.24606000  1
  C  C112  1  0.89694000  0.11870000  0.53913000  1
  C  C113  1  0.07675000  0.01753000  0.20149000  1
  C  C114  1  0.07221000  0.01474000  0.24269000  1
  C  C115  1  0.92741000  0.14909000  0.94304000  1
  C  C116  1  0.95185000  0.07420000  0.95152000  1
  C  C117  1  0.91598000  0.24952000  0.92041000  1
  C  C118  1  0.71891000  0.49378000  0.88304000  1
  C  C119  1  0.72275000  0.48955000  0.92722000  1
  C  C120  1  0.70381000  0.47384000  0.41086000  1
  C  C121  1  0.28040000  0.50867000  0.43665000  1
  C  C122  1  0.75699000  0.49616000  0.41800000  1
  C  C123  1  0.34012000  0.06580000  0.12958000  1
  C  C124  1  0.08274000  0.00587000  0.73923000  1
  C  C125  1  0.07435000  0.00090000  0.69129000  1
  C  C126  1  0.94222000  0.07782000  0.45955000  1
  C  C127  1  0.99184000  0.02707000  0.20747000  1
  C  C128  1  0.99793000  0.03220000  0.16762000  1
  C  C129  1  0.99104000  0.00748000  0.66570000  1
  C  C130  1  0.99866000  0.01136000  0.71302000  1
  C  C131  1  0.78525000  0.60175000  0.93691000  1
  C  C132  1  0.74995000  0.54969000  0.88783000  1
  C  C133  1  0.75750000  0.54174000  0.97621000  1
  C  C134  1  0.78869000  0.59768000  0.98103000  1
  C  C135  1  0.76415000  0.58904000  0.42405000  1
  C  C136  1  0.78709000  0.55356000  0.42470000  1
  C  C137  1  0.68133000  0.50979000  0.41113000  1
  C  C138  1  0.71143000  0.56719000  0.41774000  1
  C  C139  1  0.47534000  0.75717000  0.99015000  1
  C  C140  1  0.46394000  0.80236000  0.99127000  1
  C  C141  1  0.42546000  0.80359000  0.00312000  1
  C  C142  1  0.39276000  0.75533000  0.00688000  1
  C  C143  1  0.40563000  0.71183000  0.00867000  1
  C  C144  1  0.44822000  0.71391000  0.00173000  1
  C  C145  1  0.52909000  0.77418000  0.99844000  1
  C  C146  1  0.42650000  0.85572000  0.02520000  1
  C  C147  1  0.36602000  0.65419000  0.99705000  1
  C  C148  1  0.55994000  0.83308000  0.00789000  1
  C  C149  1  0.39489000  0.84798000  0.04686000  1
  C  C150  1  0.37672000  0.61119000  0.97951000  1
  C  C151  1  0.35166000  0.55089000  0.02214000  1
  C  C152  1  0.35477000  0.55376000  0.98015000  1
  C  C153  1  0.69572000  0.90004000  0.98846000  1
  C  C154  1  0.64760000  0.84093000  0.95316000  1
  C  C155  1  0.60300000  0.81905000  0.95916000  1
  C  C156  1  0.60630000  0.85610000  0.00073000  1
  C  C157  1  0.65378000  0.91568000  0.03521000  1
  C  C158  1  0.69840000  0.93751000  0.02918000  1
  C  C159  1  0.29417000  0.92128000  0.04249000  1
  C  C160  1  0.31138000  0.91961000  0.00846000  1
  C  C161  1  0.34704000  0.89890000  0.01169000  1
  C  C162  1  0.36634000  0.88014000  0.04946000  1
  C  C163  1  0.35199000  0.88549000  0.08570000  1
  C  C164  1  0.31568000  0.90558000  0.08196000  1
  C  C165  1  0.45387000  0.75270000  0.49041000  1
  C  C166  1  0.45661000  0.80677000  0.50614000  1
  C  C167  1  0.44127000  0.82210000  0.54021000  1
  C  C168  1  0.41783000  0.78000000  0.55463000  1
  C  C169  1  0.41026000  0.72361000  0.53531000  1
  C  C170  1  0.43278000  0.71224000  0.50690000  1
  C  C171  1  0.49116000  0.75455000  0.47521000  1
  C  C172  1  0.42415000  0.86347000  0.54275000  1
  C  C173  1  0.36724000  0.67062000  0.52740000  1
  C  C174  1  0.52226000  0.81000000  0.47899000  1
  C  C175  1  0.38716000  0.85325000  0.55861000  1
  C  C176  1  0.35495000  0.61833000  0.49132000  1
  C  C177  1  0.34242000  0.55187000  0.53228000  1
  C  C178  1  0.32574000  0.55876000  0.48673000  1
  C  C179  1  0.67154000  0.87296000  0.47830000  1
  C  C180  1  0.61769000  0.82425000  0.43265000  1
  C  C181  1  0.56927000  0.80283000  0.43340000  1
  C  C182  1  0.57412000  0.83051000  0.47956000  1
  C  C183  1  0.62818000  0.87879000  0.52550000  1
  C  C184  1  0.67674000  0.89989000  0.52485000  1
  C  C185  1  0.26147000  0.89817000  0.50823000  1
  C  C186  1  0.31470000  0.93748000  0.55800000  1
  C  C187  1  0.35583000  0.92274000  0.57450000  1
  C  C188  1  0.34393000  0.86865000  0.54134000  1
  C  C189  1  0.29091000  0.82966000  0.49135000  1
  C  C190  1  0.24988000  0.84440000  0.47485000  1
  C  C191  1  0.91373000  0.82504000  0.94685000  1
  C  C192  1  0.87948000  0.95206000  0.96405000  1
  C  C193  1  0.11580000  0.96337000  0.95946000  1
  C  C194  1  0.88669000  0.81852000  0.43833000  1
  C  C195  1  0.86189000  0.95393000  0.46157000  1
  C  C196  1  0.08270000  0.94471000  0.43204000  1
  C  C197  1  0.81502000  0.93649000  0.46849000  1
  C  C198  1  0.77427000  0.95145000  0.44726000  1
  C  C199  1  0.72974000  0.93385000  0.45397000  1
  C  C200  1  0.72217000  0.89650000  0.47687000  1
  C  C201  1  0.76150000  0.87954000  0.49615000  1
  C  C202  1  0.80873000  0.90129000  0.49349000  1
  C  C203  1  0.74099000  0.95141000  0.36836000  1
  C  C204  1  0.72841000  0.78488000  0.48451000  1
  C  C205  1  0.21773000  0.91316000  0.49083000  1
  C  C206  1  0.18635000  0.90894000  0.51275000  1
  C  C207  1  0.14354000  0.92140000  0.49447000  1
  C  C208  1  0.12922000  0.93411000  0.45219000  1
  C  C209  1  0.16012000  0.93759000  0.42977000  1
  C  C210  1  0.20536000  0.92886000  0.45036000  1
  C  C211  1  0.16423000  0.83498000  0.53482000  1
  C  C212  1  0.11821000  0.90724000  0.34194000  1
  C  C213  1  0.83509000  0.94432000  0.97357000  1
  C  C214  1  0.83821000  0.93372000  0.01573000  1
  C  C215  1  0.79451000  0.92429000  0.02269000  1
  C  C216  1  0.74559000  0.92066000  0.98589000  1
  C  C217  1  0.74277000  0.93239000  0.94452000  1
  C  C218  1  0.78721000  0.94354000  0.93823000  1
  C  C219  1  0.87151000  0.87561000  0.03534000  1
  C  C220  1  0.70419000  0.98581000  0.92297000  1
  C  C221  1  0.24975000  0.93427000  0.03346000  1
  C  C222  1  0.26324000  0.99300000  0.04615000  1
  C  C223  1  0.21888000  0.00256000  0.02372000  1
  C  C224  1  0.16118000  0.95389000  0.98925000  1
  C  C225  1  0.14765000  0.89576000  0.98079000  1
  C  C226  1  0.19223000  0.88672000  0.00461000  1
  C  C227  1  0.07229000  0.81032000  0.90291000  1
  C  C228  1  0.79444000  0.64824000  0.42813000  1
  C  C229  1  0.77267000  0.65652000  0.38338000  1
  C  C230  1  0.80203000  0.71281000  0.38762000  1
  C  C231  1  0.85455000  0.76043000  0.43561000  1
  C  C232  1  0.87574000  0.75230000  0.48078000  1
  C  C233  1  0.84616000  0.69591000  0.47637000  1
  C  C234  1  0.73082000  0.57924000  0.30395000  1
  C  C235  1  0.84130000  0.97491000  0.81029000  1
  C  C236  1  0.81875000  0.66044000  0.94204000  1
  C  C237  1  0.79104000  0.68760000  0.92036000  1
  C  C238  1  0.82197000  0.73979000  0.91989000  1
  C  C239  1  0.88140000  0.76772000  0.94440000  1
  C  C240  1  0.90937000  0.74088000  0.96672000  1
  C  C241  1  0.87806000  0.68798000  0.96633000  1
  C  C242  1  0.72441000  0.68618000  0.93382000  1
  C  C243  1  0.91697000  0.83017000  0.55966000  1
  C  C244  1  0.97727000  0.74464000  0.95430000  1
  S  S1  1  0.58736000  0.21200000  0.95446000  1
  S  S2  1  0.72619000  0.28117000  0.89974000  1
  S  S3  1  0.65289000  0.41026000  0.94376000  1
  S  S4  1  0.54212000  0.17507000  0.40169000  1
  S  S5  1  0.65364000  0.24110000  0.32078000  1
  S  S6  1  0.63566000  0.39223000  0.42840000  1
  S  S7  1  0.52036000  0.86201000  0.00449000  1
  S  S8  1  0.36748000  0.77800000  0.03831000  1
  S  S9  1  0.43503000  0.64495000  0.98010000  1
  S  S10  1  0.50581000  0.85581000  0.50318000  1
  S  S11  1  0.37521000  0.79302000  0.56728000  1
  S  S12  1  0.39800000  0.63803000  0.47173000  1
  Cl  Cl1  1  0.93354000  0.02555000  0.20597000  1
  Cl  Cl2  1  0.93294000  0.00816000  0.62009000  1
  Cl  Cl3  1  0.14250000  0.00784000  0.78555000  1
  Cl  Cl4  1  0.13179000  0.01389000  0.19981000  1
  O  O1  1  0.04496000  0.05818000  0.82475000  1
  O  O2  1  0.23276000  0.16160000  0.03292000  1
  O  O3  1  0.17988000  0.09211000  0.94666000  1
  O  O4  1  0.08398000  0.10402000  0.97276000  1
  O  O5  1  0.12901000  0.17141000  0.91984000  1
  O  O6  1  0.17244000  0.22234000  0.00946000  1
  O  O7  1  0.05530000  0.03508000  0.02298000  1
  O  O8  1  0.01989000  0.05593000  0.31569000  1
  O  O9  1  0.20866000  0.13253000  0.50612000  1
  O  O10  1  0.14271000  0.06401000  0.41901000  1
  O  O11  1  0.06745000  0.09501000  0.46570000  1
  O  O12  1  0.11048000  0.16494000  0.41323000  1
  O  O13  1  0.16369000  0.21050000  0.50422000  1
  O  O14  1  0.03618000  0.02150000  0.51252000  1
  O  O15  1  0.14651000  0.31261000  0.51358000  1
  O  O16  1  0.26734000  0.34589000  0.42340000  1
  O  O17  1  0.35023000  0.39991000  0.04206000  1
  O  O18  1  0.11201000  0.25984000  0.89236000  1
  O  O19  1  0.79320000  0.06771000  0.30552000  1
  O  O20  1  0.31058000  0.14204000  0.54843000  1
  O  O21  1  0.26510000  0.08696000  0.34864000  1
  O  O22  1  0.40784000  0.14089000  0.04746000  1
  O  O23  1  0.25826000  0.20549000  0.94428000  1
  O  O24  1  0.04255000  0.07009000  0.10768000  1
  O  O25  1  0.03082000  0.05285000  0.60271000  1
  O  O26  1  0.02006000  0.00802000  0.88527000  1
  O  O27  1  0.92703000  0.15454000  0.52399000  1
  O  O28  1  0.90103000  0.22114000  0.94778000  1
  O  O29  1  0.31995000  0.04043000  0.07598000  1
  O  O30  1  0.99354000  0.00287000  0.37445000  1
  O  O31  1  0.95757000  0.03460000  0.92578000  1
  O  O32  1  0.97568000  0.09411000  0.00235000  1
  O  O33  1  0.94304000  0.03792000  0.42765000  1
  O  O34  1  0.97248000  0.09599000  0.51046000  1
  O  O35  1  0.06795000  0.98772000  0.82231000  1
  O  O36  1  0.07898000  0.92919000  0.90792000  1
  O  O37  1  0.11851000  0.01198000  0.98282000  1
  O  O38  1  0.88953000  0.83273000  0.90551000  1
  O  O39  1  0.86349000  0.92622000  0.91525000  1
  O  O40  1  0.03608000  0.98007000  0.08672000  1
  O  O41  1  0.03883000  0.91112000  0.38204000  1
  O  O42  1  0.08963000  0.99330000  0.46180000  1
  O  O43  1  0.85855000  0.83231000  0.40336000  1
  O  O44  1  0.84817000  0.93658000  0.41333000  1
  O  O45  1  0.01917000  0.96061000  0.57327000  1
  O  O46  1  0.78076000  0.98758000  0.42390000  1
  O  O47  1  0.75618000  0.84526000  0.52123000  1
  O  O48  1  0.20050000  0.89710000  0.55485000  1
  O  O49  1  0.15101000  0.95707000  0.39245000  1
  O  O50  1  0.88510000  0.93487000  0.05143000  1
  O  O51  1  0.69427000  0.92798000  0.90750000  1
  O  O52  1  0.09101000  0.84906000  0.95358000  1
  O  O53  1  0.72040000  0.61065000  0.33625000  1
  O  O54  1  0.83920000  0.98544000  0.85455000  1
  O  O55  1  0.73258000  0.66076000  0.89626000  1
  O  O56  1  0.03671000  0.98099000  0.30740000  1
  O  O57  1  0.93165000  0.97169000  0.00352000  1
  O  O58  1  0.91252000  0.96805000  0.49985000  1
  O  O59  1  0.92773000  0.79798000  0.52827000  1
  O  O60  1  0.96566000  0.86784000  0.99058000  1
  O  O61  1  0.94331000  0.85296000  0.47244000  1
  O  O62  1  0.96799000  0.76808000  0.99160000  1
  O  O63  1  0.99123000  0.94044000  0.93580000  1
  O  O64  1  0.96391000  0.93063000  0.42191000  1
