# generated using pymatgen
data_Zn7H54C98(N13O10)2
_symmetry_space_group_name_H-M   'P 1'
_cell_length_a   32.30039000
_cell_length_b   28.24381000
_cell_length_c   31.99116000
_cell_angle_alpha   103.65026000
_cell_angle_beta   115.75937000
_cell_angle_gamma   112.38046000
_symmetry_Int_Tables_number   1
_chemical_formula_structural   Zn7H54C98(N13O10)2
_chemical_formula_sum   'Zn14 H108 C196 N52 O40'
_cell_volume   21294.31479009
_cell_formula_units_Z   2
loop_
 _symmetry_equiv_pos_site_id
 _symmetry_equiv_pos_as_xyz
  1  'x, y, z'
loop_
 _atom_site_type_symbol
 _atom_site_label
 _atom_site_symmetry_multiplicity
 _atom_site_fract_x
 _atom_site_fract_y
 _atom_site_fract_z
 _atom_site_occupancy
  Zn  Zn1  1  0.13733000  0.12942000  0.00266000  1
  Zn  Zn2  1  0.04966000  0.08423000  0.88642000  1
  Zn  Zn3  1  0.89308000  0.90928000  0.88884000  1
  Zn  Zn4  1  0.00027000  0.05178000  0.02462000  1
  Zn  Zn5  1  0.14839000  0.11950000  0.49869000  1
  Zn  Zn6  1  0.05730000  0.07950000  0.38707000  1
  Zn  Zn7  1  0.90102000  0.91773000  0.39656000  1
  Zn  Zn8  1  0.01493000  0.06119000  0.53081000  1
  Zn  Zn9  1  0.98998000  0.94128000  0.98631000  1
  Zn  Zn10  1  0.01011000  0.95193000  0.83756000  1
  Zn  Zn11  1  0.99588000  0.94554000  0.49262000  1
  Zn  Zn12  1  0.01362000  0.94648000  0.33897000  1
  Zn  Zn13  1  0.01361000  0.01256000  0.93410000  1
  Zn  Zn14  1  0.02248000  0.01216000  0.43807000  1
  H  H1  1  0.72862000  0.18939000  0.96411000  1
  H  H2  1  0.71090000  0.25792000  0.00496000  1
  H  H3  1  0.62647000  0.25878000  0.85766000  1
  H  H4  1  0.64542000  0.19139000  0.81724000  1
  H  H5  1  0.63160000  0.41305000  0.87322000  1
  H  H6  1  0.59918000  0.32865000  0.88804000  1
  H  H7  1  0.76610000  0.40128000  0.01741000  1
  H  H8  1  0.79846000  0.48621000  0.00307000  1
  H  H9  1  0.58193000  0.30431000  0.04863000  1
  H  H10  1  0.66192000  0.34452000  0.04482000  1
  H  H11  1  0.55645000  0.22509000  0.87719000  1
  H  H12  1  0.47646000  0.18539000  0.88083000  1
  H  H13  1  0.83017000  0.57287000  0.90258000  1
  H  H14  1  0.78967000  0.48522000  0.91116000  1
  H  H15  1  0.68928000  0.53439000  0.93895000  1
  H  H16  1  0.72920000  0.62166000  0.92961000  1
  H  H17  1  0.81331000  0.17545000  0.85981000  1
  H  H18  1  0.76279000  0.22096000  0.86499000  1
  H  H19  1  0.65140000  0.07255000  0.86196000  1
  H  H20  1  0.70179000  0.02689000  0.85664000  1
  H  H21  1  0.37747000  0.08853000  0.94258000  1
  H  H22  1  0.45619000  0.12896000  0.93686000  1
  H  H23  1  0.48526000  0.30012000  0.99916000  1
  H  H24  1  0.40731000  0.25997000  0.00581000  1
  H  H25  1  0.75711000  0.22178000  0.48621000  1
  H  H26  1  0.72254000  0.27577000  0.51709000  1
  H  H27  1  0.64439000  0.27442000  0.36764000  1
  H  H28  1  0.68000000  0.22169000  0.33734000  1
  H  H29  1  0.62698000  0.41318000  0.37211000  1
  H  H30  1  0.59904000  0.32850000  0.38757000  1
  H  H31  1  0.76368000  0.41776000  0.52883000  1
  H  H32  1  0.79151000  0.50249000  0.51340000  1
  H  H33  1  0.56022000  0.28658000  0.52874000  1
  H  H34  1  0.64602000  0.34319000  0.53711000  1
  H  H35  1  0.56863000  0.22018000  0.37617000  1
  H  H36  1  0.48397000  0.16219000  0.36873000  1
  H  H37  1  0.82260000  0.57865000  0.40483000  1
  H  H38  1  0.78158000  0.49109000  0.41330000  1
  H  H39  1  0.68233000  0.54165000  0.44189000  1
  H  H40  1  0.72328000  0.62934000  0.43331000  1
  H  H41  1  0.86073000  0.23510000  0.39372000  1
  H  H42  1  0.80347000  0.27046000  0.39977000  1
  H  H43  1  0.69718000  0.10853000  0.38515000  1
  H  H44  1  0.75445000  0.07311000  0.37925000  1
  H  H45  1  0.42466000  0.11992000  0.50822000  1
  H  H46  1  0.50687000  0.16993000  0.50931000  1
  H  H47  1  0.41388000  0.19144000  0.37842000  1
  H  H48  1  0.33158000  0.14101000  0.37693000  1
  H  H49  1  0.48566000  0.88584000  0.11937000  1
  H  H50  1  0.36287000  0.73973000  0.96135000  1
  H  H51  1  0.30386000  0.77814000  0.94572000  1
  H  H52  1  0.36507000  0.58647000  0.94381000  1
  H  H53  1  0.41757000  0.68892000  0.96459000  1
  H  H54  1  0.43834000  0.74659000  0.11376000  1
  H  H55  1  0.38483000  0.64385000  0.09241000  1
  H  H56  1  0.63891000  0.85933000  0.10284000  1
  H  H57  1  0.56731000  0.82457000  0.11864000  1
  H  H58  1  0.44638000  0.78637000  0.96291000  1
  H  H59  1  0.51750000  0.81967000  0.94661000  1
  H  H60  1  0.20748000  0.42572000  0.91901000  1
  H  H61  1  0.26369000  0.52578000  0.93589000  1
  H  H62  1  0.40641000  0.55353000  0.06875000  1
  H  H63  1  0.35047000  0.45351000  0.05184000  1
  H  H64  1  0.25446000  0.90244000  0.06080000  1
  H  H65  1  0.32242000  0.87539000  0.08095000  1
  H  H66  1  0.25051000  0.90798000  0.92568000  1
  H  H67  1  0.64997000  0.80317000  0.03131000  1
  H  H68  1  0.72352000  0.83842000  0.01813000  1
  H  H69  1  0.48852000  0.87792000  0.61584000  1
  H  H70  1  0.36734000  0.73286000  0.45715000  1
  H  H71  1  0.30735000  0.77005000  0.44151000  1
  H  H72  1  0.37096000  0.58035000  0.43896000  1
  H  H73  1  0.42220000  0.68320000  0.46011000  1
  H  H74  1  0.44418000  0.73870000  0.60996000  1
  H  H75  1  0.39233000  0.63561000  0.58844000  1
  H  H76  1  0.64458000  0.85841000  0.60159000  1
  H  H77  1  0.57204000  0.81991000  0.61570000  1
  H  H78  1  0.45131000  0.78082000  0.45950000  1
  H  H79  1  0.52344000  0.81792000  0.44486000  1
  H  H80  1  0.21511000  0.41874000  0.41878000  1
  H  H81  1  0.26937000  0.51900000  0.43507000  1
  H  H82  1  0.41658000  0.54561000  0.56068000  1
  H  H83  1  0.36272000  0.44522000  0.54412000  1
  H  H84  1  0.25638000  0.89187000  0.55731000  1
  H  H85  1  0.32428000  0.86481000  0.57675000  1
  H  H86  1  0.25273000  0.89966000  0.42288000  1
  H  H87  1  0.65938000  0.80695000  0.53141000  1
  H  H88  1  0.73453000  0.84748000  0.52097000  1
  H  H89  1  0.07310000  0.04132000  0.02972000  1
  H  H90  1  0.08263000  0.04127000  0.53369000  1
  H  H91  1  0.00331000  0.07740000  0.73152000  1
  H  H92  1  0.00439000  0.07627000  0.65499000  1
  H  H93  1  0.97663000  0.04568000  0.13871000  1
  H  H94  1  0.97996000  0.04748000  0.21739000  1
  H  H95  1  0.42724000  0.92535000  0.10314000  1
  H  H96  1  0.31926000  0.88213000  0.94640000  1
  H  H97  1  0.68459000  0.95881000  0.97921000  1
  H  H98  1  0.61207000  0.92485000  0.99401000  1
  H  H99  1  0.42916000  0.91628000  0.59960000  1
  H  H100  1  0.32139000  0.87375000  0.44289000  1
  H  H101  1  0.69033000  0.96483000  0.48199000  1
  H  H102  1  0.61615000  0.92556000  0.49404000  1
  H  H103  1  0.95649000  0.99232000  0.84113000  1
  H  H104  1  0.96361000  0.99064000  0.34509000  1
  H  H105  1  0.06444000  0.96542000  0.73778000  1
  H  H106  1  0.06536000  0.96441000  0.66100000  1
  H  H107  1  0.07100000  0.96785000  0.16098000  1
  H  H108  1  0.07487000  0.97003000  0.24021000  1
  C  C1  1  0.68853000  0.18605000  0.88801000  1
  C  C2  1  0.70596000  0.20415000  0.94068000  1
  C  C3  1  0.69607000  0.24302000  0.96387000  1
  C  C4  1  0.66857000  0.26410000  0.93473000  1
  C  C5  1  0.64893000  0.24398000  0.88110000  1
  C  C6  1  0.65929000  0.20543000  0.85804000  1
  C  C7  1  0.71733000  0.45514000  0.93681000  1
  C  C8  1  0.66096000  0.41090000  0.90506000  1
  C  C9  1  0.64255000  0.36313000  0.91362000  1
  C  C10  1  0.68061000  0.35902000  0.95385000  1
  C  C11  1  0.73665000  0.40397000  0.98621000  1
  C  C12  1  0.75495000  0.45187000  0.97790000  1
  C  C13  1  0.52377000  0.24178000  0.96507000  1
  C  C14  1  0.57620000  0.28715000  0.01110000  1
  C  C15  1  0.62148000  0.30997000  0.00898000  1
  C  C16  1  0.61510000  0.28731000  0.96110000  1
  C  C17  1  0.56234000  0.24228000  0.91470000  1
  C  C18  1  0.51693000  0.21983000  0.91675000  1
  C  C19  1  0.78290000  0.60362000  0.91605000  1
  C  C20  1  0.79925000  0.56447000  0.91025000  1
  C  C21  1  0.77634000  0.51486000  0.91513000  1
  C  C22  1  0.73725000  0.50422000  0.92636000  1
  C  C23  1  0.71951000  0.54229000  0.93039000  1
  C  C24  1  0.74211000  0.59170000  0.92505000  1
  C  C25  1  0.76255000  0.09926000  0.86034000  1
  C  C26  1  0.77706000  0.15204000  0.85873000  1
  C  C27  1  0.74847000  0.17791000  0.86175000  1
  C  C28  1  0.70513000  0.15095000  0.86613000  1
  C  C29  1  0.68588000  0.09447000  0.86018000  1
  C  C30  1  0.71447000  0.06863000  0.85720000  1
  C  C31  1  0.38721000  0.17154000  0.97493000  1
  C  C32  1  0.40095000  0.13471000  0.95502000  1
  C  C33  1  0.44540000  0.15756000  0.95159000  1
  C  C34  1  0.47611000  0.21733000  0.96757000  1
  C  C35  1  0.46207000  0.25402000  0.98710000  1
  C  C36  1  0.41802000  0.23130000  0.99102000  1
  C  C37  1  0.72119000  0.21845000  0.40983000  1
  C  C38  1  0.73221000  0.23292000  0.46016000  1
  C  C39  1  0.71278000  0.26357000  0.47770000  1
  C  C40  1  0.68208000  0.27992000  0.44516000  1
  C  C41  1  0.66919000  0.26338000  0.39378000  1
  C  C42  1  0.68897000  0.23304000  0.37640000  1
  C  C43  1  0.71134000  0.46324000  0.44132000  1
  C  C44  1  0.65668000  0.41457000  0.40669000  1
  C  C45  1  0.64079000  0.36666000  0.41560000  1
  C  C46  1  0.67977000  0.36708000  0.45922000  1
  C  C47  1  0.73363000  0.41690000  0.49496000  1
  C  C48  1  0.74938000  0.46474000  0.48611000  1
  C  C49  1  0.51663000  0.21986000  0.44855000  1
  C  C50  1  0.56220000  0.27165000  0.49560000  1
  C  C51  1  0.61061000  0.30397000  0.50022000  1
  C  C52  1  0.61406000  0.28502000  0.45796000  1
  C  C53  1  0.56751000  0.23428000  0.40992000  1
  C  C54  1  0.51922000  0.20172000  0.40548000  1
  C  C55  1  0.77644000  0.61054000  0.41933000  1
  C  C56  1  0.79176000  0.57058000  0.41258000  1
  C  C57  1  0.76848000  0.52095000  0.41729000  1
  C  C58  1  0.72984000  0.51093000  0.42903000  1
  C  C59  1  0.71241000  0.54926000  0.43315000  1
  C  C60  1  0.73555000  0.59888000  0.42821000  1
  C  C61  1  0.81235000  0.15224000  0.38738000  1
  C  C62  1  0.82456000  0.20695000  0.39094000  1
  C  C63  1  0.79208000  0.22694000  0.39426000  1
  C  C64  1  0.74722000  0.19242000  0.39412000  1
  C  C65  1  0.73226000  0.13580000  0.38606000  1
  C  C66  1  0.76459000  0.11566000  0.38249000  1
  C  C67  1  0.37254000  0.12746000  0.44284000  1
  C  C68  1  0.42204000  0.13511000  0.47962000  1
  C  C69  1  0.46862000  0.16351000  0.48029000  1
  C  C70  1  0.46620000  0.18485000  0.44442000  1
  C  C71  1  0.41618000  0.17524000  0.40634000  1
  C  C72  1  0.36951000  0.14651000  0.40543000  1
  C  C73  1  0.36132000  0.85425000  0.02346000  1
  C  C74  1  0.41301000  0.88474000  0.07221000  1
  C  C75  1  0.44623000  0.86255000  0.08134000  1
  C  C76  1  0.42830000  0.80988000  0.04187000  1
  C  C77  1  0.37706000  0.78008000  0.99246000  1
  C  C78  1  0.34371000  0.80205000  0.98349000  1
  C  C79  1  0.37130000  0.60812000  0.01665000  1
  C  C80  1  0.38112000  0.62131000  0.98096000  1
  C  C81  1  0.41145000  0.67953000  0.99304000  1
  C  C82  1  0.43225000  0.72524000  0.04113000  1
  C  C83  1  0.42266000  0.71179000  0.07680000  1
  C  C84  1  0.39234000  0.65361000  0.06467000  1
  C  C85  1  0.58323000  0.84197000  0.02364000  1
  C  C86  1  0.59687000  0.84309000  0.07210000  1
  C  C87  1  0.55636000  0.82349000  0.08111000  1
  C  C88  1  0.50197000  0.80334000  0.04223000  1
  C  C89  1  0.48827000  0.80255000  0.99369000  1
  C  C90  1  0.52867000  0.82140000  0.98440000  1
  C  C91  1  0.27487000  0.43276000  0.98460000  1
  C  C92  1  0.25096000  0.45318000  0.95136000  1
  C  C93  1  0.28280000  0.50994000  0.96097000  1
  C  C94  1  0.33880000  0.54670000  0.00378000  1
  C  C95  1  0.36308000  0.52569000  0.03595000  1
  C  C96  1  0.33131000  0.46904000  0.02644000  1
  C  C97  1  0.26893000  0.89863000  0.03609000  1
  C  C98  1  0.30742000  0.88328000  0.04749000  1
  C  C99  1  0.32499000  0.87610000  0.01463000  1
  C  C100  1  0.70932000  0.90126000  0.99802000  1
  C  C101  1  0.63594000  0.90552000  0.99884000  1
  C  C102  1  0.62601000  0.86171000  0.01382000  1
  C  C103  1  0.65766000  0.83746000  0.02038000  1
  C  C104  1  0.69934000  0.85743000  0.01289000  1
  C  C105  1  0.36395000  0.84557000  0.51959000  1
  C  C106  1  0.41548000  0.87612000  0.56853000  1
  C  C107  1  0.44922000  0.85459000  0.57766000  1
  C  C108  1  0.43202000  0.80254000  0.53801000  1
  C  C109  1  0.38097000  0.77270000  0.48841000  1
  C  C110  1  0.34706000  0.79400000  0.47943000  1
  C  C111  1  0.37809000  0.60094000  0.51223000  1
  C  C112  1  0.38704000  0.61481000  0.47636000  1
  C  C113  1  0.41660000  0.67325000  0.48861000  1
  C  C114  1  0.43732000  0.71844000  0.53696000  1
  C  C115  1  0.42853000  0.70429000  0.57277000  1
  C  C116  1  0.39913000  0.64592000  0.56054000  1
  C  C117  1  0.58912000  0.84098000  0.52228000  1
  C  C118  1  0.60238000  0.84112000  0.57035000  1
  C  C119  1  0.56132000  0.81938000  0.57840000  1
  C  C120  1  0.50673000  0.79802000  0.53896000  1
  C  C121  1  0.49334000  0.79792000  0.49071000  1
  C  C122  1  0.53431000  0.81895000  0.48237000  1
  C  C123  1  0.28494000  0.42505000  0.48069000  1
  C  C124  1  0.25913000  0.44594000  0.44935000  1
  C  C125  1  0.28987000  0.50284000  0.45864000  1
  C  C126  1  0.34661000  0.53933000  0.49929000  1
  C  C127  1  0.37270000  0.51792000  0.52953000  1
  C  C128  1  0.34209000  0.46108000  0.52025000  1
  C  C129  1  0.27085000  0.88848000  0.53257000  1
  C  C130  1  0.30932000  0.87313000  0.54357000  1
  C  C131  1  0.32704000  0.86669000  0.51076000  1
  C  C132  1  0.71784000  0.90920000  0.50107000  1
  C  C133  1  0.64153000  0.90803000  0.49945000  1
  C  C134  1  0.63264000  0.86358000  0.51370000  1
  C  C135  1  0.66623000  0.84169000  0.52103000  1
  C  C136  1  0.70883000  0.86466000  0.51511000  1
  C  C137  1  0.19817000  0.10053000  0.97177000  1
  C  C138  1  0.14705000  0.21064000  0.95855000  1
  C  C139  1  0.89189000  0.82029000  0.92557000  1
  C  C140  1  0.93759000  0.06892000  0.94552000  1
  C  C141  1  0.19454000  0.07700000  0.45499000  1
  C  C142  1  0.15991000  0.20286000  0.45641000  1
  C  C143  1  0.89360000  0.82850000  0.43414000  1
  C  C144  1  0.96111000  0.08528000  0.45303000  1
  C  C145  1  0.00027000  0.03048000  0.20558000  1
  C  C146  1  0.25196000  0.36687000  0.47408000  1
  C  C147  1  0.19181000  0.26067000  0.46247000  1
  C  C148  1  0.76268000  0.93315000  0.49473000  1
  C  C149  1  0.17876000  0.26869000  0.96495000  1
  C  C150  1  0.24048000  0.37487000  0.97749000  1
  C  C151  1  0.75308000  0.92193000  0.98989000  1
  C  C152  1  0.92590000  0.10548000  0.42975000  1
  C  C153  1  0.85378000  0.13782000  0.39783000  1
  C  C154  1  0.80668000  0.66666667  0.42196000  1
  C  C155  1  0.86285000  0.77107000  0.42892000  1
  C  C156  1  0.32577000  0.10473000  0.44660000  1
  C  C157  1  0.23974000  0.08032000  0.45258000  1
  C  C158  1  0.80343000  0.08387000  0.87793000  1
  C  C159  1  0.89007000  0.07337000  0.92109000  1
  C  C160  1  0.81110000  0.65875000  0.91634000  1
  C  C161  1  0.86340000  0.76256000  0.92074000  1
  C  C162  1  0.24849000  0.11269000  0.97593000  1
  C  C163  1  0.33958000  0.14740000  0.97723000  1
  C  C164  1  0.24732000  0.90635000  0.99149000  1
  C  C165  1  0.30531000  0.88661000  0.97151000  1
  C  C166  1  0.26647000  0.90139000  0.95985000  1
  C  C167  1  0.67718000  0.92491000  0.99063000  1
  C  C168  1  0.24941000  0.89695000  0.48840000  1
  C  C169  1  0.30735000  0.87768000  0.46795000  1
  C  C170  1  0.26853000  0.89248000  0.45669000  1
  C  C171  1  0.68371000  0.93044000  0.49281000  1
  C  C172  1  0.86939000  0.95467000  0.95695000  1
  C  C173  1  0.07549000  0.94368000  0.92278000  1
  C  C174  1  0.88195000  0.97176000  0.46551000  1
  C  C175  1  0.03134000  0.01220000  0.28280000  1
  C  C176  1  0.07938000  0.93718000  0.42359000  1
  C  C177  1  0.05126000  0.98968000  0.71991000  1
  C  C178  1  0.01807000  0.05252000  0.67329000  1
  C  C179  1  0.03533000  0.02061000  0.65288000  1
  C  C180  1  0.05181000  0.98907000  0.67630000  1
  C  C181  1  0.05096000  0.98504000  0.17311000  1
  C  C182  1  0.02417000  0.00731000  0.14481000  1
  C  C183  1  0.02810000  0.00947000  0.23475000  1
  C  C184  1  0.05310000  0.98627000  0.21803000  1
  C  C185  1  0.84201000  0.96457000  0.47809000  1
  C  C186  1  0.12130000  0.92332000  0.44239000  1
  C  C187  1  0.20387000  0.90556000  0.47274000  1
  C  C188  1  0.83021000  0.94829000  0.97039000  1
  C  C189  1  0.11796000  0.93076000  0.94281000  1
  C  C190  1  0.20127000  0.91412000  0.97505000  1
  C  C191  1  0.01729000  0.05300000  0.71667000  1
  C  C192  1  0.99835000  0.02942000  0.16093000  1
  C  C193  1  0.02393000  0.00903000  0.09914000  1
  C  C194  1  0.03453000  0.01924000  0.60622000  1
  C  C195  1  0.03272000  0.02187000  0.78614000  1
  C  C196  1  0.03390000  0.02163000  0.74036000  1
  N  N1  1  0.66329000  0.30821000  0.96098000  1
  N  N2  1  0.66635000  0.31571000  0.46577000  1
  N  N3  1  0.46146000  0.78567000  0.05351000  1
  N  N4  1  0.46579000  0.77902000  0.54958000  1
  N  N5  1  0.20748000  0.32152000  0.42526000  1
  N  N6  1  0.17785000  0.26912000  0.41953000  1
  N  N7  1  0.23613000  0.30603000  0.51121000  1
  N  N8  1  0.26574000  0.35834000  0.51694000  1
  N  N9  1  0.75196000  0.93468000  0.44923000  1
  N  N10  1  0.79100000  0.94992000  0.44092000  1
  N  N11  1  0.16938000  0.27599000  0.92196000  1
  N  N12  1  0.19974000  0.32841000  0.92814000  1
  N  N13  1  0.24957000  0.36753000  0.02038000  1
  N  N14  1  0.21916000  0.31524000  0.01420000  1
  N  N15  1  0.74160000  0.92243000  0.94388000  1
  N  N16  1  0.77957000  0.93518000  0.93416000  1
  N  N17  1  0.87371000  0.06666000  0.38517000  1
  N  N18  1  0.83801000  0.08250000  0.36959000  1
  N  N19  1  0.90676000  0.17733000  0.44085000  1
  N  N20  1  0.94219000  0.16128000  0.45680000  1
  N  N21  1  0.77918000  0.68799000  0.39593000  1
  N  N22  1  0.80690000  0.73940000  0.39919000  1
  N  N23  1  0.89027000  0.74979000  0.45498000  1
  N  N24  1  0.86258000  0.69824000  0.45137000  1
  N  N25  1  0.33442000  0.12519000  0.49446000  1
  N  N26  1  0.29200000  0.11322000  0.49740000  1
  N  N27  1  0.23091000  0.05726000  0.40491000  1
  N  N28  1  0.27332000  0.06939000  0.40195000  1
  N  N29  1  0.83100000  0.08474000  0.85561000  1
  N  N30  1  0.87332000  0.07873000  0.87651000  1
  N  N31  1  0.86215000  0.07187000  0.94295000  1
  N  N32  1  0.81927000  0.07666000  0.92151000  1
  N  N33  1  0.86699000  0.69232000  0.94582000  1
  N  N34  1  0.89278000  0.74362000  0.94819000  1
  N  N35  1  0.80747000  0.72868000  0.89072000  1
  N  N36  1  0.78166000  0.67758000  0.88873000  1
  N  N37  1  0.29838000  0.15895000  0.01991000  1
  N  N38  1  0.34327000  0.17618000  0.02050000  1
  N  N39  1  0.29009000  0.09961000  0.93408000  1
  N  N40  1  0.24514000  0.08260000  0.93337000  1
  N  N41  1  0.85326000  0.96514000  0.52441000  1
  N  N42  1  0.81410000  0.94939000  0.53252000  1
  N  N43  1  0.11607000  0.87891000  0.40791000  1
  N  N44  1  0.15680000  0.87024000  0.42282000  1
  N  N45  1  0.20879000  0.94932000  0.50766000  1
  N  N46  1  0.16818000  0.95832000  0.49258000  1
  N  N47  1  0.84224000  0.94967000  0.01712000  1
  N  N48  1  0.80413000  0.93639000  0.02663000  1
  N  N49  1  0.11283000  0.88535000  0.90961000  1
  N  N50  1  0.15392000  0.87724000  0.92545000  1
  N  N51  1  0.20609000  0.95888000  0.00875000  1
  N  N52  1  0.16510000  0.96730000  0.99273000  1
  O  O1  1  0.02524000  0.05911000  0.81035000  1
  O  O2  1  0.20155000  0.12900000  0.01326000  1
  O  O3  1  0.15036000  0.06742000  0.92513000  1
  O  O4  1  0.06338000  0.09252000  0.95714000  1
  O  O5  1  0.11013000  0.16476000  0.91038000  1
  O  O6  1  0.15903000  0.20492000  0.00132000  1
  O  O7  1  0.94304000  0.03456000  0.91526000  1
  O  O8  1  0.94506000  0.85768000  0.96392000  1
  O  O9  1  0.86423000  0.83301000  0.89055000  1
  O  O10  1  0.85112000  0.93276000  0.90700000  1
  O  O11  1  0.03095000  0.05550000  0.09333000  1
  O  O12  1  0.96700000  0.08885000  0.99680000  1
  O  O13  1  0.03313000  0.02155000  0.00257000  1
  O  O14  1  0.02813000  0.05225000  0.30966000  1
  O  O15  1  0.20488000  0.10791000  0.50014000  1
  O  O16  1  0.14514000  0.04995000  0.41098000  1
  O  O17  1  0.07528000  0.09032000  0.45955000  1
  O  O18  1  0.11793000  0.15833000  0.40837000  1
  O  O19  1  0.17595000  0.19595000  0.49886000  1
  O  O20  1  0.95709000  0.04118000  0.42189000  1
  O  O21  1  0.94717000  0.86348000  0.47171000  1
  O  O22  1  0.86750000  0.84339000  0.40037000  1
  O  O23  1  0.86403000  0.94962000  0.41566000  1
  O  O24  1  0.04515000  0.06594000  0.60002000  1
  O  O25  1  0.98837000  0.10366000  0.50407000  1
  O  O26  1  0.04294000  0.02390000  0.50742000  1
  O  O27  1  0.04309000  0.98779000  0.80471000  1
  O  O28  1  0.03435000  0.91252000  0.87241000  1
  O  O29  1  0.99498000  0.00434000  0.86551000  1
  O  O30  1  0.08373000  0.99213000  0.95259000  1
  O  O31  1  0.91853000  0.96814000  0.99284000  1
  O  O32  1  0.96344000  0.93260000  0.91205000  1
  O  O33  1  0.01512000  0.96345000  0.06394000  1
  O  O34  1  0.04083000  0.97700000  0.30020000  1
  O  O35  1  0.03781000  0.90671000  0.37336000  1
  O  O36  1  0.00184000  0.00145000  0.36853000  1
  O  O37  1  0.08855000  0.98572000  0.45448000  1
  O  O38  1  0.93033000  0.98375000  0.50158000  1
  O  O39  1  0.96931000  0.93426000  0.41767000  1
  O  O40  1  0.02205000  0.97090000  0.57079000  1
