# generated using pymatgen
data_Co6H8C62N6O25F24
_symmetry_space_group_name_H-M   'P 1'
_cell_length_a   20.31461000
_cell_length_b   21.05618000
_cell_length_c   38.88219000
_cell_angle_alpha   60.68473000
_cell_angle_beta   119.00443000
_cell_angle_gamma   133.29721000
_symmetry_Int_Tables_number   1
_chemical_formula_structural   Co6H8C62N6O25F24
_chemical_formula_sum   'Co12 H16 C124 N12 O50 F48'
_cell_volume   10259.08853538
_cell_formula_units_Z   2
loop_
 _symmetry_equiv_pos_site_id
 _symmetry_equiv_pos_as_xyz
  1  'x, y, z'
loop_
 _atom_site_type_symbol
 _atom_site_label
 _atom_site_symmetry_multiplicity
 _atom_site_fract_x
 _atom_site_fract_y
 _atom_site_fract_z
 _atom_site_occupancy
  Co  Co1  1  0.00685000  0.09083000  0.07438000  1
  Co  Co2  1  0.08441000  0.02964000  0.04781000  1
  Co  Co3  1  0.10047000  0.88465000  0.04888000  1
  Co  Co4  1  0.00674000  0.09071000  0.57438000  1
  Co  Co5  1  0.08429000  0.02950000  0.54782000  1
  Co  Co6  1  0.10034000  0.88451000  0.54889000  1
  Co  Co7  1  0.98877000  0.84812000  0.10126000  1
  Co  Co8  1  0.92926000  0.91686000  0.13498000  1
  Co  Co9  1  0.90482000  0.06088000  0.12920000  1
  Co  Co10  1  0.98865000  0.84799000  0.60127000  1
  Co  Co11  1  0.92916000  0.91674000  0.63499000  1
  Co  Co12  1  0.90473000  0.06078000  0.62920000  1
  H  H1  1  0.14630000  0.01417000  0.83880000  1
  H  H2  1  0.11128000  0.12439000  0.84269000  1
  H  H3  1  0.18875000  0.08242000  0.76096000  1
  H  H4  1  0.20955000  0.17125000  0.92056000  1
  H  H5  1  0.11115000  0.12436000  0.34270000  1
  H  H6  1  0.18881000  0.08255000  0.26096000  1
  H  H7  1  0.20937000  0.17121000  0.42056000  1
  H  H8  1  0.14633000  0.01425000  0.33880000  1
  H  H9  1  0.84872000  0.90426000  0.23418000  1
  H  H10  1  0.84868000  0.90427000  0.73418000  1
  H  H11  1  0.92755000  0.86100000  0.94375000  1
  H  H12  1  0.94113000  0.79788000  0.89642000  1
  H  H13  1  0.80356000  0.84779000  0.80790000  1
  H  H14  1  0.92753000  0.86084000  0.44376000  1
  H  H15  1  0.94122000  0.79787000  0.39640000  1
  H  H16  1  0.80357000  0.84770000  0.30790000  1
  C  C1  1  0.26654000  0.05669000  0.06977000  1
  C  C2  1  0.08668000  0.22740000  0.11364000  1
  C  C3  1  0.10719000  0.78541000  0.13536000  1
  C  C4  1  0.26641000  0.05654000  0.56978000  1
  C  C5  1  0.08658000  0.22729000  0.61363000  1
  C  C6  1  0.10706000  0.78526000  0.63538000  1
  C  C7  1  0.08145000  0.99083000  0.81587000  1
  C  C8  1  0.07716000  0.98881000  0.77917000  1
  C  C9  1  0.07226000  0.06653000  0.86505000  1
  C  C10  1  0.08148000  0.99090000  0.31586000  1
  C  C11  1  0.07722000  0.98890000  0.27916000  1
  C  C12  1  0.08547000  0.07845000  0.40102000  1
  C  C13  1  0.07216000  0.06647000  0.36505000  1
  C  C14  1  0.19531000  0.45182000  0.61990000  1
  C  C15  1  0.17121000  0.38921000  0.60421000  1
  C  C16  1  0.15808000  0.30758000  0.62990000  1
  C  C17  1  0.15450000  0.61617000  0.68717000  1
  C  C18  1  0.24675000  0.67207000  0.68336000  1
  C  C19  1  0.25569000  0.80290000  0.67147000  1
  C  C20  1  0.15938000  0.74850000  0.66729000  1
  C  C21  1  0.11166000  0.65445000  0.67969000  1
  C  C22  1  0.18331000  0.29582000  0.17206000  1
  C  C23  1  0.15818000  0.30769000  0.12990000  1
  C  C24  1  0.20873000  0.35891000  0.18796000  1
  C  C25  1  0.25581000  0.80303000  0.17146000  1
  C  C26  1  0.15951000  0.74864000  0.16728000  1
  C  C27  1  0.11178000  0.65459000  0.17967000  1
  C  C28  1  0.15461000  0.61630000  0.18716000  1
  C  C29  1  0.24687000  0.67219000  0.18335000  1
  C  C30  1  0.28794000  0.63356000  0.18369000  1
  C  C31  1  0.27070000  0.51515000  0.17855000  1
  C  C32  1  0.28783000  0.63344000  0.68370000  1
  C  C33  1  0.27059000  0.51504000  0.67855000  1
  C  C34  1  0.20866000  0.35884000  0.68795000  1
  C  C35  1  0.21434000  0.43721000  0.66195000  1
  C  C36  1  0.18324000  0.29574000  0.67206000  1
  C  C37  1  0.29894000  0.76581000  0.67809000  1
  C  C38  1  0.17134000  0.38933000  0.10422000  1
  C  C39  1  0.19544000  0.45194000  0.11991000  1
  C  C40  1  0.21444000  0.43730000  0.16196000  1
  C  C41  1  0.29906000  0.76594000  0.17808000  1
  C  C42  1  0.35364000  0.18207000  0.51708000  1
  C  C43  1  0.35224000  0.12232000  0.55552000  1
  C  C44  1  0.35376000  0.18222000  0.01706000  1
  C  C45  1  0.35236000  0.12247000  0.05551000  1
  C  C46  1  0.07124000  0.00909000  0.97284000  1
  C  C47  1  0.07113000  0.00894000  0.47285000  1
  C  C48  1  0.03526000  0.00386000  0.93028000  1
  C  C49  1  0.08561000  0.07855000  0.90101000  1
  C  C50  1  0.01160000  0.97968000  0.35875000  1
  C  C51  1  0.03516000  0.00372000  0.43029000  1
  C  C52  1  0.01163000  0.97972000  0.85875000  1
  C  C53  1  0.00344000  0.96675000  0.82212000  1
  C  C54  1  0.00344000  0.96676000  0.32211000  1
  C  C55  1  0.42400000  0.11127000  0.57556000  1
  C  C56  1  0.99564000  0.98817000  0.70618000  1
  C  C57  1  0.42412000  0.11143000  0.07555000  1
  C  C58  1  0.99572000  0.98826000  0.20617000  1
  C  C59  1  0.99364000  0.96000000  0.74890000  1
  C  C60  1  0.91878000  0.93362000  0.29267000  1
  C  C61  1  0.91368000  0.92777000  0.25697000  1
  C  C62  1  0.99371000  0.96007000  0.24889000  1
  C  C63  1  0.42283000  0.22603000  0.49783000  1
  C  C64  1  0.42296000  0.22617000  0.99782000  1
  C  C65  1  0.70247000  0.30044000  0.99465000  1
  C  C66  1  0.57700000  0.27540000  0.00186000  1
  C  C67  1  0.71693000  0.42030000  0.99620000  1
  C  C68  1  0.70235000  0.30030000  0.49467000  1
  C  C69  1  0.57688000  0.27525000  0.50187000  1
  C  C70  1  0.71682000  0.42015000  0.49622000  1
  C  C71  1  0.41866000  0.65007000  0.18788000  1
  C  C72  1  0.41855000  0.64996000  0.68789000  1
  C  C73  1  0.90107000  0.73480000  0.04222000  1
  C  C74  1  0.75375000  0.86282000  0.14102000  1
  C  C75  1  0.84833000  0.11355000  0.03981000  1
  C  C76  1  0.90094000  0.73465000  0.54223000  1
  C  C77  1  0.75366000  0.86272000  0.64104000  1
  C  C78  1  0.84822000  0.11343000  0.53982000  1
  C  C79  1  0.91878000  0.93365000  0.79268000  1
  C  C80  1  0.91364000  0.92776000  0.75697000  1
  C  C81  1  0.95962000  0.90546000  0.88757000  1
  C  C82  1  0.96821000  0.91856000  0.92198000  1
  C  C83  1  0.95961000  0.90538000  0.38757000  1
  C  C84  1  0.96817000  0.91842000  0.42199000  1
  C  C85  1  0.59234000  0.80994000  0.62392000  1
  C  C86  1  0.66024000  0.79402000  0.64817000  1
  C  C87  1  0.64893000  0.73204000  0.68618000  1
  C  C88  1  0.57443000  0.69174000  0.70106000  1
  C  C89  1  0.50841000  0.71039000  0.67746000  1
  C  C90  1  0.51769000  0.76958000  0.63871000  1
  C  C91  1  0.51773000  0.76961000  0.13868000  1
  C  C92  1  0.50851000  0.71050000  0.17745000  1
  C  C93  1  0.57458000  0.69191000  0.20106000  1
  C  C94  1  0.64907000  0.73219000  0.18618000  1
  C  C95  1  0.66033000  0.79410000  0.14815000  1
  C  C96  1  0.59238000  0.80996000  0.12389000  1
  C  C97  1  0.72115000  0.13189000  0.49655000  1
  C  C98  1  0.81649000  0.17149000  0.51356000  1
  C  C99  1  0.87674000  0.26227000  0.51462000  1
  C  C100  1  0.84070000  0.30759000  0.50599000  1
  C  C101  1  0.74360000  0.26360000  0.49394000  1
  C  C102  1  0.68507000  0.17850000  0.48579000  1
  C  C103  1  0.82721000  0.51367000  0.54588000  1
  C  C104  1  0.77613000  0.50703000  0.50577000  1
  C  C105  1  0.75890000  0.57172000  0.47920000  1
  C  C106  1  0.78964000  0.64036000  0.49288000  1
  C  C107  1  0.84135000  0.64746000  0.53288000  1
  C  C108  1  0.85798000  0.58239000  0.55956000  1
  C  C109  1  0.49343000  0.15553000  0.55646000  1
  C  C110  1  0.49327000  0.21318000  0.51747000  1
  C  C111  1  0.84082000  0.30772000  0.00599000  1
  C  C112  1  0.74372000  0.26374000  0.99393000  1
  C  C113  1  0.68519000  0.17863000  0.98578000  1
  C  C114  1  0.72127000  0.13203000  0.99654000  1
  C  C115  1  0.81661000  0.17162000  0.01356000  1
  C  C116  1  0.87686000  0.26239000  0.01462000  1
  C  C117  1  0.78976000  0.64050000  0.99287000  1
  C  C118  1  0.84148000  0.64760000  0.03287000  1
  C  C119  1  0.85813000  0.58254000  0.05954000  1
  C  C120  1  0.82735000  0.51382000  0.04586000  1
  C  C121  1  0.77625000  0.50718000  0.00575000  1
  C  C122  1  0.75901000  0.57186000  0.97918000  1
  C  C123  1  0.49356000  0.15568000  0.05645000  1
  C  C124  1  0.49339000  0.21332000  0.01746000  1
  N  N1  1  0.36409000  0.56317000  0.18711000  1
  N  N2  1  0.23184000  0.55023000  0.17671000  1
  N  N3  1  0.36399000  0.56306000  0.68711000  1
  N  N4  1  0.23173000  0.55011000  0.67671000  1
  N  N5  1  0.38131000  0.68437000  0.18786000  1
  N  N6  1  0.38120000  0.68425000  0.68788000  1
  N  N7  1  0.61435000  0.24348000  0.99985000  1
  N  N8  1  0.62692000  0.36427000  0.99790000  1
  N  N9  1  0.75489000  0.38886000  0.99405000  1
  N  N10  1  0.61423000  0.24334000  0.49986000  1
  N  N11  1  0.62680000  0.36412000  0.49792000  1
  N  N12  1  0.75477000  0.38872000  0.49407000  1
  O  O1  1  0.08485000  0.13302000  0.03956000  1
  O  O2  1  0.07798000  0.77619000  0.09887000  1
  O  O3  1  0.09255000  0.82983000  0.14239000  1
  O  O4  1  0.10788000  0.18592000  0.10873000  1
  O  O5  1  0.04938000  0.92200000  0.06542000  1
  O  O6  1  0.23061000  0.97066000  0.08023000  1
  O  O7  1  0.22563000  0.08407000  0.07139000  1
  O  O8  1  0.00139000  0.06224000  0.68310000  1
  O  O9  1  0.08474000  0.13289000  0.53957000  1
  O  O10  1  0.00090000  0.94475000  0.69265000  1
  O  O11  1  0.07784000  0.77604000  0.59889000  1
  O  O12  1  0.09243000  0.82969000  0.64241000  1
  O  O13  1  0.10778000  0.18581000  0.60873000  1
  O  O14  1  0.04926000  0.92186000  0.56543000  1
  O  O15  1  0.23048000  0.97051000  0.58025000  1
  O  O16  1  0.22551000  0.08393000  0.57141000  1
  O  O17  1  0.15505000  0.01648000  0.77274000  1
  O  O18  1  0.14917000  0.16307000  0.90780000  1
  O  O19  1  0.15514000  0.01662000  0.27274000  1
  O  O20  1  0.14897000  0.16297000  0.40780000  1
  O  O21  1  0.13000000  0.98899000  0.49705000  1
  O  O22  1  0.13013000  0.98914000  0.99704000  1
  O  O23  1  0.04061000  0.02817000  0.98700000  1
  O  O24  1  0.04049000  0.02803000  0.48701000  1
  O  O25  1  0.00147000  0.06233000  0.18310000  1
  O  O26  1  0.00099000  0.94485000  0.19264000  1
  O  O27  1  0.99977000  0.19475000  0.10555000  1
  O  O28  1  0.99967000  0.19464000  0.60555000  1
  O  O29  1  0.94422000  0.01688000  0.10960000  1
  O  O30  1  0.92840000  0.81317000  0.14258000  1
  O  O31  1  0.97429000  0.96018000  0.07980000  1
  O  O32  1  0.80817000  0.93170000  0.15657000  1
  O  O33  1  0.78784000  0.84515000  0.12813000  1
  O  O34  1  0.81534000  0.05478000  0.07249000  1
  O  O35  1  0.91594000  0.12770000  0.03246000  1
  O  O36  1  0.96396000  0.80453000  0.02092000  1
  O  O37  1  0.89287000  0.74099000  0.07255000  1
  O  O38  1  0.94412000  0.01677000  0.60961000  1
  O  O39  1  0.92829000  0.81305000  0.64260000  1
  O  O40  1  0.97418000  0.96005000  0.57981000  1
  O  O41  1  0.80809000  0.93160000  0.65658000  1
  O  O42  1  0.78774000  0.84504000  0.62815000  1
  O  O43  1  0.81524000  0.05467000  0.57249000  1
  O  O44  1  0.91583000  0.12757000  0.53247000  1
  O  O45  1  0.96383000  0.80438000  0.52093000  1
  O  O46  1  0.89274000  0.74086000  0.57257000  1
  O  O47  1  0.84309000  0.91403000  0.79716000  1
  O  O48  1  0.90191000  0.81983000  0.88267000  1
  O  O49  1  0.84307000  0.91394000  0.29716000  1
  O  O50  1  0.90196000  0.81976000  0.38267000  1
  F  F1  1  0.15574000  0.40573000  0.56362000  1
  F  F2  1  0.20568000  0.52950000  0.59441000  1
  F  F3  1  0.02082000  0.60010000  0.68054000  1
  F  F4  1  0.10600000  0.52519000  0.69771000  1
  F  F5  1  0.30554000  0.89332000  0.66451000  1
  F  F6  1  0.23171000  0.34577000  0.22879000  1
  F  F7  1  0.17888000  0.22094000  0.19764000  1
  F  F8  1  0.10611000  0.52532000  0.19769000  1
  F  F9  1  0.02094000  0.60025000  0.18052000  1
  F  F10  1  0.17882000  0.22086000  0.69765000  1
  F  F11  1  0.23165000  0.34571000  0.72879000  1
  F  F12  1  0.39032000  0.82154000  0.67782000  1
  F  F13  1  0.20584000  0.52963000  0.09443000  1
  F  F14  1  0.15588000  0.40587000  0.06363000  1
  F  F15  1  0.39044000  0.82167000  0.17781000  1
  F  F16  1  0.30567000  0.89346000  0.16450000  1
  F  F17  1  0.28574000  0.19479000  0.49770000  1
  F  F18  1  0.28585000  0.19494000  0.99768000  1
  F  F19  1  0.42554000  0.05647000  0.61345000  1
  F  F20  1  0.42567000  0.05663000  0.11344000  1
  F  F21  1  0.45223000  0.78526000  0.61476000  1
  F  F22  1  0.60208000  0.86923000  0.58694000  1
  F  F23  1  0.56522000  0.63305000  0.73819000  1
  F  F24  1  0.71421000  0.71609000  0.70998000  1
  F  F25  1  0.60207000  0.86919000  0.08690000  1
  F  F26  1  0.45224000  0.78523000  0.11472000  1
  F  F27  1  0.71439000  0.71630000  0.21000000  1
  F  F28  1  0.56541000  0.63327000  0.23821000  1
  F  F29  1  0.59295000  0.13992000  0.46851000  1
  F  F30  1  0.66266000  0.04628000  0.49254000  1
  F  F31  1  0.89998000  0.39254000  0.51088000  1
  F  F32  1  0.97006000  0.30464000  0.52675000  1
  F  F33  1  0.90734000  0.58790000  0.59838000  1
  F  F34  1  0.84266000  0.45048000  0.57223000  1
  F  F35  1  0.77157000  0.70185000  0.46689000  1
  F  F36  1  0.70840000  0.56545000  0.44052000  1
  F  F37  1  0.56337000  0.14557000  0.57655000  1
  F  F38  1  0.42263000  0.28258000  0.46034000  1
  F  F39  1  0.97017000  0.30477000  0.02676000  1
  F  F40  1  0.90010000  0.39266000  0.01088000  1
  F  F41  1  0.66278000  0.04641000  0.99253000  1
  F  F42  1  0.59307000  0.14007000  0.96849000  1
  F  F43  1  0.70849000  0.56558000  0.94051000  1
  F  F44  1  0.77167000  0.70198000  0.96688000  1
  F  F45  1  0.84281000  0.45064000  0.07220000  1
  F  F46  1  0.90750000  0.58806000  0.09836000  1
  F  F47  1  0.56350000  0.14573000  0.07654000  1
  F  F48  1  0.42275000  0.28272000  0.96033000  1
