# generated using pymatgen
data_Co6C116S8Br64O21
_symmetry_space_group_name_H-M   'P 1'
_cell_length_a   29.16202000
_cell_length_b   29.83993000
_cell_length_c   17.68629000
_cell_angle_alpha   90.00577000
_cell_angle_beta   90.00125000
_cell_angle_gamma   89.96252000
_symmetry_Int_Tables_number   1
_chemical_formula_structural   Co6C116S8Br64O21
_chemical_formula_sum   'Co6 C116 S8 Br64 O21'
_cell_volume   15390.47593202
_cell_formula_units_Z   1
loop_
 _symmetry_equiv_pos_site_id
 _symmetry_equiv_pos_as_xyz
  1  'x, y, z'
loop_
 _atom_site_type_symbol
 _atom_site_label
 _atom_site_symmetry_multiplicity
 _atom_site_fract_x
 _atom_site_fract_y
 _atom_site_fract_z
 _atom_site_occupancy
  Co  Co1  1  0.95354000  0.99420000  0.92733000  1
  Co  Co2  1  0.03826000  0.04685000  0.10792000  1
  Co  Co3  1  0.95634000  0.99671000  0.11222000  1
  Co  Co4  1  0.03766000  0.04206000  0.92328000  1
  Co  Co5  1  0.99262000  0.02021000  0.76039000  1
  Co  Co6  1  0.99511000  0.03031000  0.27342000  1
  C  C1  1  0.89051000  0.01076000  0.79915000  1
  C  C2  1  0.08756000  0.99181000  0.80751000  1
  C  C3  1  0.98652000  0.93234000  0.23062000  1
  C  C4  1  0.08855000  0.99439000  0.22424000  1
  C  C5  1  0.89423000  0.02443000  0.24380000  1
  C  C6  1  0.97317000  0.92438000  0.80908000  1
  C  C7  1  0.01936000  0.11475000  0.80539000  1
  C  C8  1  0.02472000  0.12269000  0.22017000  1
  C  C9  1  0.00283000  0.50099000  0.52306000  1
  C  C10  1  0.02008000  0.41527000  0.48050000  1
  C  C11  1  0.99864000  0.41188000  0.55200000  1
  C  C12  1  0.97145000  0.62819000  0.54956000  1
  C  C13  1  0.98474000  0.62828000  0.47260000  1
  C  C14  1  0.98275000  0.54075000  0.51330000  1
  C  C15  1  0.46487000  0.91173000  0.50120000  1
  C  C16  1  0.37737000  0.89150000  0.46011000  1
  C  C17  1  0.37560000  0.90133000  0.53933000  1
  C  C18  1  0.59394000  0.92889000  0.55601000  1
  C  C19  1  0.59722000  0.92977000  0.47637000  1
  C  C20  1  0.50986000  0.90415000  0.50603000  1
  C  C21  1  0.13472000  0.97728000  0.24191000  1
  C  C22  1  0.16692000  0.00581000  0.27661000  1
  C  C23  1  0.20736000  0.98795000  0.30744000  1
  C  C24  1  0.21683000  0.94185000  0.30016000  1
  C  C25  1  0.18719000  0.91433000  0.25758000  1
  C  C26  1  0.14580000  0.93187000  0.22929000  1
  C  C27  1  0.25813000  0.92235000  0.33642000  1
  C  C28  1  0.30103000  0.92514000  0.30003000  1
  C  C29  1  0.33953000  0.90448000  0.33263000  1
  C  C30  1  0.33660000  0.88892000  0.40799000  1
  C  C31  1  0.29310000  0.87709000  0.43561000  1
  C  C32  1  0.25398000  0.89718000  0.40366000  1
  C  C33  1  0.13241000  0.97359000  0.78411000  1
  C  C34  1  0.13475000  0.93246000  0.74524000  1
  C  C35  1  0.17561000  0.91961000  0.70898000  1
  C  C36  1  0.21497000  0.94676000  0.71501000  1
  C  C37  1  0.21408000  0.98509000  0.76162000  1
  C  C38  1  0.17251000  0.99921000  0.79441000  1
  C  C39  1  0.25677000  0.93576000  0.67073000  1
  C  C40  1  0.28597000  0.90083000  0.69436000  1
  C  C41  1  0.32275000  0.88744000  0.64809000  1
  C  C42  1  0.33364000  0.91235000  0.58263000  1
  C  C43  1  0.30852000  0.95146000  0.56591000  1
  C  C44  1  0.26763000  0.96045000  0.60516000  1
  C  C45  1  0.63665000  0.94815000  0.43380000  1
  C  C46  1  0.66411000  0.91963000  0.38914000  1
  C  C47  1  0.70481000  0.93604000  0.35663000  1
  C  C48  1  0.71770000  0.98105000  0.36793000  1
  C  C49  1  0.68800000  0.01047000  0.40651000  1
  C  C50  1  0.64660000  0.99431000  0.43687000  1
  C  C51  1  0.76283000  0.99714000  0.34032000  1
  C  C52  1  0.80278000  0.98841000  0.38263000  1
  C  C53  1  0.84604000  0.99994000  0.35336000  1
  C  C54  1  0.84933000  0.02097000  0.28212000  1
  C  C55  1  0.80901000  0.03425000  0.24413000  1
  C  C56  1  0.76601000  0.02003000  0.27085000  1
  C  C57  1  0.84314000  0.00053000  0.77543000  1
  C  C58  1  0.81960000  0.96403000  0.80824000  1
  C  C59  1  0.77465000  0.95412000  0.78523000  1
  C  C60  1  0.75566000  0.97628000  0.72236000  1
  C  C61  1  0.77863000  0.01332000  0.69056000  1
  C  C62  1  0.82109000  0.02703000  0.72022000  1
  C  C63  1  0.71205000  0.96022000  0.68897000  1
  C  C64  1  0.71132000  0.92091000  0.64470000  1
  C  C65  1  0.67062000  0.90800000  0.60828000  1
  C  C66  1  0.63260000  0.93707000  0.60828000  1
  C  C67  1  0.63193000  0.97413000  0.65794000  1
  C  C68  1  0.67127000  0.98461000  0.70040000  1
  C  C69  1  0.02239000  0.37752000  0.42633000  1
  C  C70  1  0.05483000  0.34314000  0.43705000  1
  C  C71  1  0.05116000  0.30322000  0.39550000  1
  C  C72  1  0.02116000  0.30103000  0.33312000  1
  C  C73  1  0.99370000  0.33831000  0.31497000  1
  C  C74  1  0.99115000  0.37472000  0.36523000  1
  C  C75  1  0.01787000  0.25930000  0.28791000  1
  C  C76  1  0.05482000  0.24591000  0.24193000  1
  C  C77  1  0.05791000  0.20113000  0.21734000  1
  C  C78  1  0.01998000  0.17197000  0.22795000  1
  C  C79  1  0.97910000  0.18938000  0.25862000  1
  C  C80  1  0.97952000  0.23099000  0.29552000  1
  C  C81  1  0.00185000  0.37158000  0.60055000  1
  C  C82  1  0.03454000  0.36941000  0.65954000  1
  C  C83  1  0.03770000  0.33059000  0.70441000  1
  C  C84  1  0.01206000  0.29227000  0.68530000  1
  C  C85  1  0.98005000  0.29424000  0.62570000  1
  C  C86  1  0.97265000  0.33484000  0.58732000  1
  C  C87  1  0.01924000  0.24968000  0.72689000  1
  C  C88  1  0.05515000  0.22066000  0.70574000  1
  C  C89  1  0.05715000  0.17708000  0.73577000  1
  C  C90  1  0.02348000  0.16265000  0.78739000  1
  C  C91  1  0.99014000  0.19299000  0.81373000  1
  C  C92  1  0.98826000  0.23669000  0.78397000  1
  C  C93  1  0.99078000  0.88509000  0.25613000  1
  C  C94  1  0.96936000  0.85001000  0.21535000  1
  C  C95  1  0.97248000  0.80564000  0.24193000  1
  C  C96  1  0.99030000  0.79703000  0.31449000  1
  C  C97  1  0.00996000  0.83211000  0.35658000  1
  C  C98  1  0.01312000  0.87527000  0.32522000  1
  C  C99  1  0.98769000  0.75129000  0.34716000  1
  C  C100  1  0.94625000  0.73565000  0.37847000  1
  C  C101  1  0.94432000  0.69280000  0.41117000  1
  C  C102  1  0.98507000  0.66850000  0.42333000  1
  C  C103  1  0.02613000  0.68292000  0.38852000  1
  C  C104  1  0.02700000  0.72382000  0.34879000  1
  C  C105  1  0.96100000  0.87773000  0.78737000  1
  C  C106  1  0.97880000  0.84028000  0.82747000  1
  C  C107  1  0.97499000  0.79705000  0.79607000  1
  C  C108  1  0.95822000  0.79161000  0.72203000  1
  C  C109  1  0.93886000  0.82826000  0.68371000  1
  C  C110  1  0.93748000  0.87048000  0.71853000  1
  C  C111  1  0.96256000  0.74780000  0.68334000  1
  C  C112  1  0.00468000  0.73512000  0.65069000  1
  C  C113  1  0.00839000  0.69404000  0.61247000  1
  C  C114  1  0.96872000  0.66856000  0.59783000  1
  C  C115  1  0.92704000  0.68003000  0.63364000  1
  C  C116  1  0.92430000  0.71923000  0.67760000  1
  S  S1  1  0.02485000  0.47008000  0.45223000  1
  S  S2  1  0.98466000  0.46357000  0.58744000  1
  S  S3  1  0.99313000  0.57492000  0.43934000  1
  S  S4  1  0.97008000  0.57503000  0.58578000  1
  S  S5  1  0.43273000  0.89617000  0.42738000  1
  S  S6  1  0.42889000  0.91344000  0.57499000  1
  S  S7  1  0.54612000  0.91617000  0.43464000  1
  S  S8  1  0.54055000  0.91272000  0.58549000  1
  Br  Br1  1  0.20365000  0.85281000  0.23759000  1
  Br  Br2  1  0.15666000  0.06973000  0.27817000  1
  Br  Br3  1  0.38555000  0.88046000  0.26572000  1
  Br  Br4  1  0.19525000  0.89069000  0.45194000  1
  Br  Br5  1  0.10440000  0.89364000  0.17388000  1
  Br  Br6  1  0.25021000  0.02682000  0.35801000  1
  Br  Br7  1  0.30652000  0.95466000  0.20350000  1
  Br  Br8  1  0.28659000  0.82404000  0.49617000  1
  Br  Br9  1  0.26990000  0.01777000  0.78102000  1
  Br  Br10  1  0.08288000  0.89275000  0.74468000  1
  Br  Br11  1  0.35778000  0.83469000  0.67373000  1
  Br  Br12  1  0.22618000  0.00581000  0.56842000  1
  Br  Br13  1  0.17020000  0.05402000  0.85210000  1
  Br  Br14  1  0.17775000  0.86460000  0.65173000  1
  Br  Br15  1  0.27666000  0.87272000  0.79137000  1
  Br  Br16  1  0.33377000  0.99592000  0.49888000  1
  Br  Br17  1  0.70371000  0.07298000  0.41656000  1
  Br  Br18  1  0.64458000  0.85911000  0.36828000  1
  Br  Br19  1  0.90062000  0.98640000  0.41070000  1
  Br  Br20  1  0.71179000  0.02987000  0.21060000  1
  Br  Br21  1  0.60099000  0.03587000  0.47283000  1
  Br  Br22  1  0.74297000  0.89703000  0.29646000  1
  Br  Br23  1  0.79832000  0.95875000  0.47909000  1
  Br  Br24  1  0.81248000  0.07513000  0.15985000  1
  Br  Br25  1  0.75165000  0.04570000  0.60736000  1
  Br  Br26  1  0.85002000  0.92549000  0.88014000  1
  Br  Br27  1  0.66456000  0.84815000  0.56891000  1
  Br  Br28  1  0.66924000  0.03158000  0.77533000  1
  Br  Br29  1  0.84634000  0.08432000  0.69127000  1
  Br  Br30  1  0.73856000  0.91117000  0.84088000  1
  Br  Br31  1  0.76567000  0.88441000  0.63500000  1
  Br  Br32  1  0.57723000  0.00993000  0.66932000  1
  Br  Br33  1  0.96056000  0.33989000  0.22066000  1
  Br  Br34  1  0.10702000  0.35266000  0.50168000  1
  Br  Br35  1  0.11498000  0.17997000  0.17499000  1
  Br  Br36  1  0.92955000  0.24722000  0.36149000  1
  Br  Br37  1  0.94195000  0.41758000  0.35467000  1
  Br  Br38  1  0.08556000  0.25109000  0.42602000  1
  Br  Br39  1  0.10129000  0.28876000  0.21392000  1
  Br  Br40  1  0.92227000  0.15739000  0.24629000  1
  Br  Br41  1  0.94755000  0.24099000  0.59506000  1
  Br  Br42  1  0.07709000  0.41803000  0.67583000  1
  Br  Br43  1  0.10479000  0.13637000  0.70368000  1
  Br  Br44  1  0.94299000  0.27862000  0.82028000  1
  Br  Br45  1  0.92013000  0.34138000  0.52220000  1
  Br  Br46  1  0.07688000  0.32987000  0.79229000  1
  Br  Br47  1  0.10126000  0.24055000  0.63527000  1
  Br  Br48  1  0.94642000  0.17413000  0.88905000  1
  Br  Br49  1  0.03151000  0.82124000  0.45811000  1
  Br  Br50  1  0.93113000  0.86279000  0.12885000  1
  Br  Br51  1  0.88583000  0.66448000  0.42693000  1
  Br  Br52  1  0.08184000  0.74230000  0.29631000  1
  Br  Br53  1  0.05031000  0.91987000  0.37494000  1
  Br  Br54  1  0.95262000  0.75661000  0.17889000  1
  Br  Br55  1  0.89248000  0.77329000  0.37821000  1
  Br  Br56  1  0.08066000  0.64634000  0.39278000  1
  Br  Br57  1  0.91600000  0.82100000  0.58199000  1
  Br  Br58  1  0.01106000  0.84753000  0.92218000  1
  Br  Br59  1  0.06814000  0.66930000  0.59210000  1
  Br  Br60  1  0.86839000  0.73376000  0.73060000  1
  Br  Br61  1  0.90307000  0.91825000  0.67192000  1
  Br  Br62  1  0.99335000  0.74519000  0.85383000  1
  Br  Br63  1  0.05721000  0.77411000  0.65810000  1
  Br  Br64  1  0.87438000  0.64116000  0.62573000  1
  O  O1  1  0.97469000  0.96327000  0.27997000  1
  O  O2  1  0.99112000  0.03332000  0.15461000  1
  O  O3  1  0.92546000  0.96821000  0.02181000  1
  O  O4  1  0.07632000  0.05803000  0.01432000  1
  O  O5  1  0.98460000  0.03907000  0.01668000  1
  O  O6  1  0.99012000  0.94230000  0.15828000  1
  O  O7  1  0.99086000  0.95047000  0.75641000  1
  O  O8  1  0.97727000  0.93495000  0.88121000  1
  O  O9  1  0.06465000  0.01402000  0.27841000  1
  O  O10  1  0.07429000  0.99441000  0.15365000  1
  O  O11  1  0.92661000  0.04887000  0.27539000  1
  O  O12  1  0.89707000  0.01209000  0.17198000  1
  O  O13  1  0.99416000  0.08969000  0.75965000  1
  O  O14  1  0.04939000  0.09682000  0.85299000  1
  O  O15  1  0.99032000  0.02509000  0.87933000  1
  O  O16  1  0.01331000  0.09770000  0.27892000  1
  O  O17  1  0.05042000  0.10626000  0.16519000  1
  O  O18  1  0.92125000  0.02138000  0.74700000  1
  O  O19  1  0.89809000  0.01923000  0.87088000  1
  O  O20  1  0.06446000  0.01735000  0.76001000  1
  O  O21  1  0.07573000  0.99053000  0.87923000  1
