# generated using pymatgen
data_Zn4H17C24N3O14
_symmetry_space_group_name_H-M   'P 1'
_cell_length_a   36.90282000
_cell_length_b   34.95589000
_cell_length_c   13.25779000
_cell_angle_alpha   88.87252000
_cell_angle_beta   89.99936000
_cell_angle_gamma   130.27399000
_symmetry_Int_Tables_number   1
_chemical_formula_structural   Zn4H17C24N3O14
_chemical_formula_sum   'Zn32 H136 C192 N24 O112'
_cell_volume   13043.95526460
_cell_formula_units_Z   8
loop_
 _symmetry_equiv_pos_site_id
 _symmetry_equiv_pos_as_xyz
  1  'x, y, z'
loop_
 _atom_site_type_symbol
 _atom_site_label
 _atom_site_symmetry_multiplicity
 _atom_site_fract_x
 _atom_site_fract_y
 _atom_site_fract_z
 _atom_site_occupancy
  Zn  Zn1  1  0.11365000  0.31621000  0.71181000  1
  Zn  Zn2  1  0.15993000  0.85799000  0.72772000  1
  Zn  Zn3  1  0.14696000  0.31796000  0.49481000  1
  Zn  Zn4  1  0.20337000  0.86373000  0.52626000  1
  Zn  Zn5  1  0.18041000  0.34575000  0.91877000  1
  Zn  Zn6  1  0.21719000  0.89512000  0.94446000  1
  Zn  Zn7  1  0.22230000  0.36935000  0.70659000  1
  Zn  Zn8  1  0.26449000  0.89853000  0.75394000  1
  Zn  Zn9  1  0.28306000  0.18924000  0.25910000  1
  Zn  Zn10  1  0.31820000  0.15786000  0.06508000  1
  Zn  Zn11  1  0.26907000  0.66848000  0.30942000  1
  Zn  Zn12  1  0.29087000  0.63824000  0.09054000  1
  Zn  Zn13  1  0.36522000  0.18540000  0.26960000  1
  Zn  Zn14  1  0.33219000  0.63888000  0.28949000  1
  Zn  Zn15  1  0.34569000  0.23794000  0.44563000  1
  Zn  Zn16  1  0.33205000  0.69352000  0.49075000  1
  Zn  Zn17  1  0.76449000  0.39853000  0.75394000  1
  Zn  Zn18  1  0.70337000  0.36373000  0.52626000  1
  Zn  Zn19  1  0.65993000  0.35799000  0.72772000  1
  Zn  Zn20  1  0.71719000  0.39512000  0.94446000  1
  Zn  Zn21  1  0.83219000  0.13888000  0.28949000  1
  Zn  Zn22  1  0.83206000  0.19353000  0.49075000  1
  Zn  Zn23  1  0.76907000  0.16848000  0.30942000  1
  Zn  Zn24  1  0.79087000  0.13824000  0.09054000  1
  Zn  Zn25  1  0.72230000  0.86935000  0.70659000  1
  Zn  Zn26  1  0.64697000  0.81796000  0.49481000  1
  Zn  Zn27  1  0.61365000  0.81621000  0.71181000  1
  Zn  Zn28  1  0.68041000  0.84575000  0.91877000  1
  Zn  Zn29  1  0.86522000  0.68540000  0.26960000  1
  Zn  Zn30  1  0.84569000  0.73794000  0.44563000  1
  Zn  Zn31  1  0.78306000  0.68924000  0.25910000  1
  Zn  Zn32  1  0.81820000  0.65786000  0.06508000  1
  H  H1  1  0.95391000  0.13207000  0.12054000  1
  H  H2  1  0.02230000  0.73775000  0.23644000  1
  H  H3  1  0.02932000  0.32199000  0.92536000  1
  H  H4  1  0.04080000  0.82773000  0.84310000  1
  H  H5  1  0.02307000  0.20116000  0.03373000  1
  H  H6  1  0.08076000  0.79009000  0.10716000  1
  H  H7  1  0.99795000  0.16563000  0.28482000  1
  H  H8  1  0.06446000  0.88070000  0.40786000  1
  H  H9  1  0.04203000  0.18187000  0.37439000  1
  H  H10  1  0.11340000  0.14738000  0.93267000  1
  H  H11  1  0.11020000  0.87977000  0.44684000  1
  H  H12  1  0.23837000  0.72734000  0.74789000  1
  H  H13  1  0.12480000  0.18935000  0.83267000  1
  H  H14  1  0.21302000  0.75710000  0.74601000  1
  H  H15  1  0.14596000  0.27707000  0.65381000  1
  H  H16  1  0.12710000  0.42559000  0.39120000  1
  H  H17  1  0.18568000  0.81008000  0.68442000  1
  H  H18  1  0.18650000  0.96242000  0.39615000  1
  H  H19  1  0.17696000  0.15596000  0.01062000  1
  H  H20  1  0.25317000  0.70365000  0.90304000  1
  H  H21  1  0.16955000  0.51423000  0.34702000  1
  H  H22  1  0.20987000  0.04210000  0.33130000  1
  H  H23  1  0.18843000  0.40454000  0.78715000  1
  H  H24  1  0.15616000  0.46177000  0.70555000  1
  H  H25  1  0.19186000  0.30563000  0.38811000  1
  H  H26  1  0.23946000  0.94973000  0.78601000  1
  H  H27  1  0.19938000  0.00945000  0.70105000  1
  H  H28  1  0.21845000  0.80768000  0.51839000  1
  H  H29  1  0.20565000  0.24737000  0.35340000  1
  H  H30  1  0.21290000  0.73479000  0.49452000  1
  H  H31  1  0.28215000  0.11367000  0.23311000  1
  H  H32  1  0.19424000  0.54571000  0.75327000  1
  H  H33  1  0.29233000  0.31607000  0.81693000  1
  H  H34  1  0.24738000  0.58458000  0.24686000  1
  H  H35  1  0.22003000  0.08917000  0.72765000  1
  H  H36  1  0.20651000  0.78833000  0.08943000  1
  H  H37  1  0.21150000  0.59361000  0.66189000  1
  H  H38  1  0.22967000  0.12894000  0.62442000  1
  H  H39  1  0.32054000  0.28033000  0.91686000  1
  H  H40  1  0.22667000  0.74312000  0.18285000  1
  H  H41  1  0.28744000  0.42369000  0.09983000  1
  H  H42  1  0.32271000  0.96059000  0.15158000  1
  H  H43  1  0.29553000  0.48892000  0.19309000  1
  H  H44  1  0.33918000  0.03366000  0.22970000  1
  H  H45  1  0.32359000  0.40055000  0.54835000  1
  H  H46  1  0.36508000  0.89623000  0.60042000  1
  H  H47  1  0.36789000  0.50232000  0.79468000  1
  H  H48  1  0.41002000  0.02403000  0.84989000  1
  H  H49  1  0.37018000  0.26691000  0.25875000  1
  H  H50  1  0.36019000  0.58751000  0.93135000  1
  H  H51  1  0.38235000  0.56222000  0.79268000  1
  H  H52  1  0.36204000  0.33149000  0.47318000  1
  H  H53  1  0.35928000  0.73197000  0.31009000  1
  H  H54  1  0.41450000  0.12274000  0.96102000  1
  H  H55  1  0.43184000  0.08700000  0.83544000  1
  H  H56  1  0.36871000  0.79498000  0.56289000  1
  H  H57  1  0.44299000  0.16635000  0.50645000  1
  H  H58  1  0.39705000  0.62820000  0.66051000  1
  H  H59  1  0.37421000  0.38035000  0.54883000  1
  H  H60  1  0.40071000  0.85861000  0.59777000  1
  H  H61  1  0.46226000  0.28700000  0.91985000  1
  H  H62  1  0.45413000  0.78494000  0.01522000  1
  H  H63  1  0.46093000  0.20173000  0.20775000  1
  H  H64  1  0.40793000  0.63218000  0.16064000  1
  H  H65  1  0.52698000  0.20778000  0.53623000  1
  H  H66  1  0.48143000  0.67206000  0.69039000  1
  H  H67  1  0.48311000  0.30722000  0.40755000  1
  H  H68  1  0.42170000  0.63828000  0.34089000  1
  H  H69  1  0.95413000  0.28494000  0.01522000  1
  H  H70  1  0.90793000  0.13218000  0.16064000  1
  H  H71  1  0.98143000  0.17206000  0.69039000  1
  H  H72  1  0.92170000  0.13828000  0.34089000  1
  H  H73  1  0.89705000  0.12820000  0.66051000  1
  H  H74  1  0.96226000  0.78700000  0.91985000  1
  H  H75  1  0.96093000  0.70173000  0.20775000  1
  H  H76  1  0.02698000  0.70778000  0.53623000  1
  H  H77  1  0.98311000  0.80722000  0.40755000  1
  H  H78  1  0.94299000  0.66635000  0.50645000  1
  H  H79  1  0.68568000  0.31008000  0.68442000  1
  H  H80  1  0.73946000  0.44973000  0.78601000  1
  H  H81  1  0.85928000  0.23197000  0.31009000  1
  H  H82  1  0.74738000  0.08458000  0.24686000  1
  H  H83  1  0.58076000  0.29009000  0.10716000  1
  H  H84  1  0.54080000  0.32773000  0.84310000  1
  H  H85  1  0.52230000  0.23775000  0.23644000  1
  H  H86  1  0.61020000  0.37977000  0.44684000  1
  H  H87  1  0.56445000  0.38071000  0.40786000  1
  H  H88  1  0.70987000  0.54210000  0.33130000  1
  H  H89  1  0.69938000  0.50945000  0.70105000  1
  H  H90  1  0.68650000  0.46242000  0.39615000  1
  H  H91  1  0.72967000  0.62894000  0.62442000  1
  H  H92  1  0.72003000  0.58917000  0.72765000  1
  H  H93  1  0.82271000  0.46059000  0.15158000  1
  H  H94  1  0.91450000  0.62274000  0.96102000  1
  H  H95  1  0.83918000  0.53366000  0.22970000  1
  H  H96  1  0.91002000  0.52403000  0.84989000  1
  H  H97  1  0.93184000  0.58700000  0.83544000  1
  H  H98  1  0.70651000  0.28833000  0.08943000  1
  H  H99  1  0.75317000  0.20365000  0.90304000  1
  H  H100  1  0.72667000  0.24312000  0.18285000  1
  H  H101  1  0.71302000  0.25710000  0.74601000  1
  H  H102  1  0.73837000  0.22734000  0.74789000  1
  H  H103  1  0.71290000  0.23479000  0.49452000  1
  H  H104  1  0.86508000  0.39623000  0.60042000  1
  H  H105  1  0.71845000  0.30768000  0.51839000  1
  H  H106  1  0.86871000  0.29498000  0.56289000  1
  H  H107  1  0.90071000  0.35861000  0.59777000  1
  H  H108  1  0.64596000  0.77707000  0.65381000  1
  H  H109  1  0.68843000  0.90454000  0.78715000  1
  H  H110  1  0.87018000  0.76691000  0.25875000  1
  H  H111  1  0.78215000  0.61367000  0.23311000  1
  H  H112  1  0.52307000  0.70116000  0.03373000  1
  H  H113  1  0.52932000  0.82199000  0.92536000  1
  H  H114  1  0.45391000  0.63207000  0.12054000  1
  H  H115  1  0.54204000  0.68187000  0.37439000  1
  H  H116  1  0.49795000  0.66563000  0.28482000  1
  H  H117  1  0.66955000  0.01423000  0.34702000  1
  H  H118  1  0.65616000  0.96177000  0.70555000  1
  H  H119  1  0.62710000  0.92559000  0.39120000  1
  H  H120  1  0.71150000  0.09361000  0.66189000  1
  H  H121  1  0.69424000  0.04571000  0.75327000  1
  H  H122  1  0.78744000  0.92369000  0.09983000  1
  H  H123  1  0.86019000  0.08751000  0.93135000  1
  H  H124  1  0.79553000  0.98892000  0.19309000  1
  H  H125  1  0.86789000  0.00232000  0.79468000  1
  H  H126  1  0.88235000  0.06222000  0.79268000  1
  H  H127  1  0.79233000  0.81607000  0.81693000  1
  H  H128  1  0.67696000  0.65596000  0.01062000  1
  H  H129  1  0.82055000  0.78033000  0.91686000  1
  H  H130  1  0.62480000  0.68935000  0.83267000  1
  H  H131  1  0.61340000  0.64738000  0.93267000  1
  H  H132  1  0.70565000  0.74737000  0.35340000  1
  H  H133  1  0.82359000  0.90055000  0.54835000  1
  H  H134  1  0.69186000  0.80563000  0.38811000  1
  H  H135  1  0.86204000  0.83149000  0.47318000  1
  H  H136  1  0.87421000  0.88035000  0.54883000  1
  C  C1  1  0.01149000  0.28741000  0.96906000  1
  C  C2  1  0.03222000  0.81026000  0.91757000  1
  C  C3  1  0.00790000  0.21933000  0.03056000  1
  C  C4  1  0.00103000  0.18690000  0.53196000  1
  C  C5  1  0.98296000  0.17027000  0.43393000  1
  C  C6  1  0.05476000  0.78940000  0.06692000  1
  C  C7  1  0.05319000  0.78202000  0.49436000  1
  C  C8  1  0.04082000  0.81012000  0.45415000  1
  C  C9  1  0.03138000  0.26430000  0.97549000  1
  C  C10  1  0.06612000  0.81219000  0.97098000  1
  C  C11  1  0.04843000  0.23650000  0.54652000  1
  C  C12  1  0.09989000  0.80719000  0.53968000  1
  C  C13  1  0.07505000  0.28513000  0.91875000  1
  C  C14  1  0.11284000  0.83614000  0.92490000  1
  C  C15  1  0.12631000  0.38808000  0.57450000  1
  C  C16  1  0.14242000  0.45268000  0.45057000  1
  C  C17  1  0.18974000  0.93929000  0.58958000  1
  C  C18  1  0.19373000  0.98984000  0.44885000  1
  C  C19  1  0.14102000  0.43804000  0.55094000  1
  C  C20  1  0.18507000  0.20967000  0.90692000  1
  C  C21  1  0.19288000  0.98133000  0.55292000  1
  C  C22  1  0.23045000  0.74706000  0.88926000  1
  C  C23  1  0.20372000  0.28533000  0.81704000  1
  C  C24  1  0.16599000  0.50296000  0.42556000  1
  C  C25  1  0.20193000  0.19105000  0.96860000  1
  C  C26  1  0.22134000  0.81242000  0.89070000  1
  C  C27  1  0.20701000  0.03510000  0.41204000  1
  C  C28  1  0.24350000  0.72266000  0.94342000  1
  C  C29  1  0.15882000  0.47318000  0.62739000  1
  C  C30  1  0.21811000  0.25705000  0.85720000  1
  C  C31  1  0.20152000  0.01669000  0.62043000  1
  C  C32  1  0.21917000  0.77312000  0.94229000  1
  C  C33  1  0.18876000  0.53924000  0.50029000  1
  C  C34  1  0.18196000  0.52365000  0.60289000  1
  C  C35  1  0.22144000  0.07320000  0.47861000  1
  C  C36  1  0.21539000  0.06264000  0.58395000  1
  C  C37  1  0.25084000  0.21685000  0.97358000  1
  C  C38  1  0.24305000  0.72186000  0.04936000  1
  C  C39  1  0.24646000  0.39012000  0.49916000  1
  C  C40  1  0.26866000  0.19941000  0.04394000  1
  C  C41  1  0.25252000  0.12545000  0.43977000  1
  C  C42  1  0.26668000  0.28068000  0.85736000  1
  C  C43  1  0.22376000  0.31383000  0.41579000  1
  C  C44  1  0.23175000  0.28084000  0.39534000  1
  C  C45  1  0.29745000  0.90264000  0.55885000  1
  C  C46  1  0.25730000  0.69672000  0.10647000  1
  C  C47  1  0.22766000  0.59205000  0.47024000  1
  C  C48  1  0.21572000  0.76918000  0.04799000  1
  C  C49  1  0.24937000  0.81117000  0.53174000  1
  C  C50  1  0.24621000  0.76973000  0.51815000  1
  C  C51  1  0.28281000  0.26058000  0.91472000  1
  C  C52  1  0.22779000  0.74401000  0.10112000  1
  C  C53  1  0.28174000  0.42097000  0.89355000  1
  C  C54  1  0.25642000  0.35676000  0.47243000  1
  C  C55  1  0.31817000  0.95275000  0.94549000  1
  C  C56  1  0.29264000  0.85739000  0.55810000  1
  C  C57  1  0.27325000  0.29090000  0.42787000  1
  C  C58  1  0.28656000  0.77411000  0.52678000  1
  C  C59  1  0.28130000  0.25614000  0.40113000  1
  C  C60  1  0.28570000  0.73551000  0.48141000  1
  C  C61  1  0.30314000  0.45924000  0.06218000  1
  C  C62  1  0.31247000  0.46549000  0.95757000  1
  C  C63  1  0.29796000  0.36707000  0.50591000  1
  C  C64  1  0.34297000  0.99590000  0.10946000  1
  C  C65  1  0.35286000  0.99791000  0.00601000  1
  C  C66  1  0.33202000  0.86090000  0.57716000  1
  C  C67  1  0.36337000  0.11441000  0.12122000  1
  C  C68  1  0.30760000  0.49617000  0.11515000  1
  C  C69  1  0.30760000  0.33544000  0.48109000  1
  C  C70  1  0.31657000  0.57314000  0.11039000  1
  C  C71  1  0.35251000  0.03744000  0.15414000  1
  C  C72  1  0.32968000  0.81971000  0.56054000  1
  C  C73  1  0.32364000  0.54040000  0.06479000  1
  C  C74  1  0.33951000  0.51435000  0.91439000  1
  C  C75  1  0.37364000  0.08147000  0.09652000  1
  C  C76  1  0.38540000  0.04566000  0.95808000  1
  C  C77  1  0.34290000  0.55105000  0.96674000  1
  C  C78  1  0.39399000  0.08707000  0.00202000  1
  C  C79  1  0.40761000  0.21250000  0.46099000  1
  C  C80  1  0.42853000  0.24035000  0.10365000  1
  C  C81  1  0.36773000  0.63837000  0.48159000  1
  C  C82  1  0.39990000  0.69987000  0.13053000  1
  C  C83  1  0.47018000  0.20624000  0.49082000  1
  C  C84  1  0.42073000  0.63931000  0.59688000  1
  C  C85  1  0.45754000  0.23468000  0.46016000  1
  C  C86  1  0.40526000  0.63576000  0.49829000  1
  C  C87  1  0.48741000  0.28657000  0.96071000  1
  C  C88  1  0.47528000  0.26282000  0.05648000  1
  C  C89  1  0.46857000  0.76609000  0.01927000  1
  C  C90  1  0.44456000  0.72086000  0.07518000  1
  C  C91  1  0.51781000  0.22976000  0.50754000  1
  C  C92  1  0.46864000  0.66438000  0.61373000  1
  C  C93  1  0.50877000  0.26205000  0.10771000  1
  C  C94  1  0.49296000  0.28583000  0.43636000  1
  C  C95  1  0.46406000  0.69647000  0.07850000  1
  C  C96  1  0.43498000  0.64609000  0.41702000  1
  C  C97  1  0.96857000  0.26609000  0.01927000  1
  C  C98  1  0.94456000  0.22086000  0.07518000  1
  C  C99  1  0.96406000  0.19647000  0.07850000  1
  C  C100  1  0.90526000  0.13576000  0.49829000  1
  C  C101  1  0.92072000  0.13931000  0.59688000  1
  C  C102  1  0.96864000  0.16438000  0.61373000  1
  C  C103  1  0.93498000  0.14609000  0.41702000  1
  C  C104  1  0.98741000  0.78657000  0.96071000  1
  C  C105  1  0.97528000  0.76282000  0.05648000  1
  C  C106  1  0.00877000  0.76205000  0.10771000  1
  C  C107  1  0.95754000  0.73468000  0.46016000  1
  C  C108  1  0.97018000  0.70624000  0.49082000  1
  C  C109  1  0.01781000  0.72976000  0.50754000  1
  C  C110  1  0.99296000  0.78583000  0.43636000  1
  C  C111  1  0.61284000  0.33614000  0.92490000  1
  C  C112  1  0.68974000  0.43929000  0.58958000  1
  C  C113  1  0.81817000  0.45275000  0.94549000  1
  C  C114  1  0.79745000  0.40264000  0.55885000  1
  C  C115  1  0.72134000  0.31242000  0.89070000  1
  C  C116  1  0.59989000  0.30719000  0.53968000  1
  C  C117  1  0.75730000  0.19672000  0.10647000  1
  C  C118  1  0.72766000  0.09206000  0.47024000  1
  C  C119  1  0.81657000  0.07314000  0.11039000  1
  C  C120  1  0.86773000  0.13837000  0.48159000  1
  C  C121  1  0.89990000  0.19987000  0.13053000  1
  C  C122  1  0.78570000  0.23551000  0.48141000  1
  C  C123  1  0.56612000  0.31219000  0.97098000  1
  C  C124  1  0.53222000  0.31026000  0.91757000  1
  C  C125  1  0.55476000  0.28940000  0.06692000  1
  C  C126  1  0.55319000  0.28202000  0.49436000  1
  C  C127  1  0.54082000  0.31012000  0.45415000  1
  C  C128  1  0.69288000  0.48133000  0.55292000  1
  C  C129  1  0.69373000  0.48984000  0.44885000  1
  C  C130  1  0.70701000  0.53510000  0.41204000  1
  C  C131  1  0.72144000  0.57320000  0.47861000  1
  C  C132  1  0.71540000  0.56264000  0.58395000  1
  C  C133  1  0.70152000  0.51669000  0.62043000  1
  C  C134  1  0.87364000  0.58147000  0.09652000  1
  C  C135  1  0.85251000  0.53744000  0.15414000  1
  C  C136  1  0.84297000  0.49590000  0.10946000  1
  C  C137  1  0.85286000  0.49791000  0.00601000  1
  C  C138  1  0.88540000  0.54566000  0.95808000  1
  C  C139  1  0.89399000  0.58707000  0.00202000  1
  C  C140  1  0.74305000  0.22186000  0.04936000  1
  C  C141  1  0.72779000  0.24401000  0.10112000  1
  C  C142  1  0.71572000  0.26918000  0.04799000  1
  C  C143  1  0.71917000  0.27312000  0.94229000  1
  C  C144  1  0.73045000  0.24706000  0.88926000  1
  C  C145  1  0.74350000  0.22266000  0.94342000  1
  C  C146  1  0.79264000  0.35739000  0.55810000  1
  C  C147  1  0.74937000  0.31117000  0.53174000  1
  C  C148  1  0.74621000  0.26973000  0.51815000  1
  C  C149  1  0.78656000  0.27411000  0.52678000  1
  C  C150  1  0.82968000  0.31970000  0.56054000  1
  C  C151  1  0.83202000  0.36090000  0.57716000  1
  C  C152  1  0.57505000  0.78513000  0.91875000  1
  C  C153  1  0.62631000  0.88808000  0.57450000  1
  C  C154  1  0.78174000  0.92097000  0.89355000  1
  C  C155  1  0.74646000  0.89012000  0.49916000  1
  C  C156  1  0.70372000  0.78533000  0.81704000  1
  C  C157  1  0.54843000  0.73650000  0.54652000  1
  C  C158  1  0.76866000  0.69941000  0.04394000  1
  C  C159  1  0.75252000  0.62545000  0.43977000  1
  C  C160  1  0.86338000  0.61441000  0.12122000  1
  C  C161  1  0.90761000  0.71250000  0.46099000  1
  C  C162  1  0.92853000  0.74035000  0.10365000  1
  C  C163  1  0.78130000  0.75613000  0.40113000  1
  C  C164  1  0.53138000  0.76430000  0.97549000  1
  C  C165  1  0.51149000  0.78741000  0.96906000  1
  C  C166  1  0.50790000  0.71933000  0.03056000  1
  C  C167  1  0.50103000  0.68690000  0.53196000  1
  C  C168  1  0.48296000  0.67027000  0.43393000  1
  C  C169  1  0.64102000  0.93804000  0.55094000  1
  C  C170  1  0.64242000  0.95268000  0.45057000  1
  C  C171  1  0.66599000  0.00296000  0.42556000  1
  C  C172  1  0.68876000  0.03924000  0.50029000  1
  C  C173  1  0.68196000  0.02365000  0.60289000  1
  C  C174  1  0.65882000  0.97318000  0.62739000  1
  C  C175  1  0.82364000  0.04040000  0.06479000  1
  C  C176  1  0.80760000  0.99617000  0.11515000  1
  C  C177  1  0.80314000  0.95924000  0.06218000  1
  C  C178  1  0.81247000  0.96549000  0.95757000  1
  C  C179  1  0.83951000  0.01435000  0.91439000  1
  C  C180  1  0.84290000  0.05105000  0.96674000  1
  C  C181  1  0.75084000  0.71685000  0.97358000  1
  C  C182  1  0.78281000  0.76058000  0.91472000  1
  C  C183  1  0.76668000  0.78068000  0.85736000  1
  C  C184  1  0.71811000  0.75705000  0.85720000  1
  C  C185  1  0.68507000  0.70967000  0.90692000  1
  C  C186  1  0.70193000  0.69105000  0.96860000  1
  C  C187  1  0.75642000  0.85676000  0.47243000  1
  C  C188  1  0.72376000  0.81383000  0.41579000  1
  C  C189  1  0.73175000  0.78084000  0.39534000  1
  C  C190  1  0.77324000  0.79090000  0.42787000  1
  C  C191  1  0.80759000  0.83544000  0.48109000  1
  C  C192  1  0.79796000  0.86707000  0.50591000  1
  N  N1  1  0.01036000  0.17453000  0.35857000  1
  N  N2  1  0.07428000  0.86039000  0.43549000  1
  N  N3  1  0.13767000  0.18084000  0.89123000  1
  N  N4  1  0.22778000  0.74444000  0.78700000  1
  N  N5  1  0.19763000  0.55692000  0.67777000  1
  N  N6  1  0.22285000  0.09633000  0.64989000  1
  N  N7  1  0.36401000  0.52666000  0.82630000  1
  N  N8  1  0.35049000  0.34922000  0.50429000  1
  N  N9  1  0.40982000  0.05222000  0.87358000  1
  N  N10  1  0.36905000  0.82464000  0.57431000  1
  N  N11  1  0.49625000  0.23291000  0.19207000  1
  N  N12  1  0.44016000  0.65043000  0.12331000  1
  N  N13  1  0.94016000  0.15043000  0.12331000  1
  N  N14  1  0.99624000  0.73291000  0.19207000  1
  N  N15  1  0.57428000  0.36039000  0.43549000  1
  N  N16  1  0.72285000  0.59633000  0.64989000  1
  N  N17  1  0.90983000  0.55222000  0.87358000  1
  N  N18  1  0.72778000  0.24444000  0.78700000  1
  N  N19  1  0.86905000  0.32464000  0.57431000  1
  N  N20  1  0.51036000  0.67453000  0.35857000  1
  N  N21  1  0.69763000  0.05692000  0.67777000  1
  N  N22  1  0.86401000  0.02666000  0.82630000  1
  N  N23  1  0.63767000  0.68084000  0.89123000  1
  N  N24  1  0.85048000  0.84922000  0.50429000  1
  O  O1  1  0.05313000  0.26481000  0.61886000  1
  O  O2  1  0.10225000  0.80177000  0.63718000  1
  O  O3  1  0.07080000  0.27189000  0.82445000  1
  O  O4  1  0.11485000  0.81785000  0.84142000  1
  O  O5  1  0.08148000  0.25616000  0.47559000  1
  O  O6  1  0.13864000  0.83496000  0.48260000  1
  O  O7  1  0.11289000  0.30070000  0.97029000  1
  O  O8  1  0.15111000  0.86717000  0.97900000  1
  O  O9  1  0.11358000  0.36957000  0.66721000  1
  O  O10  1  0.12202000  0.36062000  0.50090000  1
  O  O11  1  0.15899000  0.90862000  0.66150000  1
  O  O12  1  0.21996000  0.93463000  0.55416000  1
  O  O13  1  0.15622000  0.31078000  0.64006000  1
  O  O14  1  0.16903000  0.28066000  0.86187000  1
  O  O15  1  0.20068000  0.84568000  0.67296000  1
  O  O16  1  0.19186000  0.81972000  0.91829000  1
  O  O17  1  0.17790000  0.37034000  0.78551000  1
  O  O18  1  0.22462000  0.91429000  0.79933000  1
  O  O19  1  0.23158000  0.32192000  0.75016000  1
  O  O20  1  0.25780000  0.84521000  0.83047000  1
  O  O21  1  0.21009000  0.38243000  0.45755000  1
  O  O22  1  0.27221000  0.90564000  0.49518000  1
  O  O23  1  0.24758000  0.37737000  0.93698000  1
  O  O24  1  0.23855000  0.13785000  0.36386000  1
  O  O25  1  0.25002000  0.18401000  0.13566000  1
  O  O26  1  0.27798000  0.91437000  0.98845000  1
  O  O27  1  0.21981000  0.61506000  0.40572000  1
  O  O28  1  0.24075000  0.68005000  0.19933000  1
  O  O29  1  0.26017000  0.41127000  0.58744000  1
  O  O30  1  0.31080000  0.92788000  0.64235000  1
  O  O31  1  0.28114000  0.42684000  0.79524000  1
  O  O32  1  0.30362000  0.14939000  0.21101000  1
  O  O33  1  0.30500000  0.20269000  0.01645000  1
  O  O34  1  0.32253000  0.95508000  0.84647000  1
  O  O35  1  0.27455000  0.62071000  0.23507000  1
  O  O36  1  0.28776000  0.69331000  0.06545000  1
  O  O37  1  0.34348000  0.12290000  0.05126000  1
  O  O38  1  0.27328000  0.23974000  0.30870000  1
  O  O39  1  0.30615000  0.59571000  0.05091000  1
  O  O40  1  0.27472000  0.72510000  0.38596000  1
  O  O41  1  0.29637000  0.15723000  0.47212000  1
  O  O42  1  0.27091000  0.61391000  0.50075000  1
  O  O43  1  0.29372000  0.23946000  0.47072000  1
  O  O44  1  0.29195000  0.70896000  0.53782000  1
  O  O45  1  0.37068000  0.13145000  0.21424000  1
  O  O46  1  0.32087000  0.57942000  0.20938000  1
  O  O47  1  0.35079000  0.23433000  0.29624000  1
  O  O48  1  0.33493000  0.69801000  0.34039000  1
  O  O49  1  0.37707000  0.17361000  0.40505000  1
  O  O50  1  0.39284000  0.22706000  0.04743000  1
  O  O51  1  0.33504000  0.60978000  0.41404000  1
  O  O52  1  0.36821000  0.70094000  0.08878000  1
  O  O53  1  0.39641000  0.23818000  0.49957000  1
  O  O54  1  0.42458000  0.23937000  0.20145000  1
  O  O55  1  0.37194000  0.67514000  0.52240000  1
  O  O56  1  0.39499000  0.68638000  0.22538000  1
  O  O57  1  0.77798000  0.41436000  0.98845000  1
  O  O58  1  0.82253000  0.45508000  0.84647000  1
  O  O59  1  0.70068000  0.34568000  0.67296000  1
  O  O60  1  0.77221000  0.40564000  0.49518000  1
  O  O61  1  0.75780000  0.34521000  0.83047000  1
  O  O62  1  0.81080000  0.42788000  0.64235000  1
  O  O63  1  0.69185000  0.31972000  0.91829000  1
  O  O64  1  0.63864000  0.33496000  0.48260000  1
  O  O65  1  0.60225000  0.30177000  0.63718000  1
  O  O66  1  0.72462000  0.41429000  0.79933000  1
  O  O67  1  0.65111000  0.36717000  0.97900000  1
  O  O68  1  0.65899000  0.40862000  0.66150000  1
  O  O69  1  0.61485000  0.31785000  0.84142000  1
  O  O70  1  0.71996000  0.43463000  0.55416000  1
  O  O71  1  0.80615000  0.09571000  0.05091000  1
  O  O72  1  0.82087000  0.07942000  0.20938000  1
  O  O73  1  0.83493000  0.19801000  0.34039000  1
  O  O74  1  0.87194000  0.17514000  0.52240000  1
  O  O75  1  0.89499000  0.18638000  0.22538000  1
  O  O76  1  0.83504000  0.10978000  0.41404000  1
  O  O77  1  0.86821000  0.20094000  0.08878000  1
  O  O78  1  0.79195000  0.20896000  0.53782000  1
  O  O79  1  0.77472000  0.22510000  0.38596000  1
  O  O80  1  0.77455000  0.12071000  0.23507000  1
  O  O81  1  0.78776000  0.19330000  0.06545000  1
  O  O82  1  0.71981000  0.11506000  0.40572000  1
  O  O83  1  0.74075000  0.18005000  0.19933000  1
  O  O84  1  0.77091000  0.11391000  0.50075000  1
  O  O85  1  0.74758000  0.87737000  0.93698000  1
  O  O86  1  0.78114000  0.92684000  0.79524000  1
  O  O87  1  0.65622000  0.81078000  0.64006000  1
  O  O88  1  0.71009000  0.88243000  0.45755000  1
  O  O89  1  0.73158000  0.82192000  0.75016000  1
  O  O90  1  0.76017000  0.91127000  0.58744000  1
  O  O91  1  0.66903000  0.78066000  0.86187000  1
  O  O92  1  0.58147000  0.75616000  0.47559000  1
  O  O93  1  0.55313000  0.76481000  0.61886000  1
  O  O94  1  0.67790000  0.87035000  0.78551000  1
  O  O95  1  0.61289000  0.80070000  0.97029000  1
  O  O96  1  0.61358000  0.86957000  0.66721000  1
  O  O97  1  0.57080000  0.77189000  0.82445000  1
  O  O98  1  0.62202000  0.86062000  0.50090000  1
  O  O99  1  0.84348000  0.62290000  0.05126000  1
  O  O100  1  0.87068000  0.63145000  0.21424000  1
  O  O101  1  0.85079000  0.73433000  0.29624000  1
  O  O102  1  0.89641000  0.73818000  0.49957000  1
  O  O103  1  0.92458000  0.73937000  0.20145000  1
  O  O104  1  0.87707000  0.67361000  0.40505000  1
  O  O105  1  0.89284000  0.72706000  0.04743000  1
  O  O106  1  0.79372000  0.73946000  0.47072000  1
  O  O107  1  0.77328000  0.73974000  0.30870000  1
  O  O108  1  0.80362000  0.64939000  0.21101000  1
  O  O109  1  0.80500000  0.70269000  0.01645000  1
  O  O110  1  0.73855000  0.63785000  0.36386000  1
  O  O111  1  0.75002000  0.68401000  0.13566000  1
  O  O112  1  0.79637000  0.65723000  0.47212000  1
