# generated using pymatgen
data_Co6H8C84(N10O7)3
_symmetry_space_group_name_H-M   'P 1'
_cell_length_a   20.67058000
_cell_length_b   21.31195000
_cell_length_c   40.71955000
_cell_angle_alpha   60.77678000
_cell_angle_beta   118.97939000
_cell_angle_gamma   133.28192000
_symmetry_Int_Tables_number   1
_chemical_formula_structural   Co6H8C84(N10O7)3
_chemical_formula_sum   'Co12 H16 C168 N60 O42'
_cell_volume   11075.50573745
_cell_formula_units_Z   2
loop_
 _symmetry_equiv_pos_site_id
 _symmetry_equiv_pos_as_xyz
  1  'x, y, z'
loop_
 _atom_site_type_symbol
 _atom_site_label
 _atom_site_symmetry_multiplicity
 _atom_site_fract_x
 _atom_site_fract_y
 _atom_site_fract_z
 _atom_site_occupancy
  Co  Co1  1  0.01510000  0.10305000  0.57367000  1
  Co  Co2  1  0.02802000  0.86174000  0.10339000  1
  Co  Co3  1  0.04598000  0.01399000  0.03604000  1
  Co  Co4  1  0.97375000  0.05496000  0.07517000  1
  Co  Co5  1  0.11204000  0.91328000  0.03600000  1
  Co  Co6  1  0.06488000  0.03842000  0.53419000  1
  Co  Co7  1  0.09814000  0.90409000  0.53840000  1
  Co  Co8  1  0.95293000  0.90214000  0.14277000  1
  Co  Co9  1  0.90333000  0.02014000  0.14248000  1
  Co  Co10  1  0.99423000  0.86575000  0.59208000  1
  Co  Co11  1  0.93642000  0.92717000  0.62879000  1
  Co  Co12  1  0.94616000  0.07740000  0.63811000  1
  H  H1  1  0.02417000  0.06374000  0.40632000  1
  H  H2  1  0.04222000  0.05477000  0.74853000  1
  H  H3  1  0.02328000  0.89974000  0.27015000  1
  H  H4  1  0.00058000  0.03258000  0.90648000  1
  H  H5  1  0.84725000  0.80772000  0.85680000  1
  H  H6  1  0.88022000  0.83606000  0.79831000  1
  H  H7  1  0.13966000  0.08323000  0.82101000  1
  H  H8  1  0.10694000  0.05468000  0.87964000  1
  H  H9  1  0.99663000  0.87144000  0.76746000  1
  H  H10  1  0.92550000  0.83749000  0.92626000  1
  H  H11  1  0.86864000  0.84614000  0.35224000  1
  H  H12  1  0.90496000  0.87487000  0.29471000  1
  H  H13  1  0.16867000  0.11524000  0.32159000  1
  H  H14  1  0.13267000  0.08638000  0.37936000  1
  H  H15  1  0.08084000  0.08934000  0.24888000  1
  H  H16  1  0.94769000  0.86902000  0.42324000  1
  C  C1  1  0.02101000  0.64926000  0.63929000  1
  C  C2  1  0.02447000  0.98891000  0.76603000  1
  C  C3  1  0.01339000  0.96077000  0.80575000  1
  C  C4  1  0.00142000  0.99638000  0.42325000  1
  C  C5  1  0.00331000  0.97082000  0.46503000  1
  C  C6  1  0.02916000  0.98489000  0.20949000  1
  C  C7  1  0.00469000  0.93345000  0.74968000  1
  C  C8  1  0.03894000  0.96441000  0.25181000  1
  C  C9  1  0.04074000  0.99543000  0.30461000  1
  C  C10  1  0.99677000  0.96547000  0.36946000  1
  C  C11  1  0.97974000  0.93853000  0.40768000  1
  C  C12  1  0.97990000  0.96630000  0.92447000  1
  C  C13  1  0.97713000  0.94985000  0.70662000  1
  C  C14  1  0.70014000  0.24626000  0.04281000  1
  C  C15  1  0.75262000  0.36817000  0.05984000  1
  C  C16  1  0.59519000  0.26018000  0.04173000  1
  C  C17  1  0.70380000  0.30847000  0.49825000  1
  C  C18  1  0.71198000  0.42469000  0.49824000  1
  C  C19  1  0.56966000  0.28939000  0.48888000  1
  C  C20  1  0.29739000  0.65181000  0.15254000  1
  C  C21  1  0.41354000  0.64227000  0.16273000  1
  C  C22  1  0.25957000  0.52038000  0.15076000  1
  C  C23  1  0.28282000  0.66795000  0.64660000  1
  C  C24  1  0.40352000  0.70276000  0.63242000  1
  C  C25  1  0.27391000  0.55535000  0.64262000  1
  C  C26  1  0.97217000  0.72514000  0.07186000  1
  C  C27  1  0.22538000  0.10793000  0.02335000  1
  C  C28  1  0.05336000  0.19888000  0.10827000  1
  C  C29  1  0.78256000  0.82235000  0.16182000  1
  C  C30  1  0.20642000  0.88968000  0.11682000  1
  C  C31  1  0.98700000  0.94547000  0.96647000  1
  C  C32  1  0.80284000  0.04088000  0.06143000  1
  C  C33  1  0.92354000  0.73660000  0.55260000  1
  C  C34  1  0.23931000  0.10097000  0.52583000  1
  C  C35  1  0.13397000  0.22372000  0.63080000  1
  C  C36  1  0.76785000  0.90782000  0.61939000  1
  C  C37  1  0.15387000  0.84955000  0.62340000  1
  C  C38  1  0.90768000  0.16535000  0.55756000  1
  C  C39  1  0.97303000  0.93070000  0.87178000  1
  C  C40  1  0.91092000  0.86825000  0.84903000  1
  C  C41  1  0.93068000  0.88328000  0.81622000  1
  C  C42  1  0.07626000  0.02243000  0.82893000  1
  C  C43  1  0.05657000  0.00736000  0.86177000  1
  C  C44  1  0.95710000  0.90638000  0.90989000  1
  C  C45  1  0.93399000  0.90533000  0.34558000  1
  C  C46  1  0.95557000  0.92034000  0.31339000  1
  C  C47  1  0.10354000  0.05586000  0.32839000  1
  C  C48  1  0.08211000  0.04067000  0.36074000  1
  C  C49  1  0.05668000  0.02185000  0.26622000  1
  C  C50  1  0.18211000  0.31535000  0.63238000  1
  C  C51  1  0.23000000  0.33684000  0.66868000  1
  C  C52  1  0.24723000  0.40850000  0.67372000  1
  C  C53  1  0.22272000  0.46302000  0.64191000  1
  C  C54  1  0.17358000  0.44066000  0.60593000  1
  C  C55  1  0.16025000  0.37195000  0.60031000  1
  C  C56  1  0.26294000  0.28608000  0.70064000  1
  C  C57  1  0.13937000  0.49058000  0.57425000  1
  C  C58  1  0.12820000  0.36239000  0.56141000  1
  C  C59  1  0.29229000  0.42768000  0.71149000  1
  C  C60  1  0.49937000  0.76454000  0.63011000  1
  C  C61  1  0.52138000  0.81839000  0.59387000  1
  C  C62  1  0.60716000  0.85909000  0.58934000  1
  C  C63  1  0.67182000  0.84753000  0.62132000  1
  C  C64  1  0.64931000  0.79307000  0.65744000  1
  C  C65  1  0.56486000  0.75501000  0.66223000  1
  C  C66  1  0.45533000  0.83119000  0.56121000  1
  C  C67  1  0.71330000  0.77649000  0.68972000  1
  C  C68  1  0.54477000  0.70546000  0.70022000  1
  C  C69  1  0.62948000  0.91360000  0.55187000  1
  C  C70  1  0.17880000  0.78647000  0.64570000  1
  C  C71  1  0.11618000  0.69991000  0.64019000  1
  C  C72  1  0.14826000  0.65944000  0.63988000  1
  C  C73  1  0.24312000  0.69749000  0.65339000  1
  C  C74  1  0.30182000  0.77108000  0.66990000  1
  C  C75  1  0.27050000  0.81811000  0.66434000  1
  C  C76  1  0.39205000  0.79554000  0.69386000  1
  C  C77  1  0.33031000  0.89469000  0.68016000  1
  C  C78  1  0.08459000  0.58243000  0.62390000  1
  C  C79  1  0.12191000  0.28788000  0.11665000  1
  C  C80  1  0.11892000  0.35972000  0.08913000  1
  C  C81  1  0.15114000  0.43079000  0.10121000  1
  C  C82  1  0.19241000  0.43332000  0.14059000  1
  C  C83  1  0.19472000  0.36089000  0.16787000  1
  C  C84  1  0.16865000  0.29380000  0.15528000  1
  C  C85  1  0.09100000  0.36467000  0.04828000  1
  C  C86  1  0.22663000  0.35698000  0.20886000  1
  C  C87  1  0.19789000  0.23666000  0.18097000  1
  C  C88  1  0.14404000  0.50240000  0.07299000  1
  C  C89  1  0.68513000  0.75653000  0.16382000  1
  C  C90  1  0.66280000  0.72887000  0.19845000  1
  C  C91  1  0.57660000  0.69965000  0.19736000  1
  C  C92  1  0.50840000  0.68698000  0.16252000  1
  C  C93  1  0.52628000  0.70083000  0.12925000  1
  C  C94  1  0.61540000  0.73859000  0.12950000  1
  C  C95  1  0.72754000  0.72782000  0.23523000  1
  C  C96  1  0.45246000  0.67400000  0.09517000  1
  C  C97  1  0.63565000  0.76085000  0.09428000  1
  C  C98  1  0.55762000  0.68110000  0.23221000  1
  C  C99  1  0.26945000  0.70893000  0.14327000  1
  C  C100  1  0.29590000  0.78541000  0.11250000  1
  C  C101  1  0.28960000  0.85068000  0.10860000  1
  C  C102  1  0.23832000  0.83207000  0.13023000  1
  C  C103  1  0.20897000  0.75326000  0.16079000  1
  C  C104  1  0.22503000  0.69224000  0.16729000  1
  C  C105  1  0.32846000  0.79656000  0.08415000  1
  C  C106  1  0.16915000  0.73775000  0.18736000  1
  C  C107  1  0.19580000  0.61262000  0.19863000  1
  C  C108  1  0.33902000  0.93777000  0.08335000  1
  C  C109  1  0.83410000  0.17924000  0.54067000  1
  C  C110  1  0.80838000  0.21128000  0.50026000  1
  C  C111  1  0.76307000  0.25151000  0.48601000  1
  C  C112  1  0.75000000  0.26576000  0.51218000  1
  C  C113  1  0.77790000  0.23606000  0.55210000  1
  C  C114  1  0.80866000  0.18384000  0.56596000  1
  C  C115  1  0.82913000  0.20425000  0.47348000  1
  C  C116  1  0.77921000  0.26291000  0.57919000  1
  C  C117  1  0.81768000  0.13825000  0.60668000  1
  C  C118  1  0.73264000  0.28028000  0.44469000  1
  C  C119  1  0.85803000  0.66261000  0.53275000  1
  C  C120  1  0.78225000  0.58198000  0.54774000  1
  C  C121  1  0.74080000  0.50261000  0.53947000  1
  C  C122  1  0.76441000  0.50587000  0.51099000  1
  C  C123  1  0.83170000  0.58794000  0.49228000  1
  C  C124  1  0.88425000  0.66417000  0.50550000  1
  C  C125  1  0.74954000  0.57960000  0.57308000  1
  C  C126  1  0.84808000  0.59409000  0.45960000  1
  C  C127  1  0.97097000  0.73934000  0.49487000  1
  C  C128  1  0.67802000  0.41756000  0.56178000  1
  C  C129  1  0.47801000  0.22919000  0.49626000  1
  C  C130  1  0.41134000  0.24354000  0.46890000  1
  C  C131  1  0.34065000  0.21768000  0.48074000  1
  C  C132  1  0.33174000  0.17050000  0.51923000  1
  C  C133  1  0.40200000  0.16268000  0.54682000  1
  C  C134  1  0.46848000  0.18215000  0.53471000  1
  C  C135  1  0.41590000  0.28520000  0.42860000  1
  C  C136  1  0.40403000  0.13201000  0.58758000  1
  C  C137  1  0.52472000  0.15112000  0.56134000  1
  C  C138  1  0.27362000  0.23471000  0.45288000  1
  C  C139  1  0.71850000  0.19075000  0.04137000  1
  C  C140  1  0.66610000  0.09782000  0.05739000  1
  C  C141  1  0.67777000  0.04493000  0.05292000  1
  C  C142  1  0.75542000  0.08471000  0.04165000  1
  C  C143  1  0.80112000  0.17499000  0.02156000  1
  C  C144  1  0.78504000  0.22912000  0.02242000  1
  C  C145  1  0.60841000  0.05806000  0.08214000  1
  C  C146  1  0.85221000  0.20801000  0.99532000  1
  C  C147  1  0.83758000  0.32343000  0.00440000  1
  C  C148  1  0.60715000  0.95057000  0.05732000  1
  C  C149  1  0.82614000  0.45862000  0.06581000  1
  C  C150  1  0.85640000  0.53070000  0.03358000  1
  C  C151  1  0.90790000  0.61786000  0.03635000  1
  C  C152  1  0.91803000  0.63272000  0.06941000  1
  C  C153  1  0.89029000  0.56090000  0.10220000  1
  C  C154  1  0.84757000  0.47455000  0.10077000  1
  C  C155  1  0.82814000  0.51473000  0.99655000  1
  C  C156  1  0.90851000  0.57607000  0.13775000  1
  C  C157  1  0.82360000  0.40152000  0.13498000  1
  C  C158  1  0.95625000  0.69190000  0.00658000  1
  C  C159  1  0.50067000  0.22487000  0.03688000  1
  C  C160  1  0.47025000  0.19363000  0.06971000  1
  C  C161  1  0.38395000  0.16931000  0.06507000  1
  C  C162  1  0.32557000  0.17075000  0.02780000  1
  C  C163  1  0.36052000  0.21213000  0.99504000  1
  C  C164  1  0.44692000  0.23687000  0.99950000  1
  C  C165  1  0.52607000  0.18276000  0.10826000  1
  C  C166  1  0.30636000  0.22720000  0.95670000  1
  C  C167  1  0.48072000  0.27507000  0.96568000  1
  C  C168  1  0.35460000  0.14110000  0.09867000  1
  N  N1  1  0.03343000  0.52096000  0.61108000  1
  N  N2  1  0.04047000  0.79806000  0.48646000  1
  N  N3  1  0.99547000  0.75033000  0.98290000  1
  N  N4  1  0.06974000  0.36964000  0.01557000  1
  N  N5  1  0.82481000  0.10307000  0.63934000  1
  N  N6  1  0.89219000  0.23379000  0.97408000  1
  N  N7  1  0.77053000  0.32294000  0.05489000  1
  N  N8  1  0.66529000  0.33575000  0.05383000  1
  N  N9  1  0.61224000  0.21608000  0.03543000  1
  N  N10  1  0.75441000  0.39227000  0.50219000  1
  N  N11  1  0.61996000  0.37564000  0.48826000  1
  N  N12  1  0.61114000  0.25623000  0.49262000  1
  N  N13  1  0.38785000  0.68947000  0.15968000  1
  N  N14  1  0.34952000  0.55714000  0.15990000  1
  N  N15  1  0.23287000  0.56753000  0.14708000  1
  N  N16  1  0.36590000  0.72906000  0.63765000  1
  N  N17  1  0.35668000  0.61655000  0.63415000  1
  N  N18  1  0.23743000  0.58031000  0.64981000  1
  N  N19  1  0.10274000  0.35507000  0.53031000  1
  N  N20  1  0.32827000  0.44307000  0.74161000  1
  N  N21  1  0.11208000  0.53044000  0.54900000  1
  N  N22  1  0.28915000  0.24553000  0.72615000  1
  N  N23  1  0.52863000  0.66592000  0.73049000  1
  N  N24  1  0.64741000  0.95720000  0.52202000  1
  N  N25  1  0.76414000  0.76303000  0.71551000  1
  N  N26  1  0.40259000  0.84135000  0.53516000  1
  N  N27  1  0.37811000  0.95552000  0.69306000  1
  N  N28  1  0.46406000  0.81503000  0.71298000  1
  N  N29  1  0.94498000  0.60839000  0.63882000  1
  N  N30  1  0.22213000  0.19168000  0.20153000  1
  N  N31  1  0.13841000  0.55959000  0.05048000  1
  N  N32  1  0.25211000  0.35387000  0.24159000  1
  N  N33  1  0.65182000  0.77872000  0.06615000  1
  N  N34  1  0.54241000  0.66628000  0.26001000  1
  N  N35  1  0.39347000  0.65247000  0.06805000  1
  N  N36  1  0.77913000  0.72668000  0.26459000  1
  N  N37  1  0.17243000  0.54899000  0.22364000  1
  N  N38  1  0.37819000  0.00672000  0.06284000  1
  N  N39  1  0.13748000  0.72517000  0.20871000  1
  N  N40  1  0.35428000  0.80533000  0.06154000  1
  N  N41  1  0.70831000  0.30330000  0.41169000  1
  N  N42  1  0.78058000  0.28464000  0.60073000  1
  N  N43  1  0.84569000  0.19867000  0.45206000  1
  N  N44  1  0.62807000  0.34982000  0.57967000  1
  N  N45  1  0.86111000  0.59899000  0.43354000  1
  N  N46  1  0.72340000  0.57763000  0.59331000  1
  N  N47  1  0.56894000  0.12555000  0.58271000  1
  N  N48  1  0.22002000  0.24815000  0.43064000  1
  N  N49  1  0.40573000  0.10787000  0.62014000  1
  N  N50  1  0.41955000  0.31844000  0.39643000  1
  N  N51  1  0.88018000  0.39876000  0.99003000  1
  N  N52  1  0.55008000  0.87521000  0.06051000  1
  N  N53  1  0.56272000  0.02622000  0.10208000  1
  N  N54  1  0.80445000  0.34320000  0.16227000  1
  N  N55  1  0.92292000  0.58805000  0.16612000  1
  N  N56  1  0.80522000  0.50223000  0.96691000  1
  N  N57  1  0.50778000  0.30557000  0.93874000  1
  N  N58  1  0.33123000  0.11854000  0.12551000  1
  N  N59  1  0.26304000  0.23911000  0.92612000  1
  N  N60  1  0.57061000  0.17404000  0.13899000  1
  O  O1  1  0.03259000  0.94087000  0.19623000  1
  O  O2  1  0.02593000  0.99277000  0.58917000  1
  O  O3  1  0.01881000  0.09566000  0.02919000  1
  O  O4  1  0.00991000  0.77181000  0.56180000  1
  O  O5  1  0.01961000  0.04864000  0.18574000  1
  O  O6  1  0.99980000  0.89908000  0.48769000  1
  O  O7  1  0.99896000  0.01456000  0.47799000  1
  O  O8  1  0.05294000  0.92700000  0.05947000  1
  O  O9  1  0.05529000  0.78147000  0.06649000  1
  O  O10  1  0.96996000  0.15210000  0.11151000  1
  O  O11  1  0.05463000  0.94159000  0.55785000  1
  O  O12  1  0.98834000  0.99430000  0.97900000  1
  O  O13  1  0.21887000  0.94814000  0.08357000  1
  O  O14  1  0.99182000  0.92421000  0.68854000  1
  O  O15  1  0.94278000  0.98781000  0.11762000  1
  O  O16  1  0.98218000  0.82139000  0.14946000  1
  O  O17  1  0.97208000  0.94007000  0.08371000  1
  O  O18  1  0.15107000  0.87018000  0.13373000  1
  O  O19  1  0.07524000  0.16659000  0.09785000  1
  O  O20  1  0.83450000  0.89129000  0.17607000  1
  O  O21  1  0.81759000  0.80978000  0.14760000  1
  O  O22  1  0.99825000  0.88288000  0.99094000  1
  O  O23  1  0.79216000  0.98768000  0.09611000  1
  O  O24  1  0.85899000  0.05946000  0.04532000  1
  O  O25  1  0.94256000  0.74611000  0.08476000  1
  O  O26  1  0.17837000  0.04564000  0.00566000  1
  O  O27  1  0.18565000  0.10511000  0.04188000  1
  O  O28  1  0.92447000  0.97612000  0.68771000  1
  O  O29  1  0.97513000  0.03472000  0.61392000  1
  O  O30  1  0.92210000  0.82287000  0.62813000  1
  O  O31  1  0.05519000  0.13347000  0.52778000  1
  O  O32  1  0.18694000  0.91003000  0.59250000  1
  O  O33  1  0.08878000  0.83571000  0.63140000  1
  O  O34  1  0.08532000  0.15687000  0.65671000  1
  O  O35  1  0.12746000  0.21044000  0.59994000  1
  O  O36  1  0.80968000  0.99320000  0.61359000  1
  O  O37  1  0.79985000  0.87962000  0.61241000  1
  O  O38  1  0.96099000  0.18266000  0.59084000  1
  O  O39  1  0.90839000  0.11964000  0.54455000  1
  O  O40  1  0.89745000  0.77086000  0.55908000  1
  O  O41  1  0.18787000  0.03298000  0.51122000  1
  O  O42  1  0.20409000  0.11550000  0.53883000  1
