# generated using pymatgen
data_Co2H4C30N8O7
_symmetry_space_group_name_H-M   'P 1'
_cell_length_a   19.65267000
_cell_length_b   21.77708000
_cell_length_c   34.86359000
_cell_angle_alpha   60.68864000
_cell_angle_beta   119.05503000
_cell_angle_gamma   133.26414000
_symmetry_Int_Tables_number   1
_chemical_formula_structural   Co2H4C30N8O7
_chemical_formula_sum   'Co12 H24 C180 N48 O42'
_cell_volume   9205.70236529
_cell_formula_units_Z   6
loop_
 _symmetry_equiv_pos_site_id
 _symmetry_equiv_pos_as_xyz
  1  'x, y, z'
loop_
 _atom_site_type_symbol
 _atom_site_label
 _atom_site_symmetry_multiplicity
 _atom_site_fract_x
 _atom_site_fract_y
 _atom_site_fract_z
 _atom_site_occupancy
  Co  Co1  1  0.05342000  0.99509000  0.05374000  1
  Co  Co2  1  0.02059000  0.84981000  0.02820000  1
  Co  Co3  1  0.08908000  0.08801000  0.52458000  1
  Co  Co4  1  0.03002000  0.13345000  0.57676000  1
  Co  Co5  1  0.14437000  0.98527000  0.51781000  1
  Co  Co6  1  0.05290000  0.92897000  0.59647000  1
  Co  Co7  1  0.97721000  0.03784000  0.09958000  1
  Co  Co8  1  0.89752000  0.86504000  0.15769000  1
  Co  Co9  1  0.97364000  0.82329000  0.11440000  1
  Co  Co10  1  0.80743000  0.95442000  0.14563000  1
  Co  Co11  1  0.98036000  0.96669000  0.64547000  1
  Co  Co12  1  0.92299000  0.07292000  0.64890000  1
  H  H1  1  0.31267000  0.69648000  0.13148000  1
  H  H2  1  0.25001000  0.46242000  0.13731000  1
  H  H3  1  0.12967000  0.45452000  0.21668000  1
  H  H4  1  0.45885000  0.77455000  0.69707000  1
  H  H5  1  0.36988000  0.54369000  0.68214000  1
  H  H6  1  0.15689000  0.57829000  0.65250000  1
  H  H7  1  0.07851000  0.90958000  0.81018000  1
  H  H8  1  0.10251000  0.90498000  0.88776000  1
  H  H9  1  0.08290000  0.93866000  0.93807000  1
  H  H10  1  0.10407000  0.12541000  0.36494000  1
  H  H11  1  0.13179000  0.11332000  0.30828000  1
  H  H12  1  0.07822000  0.03202000  0.25759000  1
  H  H13  1  0.02774000  0.10384000  0.75615000  1
  H  H14  1  0.65006000  0.13034000  0.06749000  1
  H  H15  1  0.58871000  0.27891000  0.07491000  1
  H  H16  1  0.63463000  0.29297000  0.48318000  1
  H  H17  1  0.73279000  0.50979000  0.51778000  1
  H  H18  1  0.78569000  0.83812000  0.35912000  1
  H  H19  1  0.02918000  0.15176000  0.80792000  1
  H  H20  1  0.01920000  0.12419000  0.88344000  1
  H  H21  1  0.85258000  0.40918000  0.04392000  1
  H  H22  1  0.93577000  0.46690000  0.54185000  1
  H  H23  1  0.85029000  0.91110000  0.41721000  1
  H  H24  1  0.80884000  0.83008000  0.29807000  1
  C  C1  1  0.21013000  0.57919000  0.17126000  1
  C  C2  1  0.27543000  0.62669000  0.14452000  1
  C  C3  1  0.29852000  0.58487000  0.13794000  1
  C  C4  1  0.24051000  0.49464000  0.14813000  1
  C  C5  1  0.18373000  0.44658000  0.17887000  1
  C  C6  1  0.17012000  0.48958000  0.19157000  1
  C  C7  1  0.30518000  0.68266000  0.67539000  1
  C  C8  1  0.40124000  0.71156000  0.68923000  1
  C  C9  1  0.42355000  0.66596000  0.68593000  1
  C  C10  1  0.35139000  0.58114000  0.68150000  1
  C  C11  1  0.25508000  0.54902000  0.66917000  1
  C  C12  1  0.23119000  0.60065000  0.66475000  1
  C  C13  1  0.21820000  0.00713000  0.05877000  1
  C  C14  1  0.00464000  0.12048000  0.16077000  1
  C  C15  1  0.10683000  0.78845000  0.12768000  1
  C  C16  1  0.29530000  0.16843000  0.52643000  1
  C  C17  1  0.11048000  0.24303000  0.64009000  1
  C  C18  1  0.19766000  0.90114000  0.61660000  1
  C  C19  1  0.07470000  0.95248000  0.81510000  1
  C  C20  1  0.08688000  0.94897000  0.85925000  1
  C  C21  1  0.07361000  0.99836000  0.86631000  1
  C  C22  1  0.07206000  0.98577000  0.90974000  1
  C  C23  1  0.06183000  0.05111000  0.30675000  1
  C  C24  1  0.03166000  0.00444000  0.27813000  1
  C  C25  1  0.15323000  0.32752000  0.64601000  1
  C  C26  1  0.14444000  0.39144000  0.60838000  1
  C  C27  1  0.15402000  0.45619000  0.61534000  1
  C  C28  1  0.18125000  0.46203000  0.65969000  1
  C  C29  1  0.17514000  0.39131000  0.69579000  1
  C  C30  1  0.17748000  0.33333333  0.69005000  1
  C  C31  1  0.13656000  0.39673000  0.56356000  1
  C  C32  1  0.17923000  0.38512000  0.74006000  1
  C  C33  1  0.21406000  0.28637000  0.72884000  1
  C  C34  1  0.14043000  0.51916000  0.57707000  1
  C  C35  1  0.28438000  0.74383000  0.66618000  1
  C  C36  1  0.33670000  0.83030000  0.64002000  1
  C  C37  1  0.32912000  0.89150000  0.63793000  1
  C  C38  1  0.25008000  0.86258000  0.64899000  1
  C  C39  1  0.20136000  0.77874000  0.67754000  1
  C  C40  1  0.22030000  0.71975000  0.68719000  1
  C  C41  1  0.38903000  0.85359000  0.61138000  1
  C  C42  1  0.13178000  0.75318000  0.69656000  1
  C  C43  1  0.17533000  0.63579000  0.71888000  1
  C  C44  1  0.39488000  0.98318000  0.61875000  1
  C  C45  1  0.05366000  0.20286000  0.17166000  1
  C  C46  1  0.99583000  0.22283000  0.16928000  1
  C  C47  1  0.03835000  0.29295000  0.18534000  1
  C  C48  1  0.13854000  0.35135000  0.19670000  1
  C  C49  1  0.19321000  0.32165000  0.20874000  1
  C  C50  1  0.15205000  0.24945000  0.19446000  1
  C  C51  1  0.29195000  0.36687000  0.23452000  1
  C  C52  1  0.20953000  0.22154000  0.20499000  1
  C  C53  1  0.34250000  0.64527000  0.05335000  1
  C  C54  1  0.18341000  0.62363000  0.17739000  1
  C  C55  1  0.25573000  0.70541000  0.18861000  1
  C  C56  1  0.23119000  0.76020000  0.17929000  1
  C  C57  1  0.13405000  0.72939000  0.16303000  1
  C  C58  1  0.06407000  0.63980000  0.16695000  1
  C  C59  1  0.08590000  0.59056000  0.16671000  1
  C  C60  1  0.35341000  0.73152000  0.21091000  1
  C  C61  1  0.00981000  0.51442000  0.14879000  1
  C  C62  1  0.30317000  0.84163000  0.19245000  1
  C  C63  1  0.50288000  0.34468000  0.47147000  1
  C  C64  1  0.40973000  0.29371000  0.47737000  1
  C  C65  1  0.39232000  0.24619000  0.52118000  1
  C  C66  1  0.46995000  0.25986000  0.55916000  1
  C  C67  1  0.56205000  0.30738000  0.55340000  1
  C  C68  1  0.52125000  0.39277000  0.42656000  1
  C  C69  1  0.45393000  0.22177000  0.60425000  1
  C  C70  1  0.33115000  0.28725000  0.43835000  1
  C  C71  1  0.32323000  0.05669000  0.06510000  1
  C  C72  1  0.35701000  0.07852000  0.02954000  1
  C  C73  1  0.44365000  0.09209000  0.03949000  1
  C  C74  1  0.51266000  0.11765000  0.07908000  1
  C  C75  1  0.48111000  0.09560000  0.11558000  1
  C  C76  1  0.38738000  0.06861000  0.10821000  1
  C  C77  1  0.31433000  0.10493000  0.98303000  1
  C  C78  1  0.36196000  0.06382000  0.14273000  1
  C  C79  1  0.45936000  0.07524000  0.01037000  1
  C  C80  1  0.05042000  0.00619000  0.77750000  1
  C  C81  1  0.39737000  0.63114000  0.13607000  1
  C  C82  1  0.03766000  0.05016000  0.43939000  1
  C  C83  1  0.04896000  0.02870000  0.91613000  1
  C  C84  1  0.00234000  0.01759000  0.33337000  1
  C  C85  1  0.03430000  0.06291000  0.36350000  1
  C  C86  1  0.42452000  0.72080000  0.59234000  1
  C  C87  1  0.05557000  0.05670000  0.82913000  1
  C  C88  1  0.04580000  0.06162000  0.78494000  1
  C  C89  1  0.04115000  0.10530000  0.83617000  1
  C  C90  1  0.03695000  0.09070000  0.87934000  1
  C  C91  1  0.07026000  0.82010000  0.49161000  1
  C  C92  1  0.41656000  0.65473000  0.09508000  1
  C  C93  1  0.44785000  0.60866000  0.21962000  1
  C  C94  1  0.57793000  0.34770000  0.50933000  1
  C  C95  1  0.54622000  0.10399000  0.15993000  1
  C  C96  1  0.51300000  0.71402000  0.67326000  1
  C  C97  1  0.51318000  0.74311000  0.62703000  1
  C  C98  1  0.46761000  0.63479000  0.17706000  1
  C  C99  1  0.61159000  0.19540000  0.07491000  1
  C  C100  1  0.59643000  0.72578000  0.70691000  1
  C  C101  1  0.59412000  0.68868000  0.75433000  1
  C  C102  1  0.50819000  0.68818000  0.09479000  1
  C  C103  1  0.63912000  0.31082000  0.59259000  1
  C  C104  1  0.67179000  0.19232000  0.06619000  1
  C  C105  1  0.63864000  0.27565000  0.07201000  1
  C  C106  1  0.67373000  0.39432000  0.50331000  1
  C  C107  1  0.59974000  0.79399000  0.61472000  1
  C  C108  1  0.60120000  0.82461000  0.56746000  1
  C  C109  1  0.55688000  0.66409000  0.17656000  1
  C  C110  1  0.52884000  0.71232000  0.05296000  1
  C  C111  1  0.67549000  0.22525000  0.96288000  1
  C  C112  1  0.01211000  0.99022000  0.95680000  1
  C  C113  1  0.58125000  0.70140000  0.13503000  1
  C  C114  1  0.69359000  0.35085000  0.49595000  1
  C  C115  1  0.62559000  0.65987000  0.21873000  1
  C  C116  1  0.68207000  0.77414000  0.69421000  1
  C  C117  1  0.68544000  0.81604000  0.64838000  1
  C  C118  1  0.69342000  0.19493000  0.56610000  1
  C  C119  1  0.71110000  0.10704000  0.97422000  1
  C  C120  1  0.67764000  0.07112000  0.54632000  1
  C  C121  1  0.03042000  0.28710000  0.06225000  1
  C  C122  1  0.74883000  0.47313000  0.51543000  1
  C  C123  1  0.68024000  0.77716000  0.13221000  1
  C  C124  1  0.75047000  0.21907000  0.99932000  1
  C  C125  1  0.75644000  0.27011000  0.05225000  1
  C  C126  1  0.72836000  0.35183000  0.06428000  1
  C  C127  1  0.74731000  0.16374000  0.53131000  1
  C  C128  1  0.74563000  0.22366000  0.53567000  1
  C  C129  1  0.78765000  0.37442000  0.51099000  1
  C  C130  1  0.76547000  0.77842000  0.72781000  1
  C  C131  1  0.77512000  0.17017000  0.00104000  1
  C  C132  1  0.72788000  0.37488000  0.14050000  1
  C  C133  1  0.72198000  0.51938000  0.11850000  1
  C  C134  1  0.78673000  0.34928000  0.05355000  1
  C  C135  1  0.77675000  0.89468000  0.63687000  1
  C  C136  1  0.80306000  0.31310000  0.51396000  1
  C  C137  1  0.80594000  0.26880000  0.03122000  1
  C  C138  1  0.75809000  0.43598000  0.06399000  1
  C  C139  1  0.74857000  0.44324000  0.09915000  1
  C  C140  1  0.76813000  0.52114000  0.09547000  1
  C  C141  1  0.97835000  0.59682000  0.17982000  1
  C  C142  1  0.77920000  0.50160000  0.98546000  1
  C  C143  1  0.82534000  0.19397000  0.51876000  1
  C  C144  1  0.97976000  0.29721000  0.19635000  1
  C  C145  1  0.98244000  0.02320000  0.39574000  1
  C  C146  1  0.89215000  0.16863000  0.15264000  1
  C  C147  1  0.00429000  0.98841000  0.73172000  1
  C  C148  1  0.84355000  0.49992000  0.52970000  1
  C  C149  1  0.86344000  0.44930000  0.52862000  1
  C  C150  1  0.86341000  0.33988000  0.48952000  1
  C  C151  1  0.87325000  0.27927000  0.49158000  1
  C  C152  1  0.91289000  0.42773000  0.46173000  1
  C  C153  1  0.92689000  0.66022000  0.58008000  1
  C  C154  1  0.91582000  0.58688000  0.58270000  1
  C  C155  1  0.92062000  0.58176000  0.54543000  1
  C  C156  1  0.89744000  0.65558000  0.61281000  1
  C  C157  1  0.90368000  0.51885000  0.62406000  1
  C  C158  1  0.85727000  0.68418000  0.06425000  1
  C  C159  1  0.85575000  0.09987000  0.05965000  1
  C  C160  1  0.89842000  0.88855000  0.23490000  1
  C  C161  1  0.96883000  0.81390000  0.53683000  1
  C  C162  1  0.88192000  0.15937000  0.55170000  1
  C  C163  1  0.89119000  0.94304000  0.39279000  1
  C  C164  1  0.85552000  0.90044000  0.36039000  1
  C  C165  1  0.91208000  0.93618000  0.33147000  1
  C  C166  1  0.93952000  0.92559000  0.27376000  1
  C  C167  1  0.87997000  0.89098000  0.30101000  1
  C  C168  1  0.92865000  0.30319000  0.46447000  1
  C  C169  1  0.96488000  0.73641000  0.54475000  1
  C  C170  1  0.97146000  0.65977000  0.51454000  1
  C  C171  1  0.99947000  0.73825000  0.51606000  1
  C  C172  1  0.99230000  0.65912000  0.48025000  1
  C  C173  1  0.85978000  0.17898000  0.03173000  1
  C  C174  1  0.93039000  0.25380000  0.04856000  1
  C  C175  1  0.90241000  0.29675000  0.05070000  1
  C  C176  1  0.97317000  0.37274000  0.06883000  1
  C  C177  1  0.82416000  0.59818000  0.06537000  1
  C  C178  1  0.84426000  0.59183000  0.03393000  1
  C  C179  1  0.79645000  0.51004000  0.02861000  1
  C  C180  1  0.92030000  0.66749000  0.01060000  1
  N  N1  1  0.24371000  0.24922000  0.75980000  1
  N  N2  1  0.12959000  0.56950000  0.54648000  1
  N  N3  1  0.18250000  0.38019000  0.77543000  1
  N  N4  1  0.13134000  0.40171000  0.52776000  1
  N  N5  1  0.35403000  0.70327000  0.56451000  1
  N  N6  1  0.13937000  0.56871000  0.74417000  1
  N  N7  1  0.44709000  0.05645000  0.60337000  1
  N  N8  1  0.07636000  0.73286000  0.71186000  1
  N  N9  1  0.43088000  0.87282000  0.58833000  1
  N  N10  1  0.25554000  0.19931000  0.21347000  1
  N  N11  1  0.37086000  0.40273000  0.25518000  1
  N  N12  1  0.28332000  0.63766000  0.02008000  1
  N  N13  1  0.36147000  0.90606000  0.20377000  1
  N  N14  1  0.43150000  0.75259000  0.22870000  1
  N  N15  1  0.26849000  0.28212000  0.40721000  1
  N  N16  1  0.44106000  0.19127000  0.64021000  1
  N  N17  1  0.53593000  0.43114000  0.39073000  1
  N  N18  1  0.11052000  0.31399000  0.07305000  1
  N  N19  1  0.34184000  0.06023000  0.17031000  1
  N  N20  1  0.47093000  0.06057000  0.98718000  1
  N  N21  1  0.28163000  0.12733000  0.94575000  1
  N  N22  1  0.12680000  0.88524000  0.47205000  1
  N  N23  1  0.43204000  0.58776000  0.25356000  1
  N  N24  1  0.59221000  0.65904000  0.79217000  1
  N  N25  1  0.61604000  0.23090000  0.93354000  1
  N  N26  1  0.59827000  0.11057000  0.19539000  1
  N  N27  1  0.60244000  0.84910000  0.52976000  1
  N  N28  1  0.54538000  0.73163000  0.01956000  1
  N  N29  1  0.65178000  0.17153000  0.59056000  1
  N  N30  1  0.62200000  0.99706000  0.55831000  1
  N  N31  1  0.98094000  0.72766000  0.99190000  1
  N  N32  1  0.70018000  0.31295000  0.62398000  1
  N  N33  1  0.65988000  0.05650000  0.95278000  1
  N  N34  1  0.68035000  0.65644000  0.25241000  1
  N  N35  1  0.68498000  0.51786000  0.13689000  1
  N  N36  1  0.71158000  0.32048000  0.17361000  1
  N  N37  1  0.76540000  0.49485000  0.95101000  1
  N  N38  1  0.02987000  0.43401000  0.08298000  1
  N  N39  1  0.93237000  0.29940000  0.20556000  1
  N  N40  1  0.94888000  0.45389000  0.13408000  1
  N  N41  1  0.91058000  0.56239000  0.19100000  1
  N  N42  1  0.83171000  0.78129000  0.75475000  1
  N  N43  1  0.95251000  0.49783000  0.43941000  1
  N  N44  1  0.89496000  0.46500000  0.65740000  1
  N  N45  1  0.87351000  0.65136000  0.63901000  1
  N  N46  1  0.80940000  0.12534000  0.13972000  1
  N  N47  1  0.97272000  0.32214000  0.44268000  1
  N  N48  1  0.00914000  0.65900000  0.45277000  1
  O  O1  1  0.07676000  0.09190000  0.06645000  1
  O  O2  1  0.04902000  0.11195000  0.14608000  1
  O  O3  1  0.07038000  0.78036000  0.08556000  1
  O  O4  1  0.09912000  0.83235000  0.13962000  1
  O  O5  1  0.15902000  0.96417000  0.02659000  1
  O  O6  1  0.18680000  0.01907000  0.07900000  1
  O  O7  1  0.07525000  0.17492000  0.52162000  1
  O  O8  1  0.12249000  0.06614000  0.45713000  1
  O  O9  1  0.06280000  0.17161000  0.66989000  1
  O  O10  1  0.12215000  0.24018000  0.60613000  1
  O  O11  1  0.16770000  0.89861000  0.57421000  1
  O  O12  1  0.17323000  0.92859000  0.63075000  1
  O  O13  1  0.09708000  0.00446000  0.55036000  1
  O  O14  1  0.27758000  0.09199000  0.53726000  1
  O  O15  1  0.22560000  0.17804000  0.51124000  1
  O  O16  1  0.04312000  0.03877000  0.98223000  1
  O  O17  1  0.07000000  0.04489000  0.59461000  1
  O  O18  1  0.04273000  0.98156000  0.71277000  1
  O  O19  1  0.69703000  0.85414000  0.11448000  1
  O  O20  1  0.75114000  0.76775000  0.15549000  1
  O  O21  1  0.79206000  0.97055000  0.62408000  1
  O  O22  1  0.00050000  0.88829000  0.06344000  1
  O  O23  1  0.79317000  0.04122000  0.08521000  1
  O  O24  1  0.92929000  0.05179000  0.17750000  1
  O  O25  1  0.99929000  0.04647000  0.46379000  1
  O  O26  1  0.95487000  0.89784000  0.21897000  1
  O  O27  1  0.96064000  0.90638000  0.97119000  1
  O  O28  1  0.83097000  0.88711000  0.62980000  1
  O  O29  1  0.89200000  0.94965000  0.12867000  1
  O  O30  1  0.94298000  0.79475000  0.17135000  1
  O  O31  1  0.94285000  0.91997000  0.09335000  1
  O  O32  1  0.89348000  0.07897000  0.04989000  1
  O  O33  1  0.81363000  0.86959000  0.20889000  1
  O  O34  1  0.87960000  0.74608000  0.02779000  1
  O  O35  1  0.87190000  0.70028000  0.10059000  1
  O  O36  1  0.91475000  0.16666000  0.59296000  1
  O  O37  1  0.98639000  0.05819000  0.62306000  1
  O  O38  1  0.99975000  0.88285000  0.64958000  1
  O  O39  1  0.90510000  0.12771000  0.53983000  1
  O  O40  1  0.92577000  0.98331000  0.70913000  1
  O  O41  1  0.00339000  0.88102000  0.50304000  1
  O  O42  1  0.95387000  0.82121000  0.56749000  1
