# generated using pymatgen
data_Zn2H3C11O7
_symmetry_space_group_name_H-M   'P 1'
_cell_length_a   21.69473000
_cell_length_b   19.79972000
_cell_length_c   46.00413000
_cell_angle_alpha   88.55989000
_cell_angle_beta   88.70169000
_cell_angle_gamma   107.17637000
_symmetry_Int_Tables_number   1
_chemical_formula_structural   Zn2H3C11O7
_chemical_formula_sum   'Zn24 H36 C132 O84'
_cell_volume   18864.39063698
_cell_formula_units_Z   12
loop_
 _symmetry_equiv_pos_site_id
 _symmetry_equiv_pos_as_xyz
  1  'x, y, z'
loop_
 _atom_site_type_symbol
 _atom_site_label
 _atom_site_symmetry_multiplicity
 _atom_site_fract_x
 _atom_site_fract_y
 _atom_site_fract_z
 _atom_site_occupancy
  Zn  Zn1  1  0.03874000  0.89678000  0.75794000  1
  Zn  Zn2  1  0.07479000  0.01190000  0.70963000  1
  Zn  Zn3  1  0.15049000  0.64637000  0.41418000  1
  Zn  Zn4  1  0.58361000  0.30639000  0.92413000  1
  Zn  Zn5  1  0.68616000  0.42899000  0.96228000  1
  Zn  Zn6  1  0.73539000  0.34866000  0.91601000  1
  Zn  Zn7  1  0.62994000  0.21068000  0.88422000  1
  Zn  Zn8  1  0.65152000  0.37727000  0.50081000  1
  Zn  Zn9  1  0.53089000  0.29559000  0.46020000  1
  Zn  Zn10  1  0.59257000  0.21098000  0.50043000  1
  Zn  Zn11  1  0.73653000  0.30133000  0.53027000  1
  Zn  Zn12  1  0.94092000  0.89572000  0.70470000  1
  Zn  Zn13  1  0.99334000  0.97467000  0.64834000  1
  Zn  Zn14  1  0.30191000  0.69330000  0.41163000  1
  Zn  Zn15  1  0.21606000  0.56439000  0.45507000  1
  Zn  Zn16  1  0.24890000  0.80129000  0.38278000  1
  Zn  Zn17  1  0.22020000  0.71466000  0.00323000  1
  Zn  Zn18  1  0.33776000  0.78302000  0.04659000  1
  Zn  Zn19  1  0.36582000  0.73754000  0.98601000  1
  Zn  Zn20  1  0.23922000  0.62032000  0.95630000  1
  Zn  Zn21  1  0.98141000  0.13968000  0.19863000  1
  Zn  Zn22  1  0.87447000  0.12254000  0.25204000  1
  Zn  Zn23  1  0.85145000  0.01527000  0.20369000  1
  Zn  Zn24  1  0.94081000  0.07014000  0.14198000  1
  H  H1  1  0.01117000  0.45141000  0.48927000  1
  H  H2  1  0.01898000  0.66945000  0.95069000  1
  H  H3  1  0.02129000  0.52352000  0.97414000  1
  H  H4  1  0.06453000  0.88137000  0.70488000  1
  H  H5  1  0.67510000  0.29609000  0.96297000  1
  H  H6  1  0.64456000  0.34142000  0.87636000  1
  H  H7  1  0.64539000  0.28570000  0.45609000  1
  H  H8  1  0.62260000  0.29872000  0.54526000  1
  H  H9  1  0.96071000  0.02563000  0.69441000  1
  H  H10  1  0.21872000  0.69490000  0.45750000  1
  H  H11  1  0.23370000  0.67524000  0.36833000  1
  H  H12  1  0.30952000  0.65848000  0.02868000  1
  H  H13  1  0.26966000  0.75611000  0.95391000  1
  H  H14  1  0.85471000  0.14458000  0.19910000  1
  H  H15  1  0.97045000  0.01286000  0.18790000  1
  H  H16  1  0.35935000  0.96310000  0.42314000  1
  H  H17  1  0.42251000  0.08701000  0.42344000  1
  H  H18  1  0.39483000  0.87801000  0.47343000  1
  H  H19  1  0.45186000  0.00587000  0.47658000  1
  H  H20  1  0.89375000  0.40127000  0.48958000  1
  H  H21  1  0.83536000  0.46262000  0.43878000  1
  H  H22  1  0.95427000  0.51314000  0.43805000  1
  H  H23  1  0.41849000  0.55376000  0.48000000  1
  H  H24  1  0.50350000  0.50754000  0.50168000  1
  H  H25  1  0.42277000  0.54145000  0.41355000  1
  H  H26  1  0.49943000  0.49082000  0.43547000  1
  H  H27  1  0.91206000  0.57612000  0.94453000  1
  H  H28  1  0.91092000  0.44490000  0.98189000  1
  H  H29  1  0.49332000  0.95901000  0.97190000  1
  H  H30  1  0.58166000  0.07042000  0.97015000  1
  H  H31  1  0.36724000  0.99057000  0.99497000  1
  H  H32  1  0.44647000  0.09216000  0.96328000  1
  H  H33  1  0.37195000  0.47904000  0.96361000  1
  H  H34  1  0.47658000  0.44405000  0.98626000  1
  H  H35  1  0.47219000  0.61441000  0.93722000  1
  H  H36  1  0.48473000  0.48369000  0.92099000  1
  C  C1  1  0.00581000  0.31556000  0.11052000  1
  C  C2  1  0.00478000  0.83662000  0.33132000  1
  C  C3  1  0.00089000  0.56274000  0.96463000  1
  C  C4  1  0.01071000  0.48537000  0.47039000  1
  C  C5  1  0.01126000  0.20265000  0.25505000  1
  C  C6  1  0.04211000  0.36398000  0.08900000  1
  C  C7  1  0.03676000  0.80704000  0.35231000  1
  C  C8  1  0.03951000  0.62866000  0.95838000  1
  C  C9  1  0.07295000  0.52984000  0.45763000  1
  C  C10  1  0.07557000  0.13350000  0.15019000  1
  C  C11  1  0.07478000  0.40634000  0.07138000  1
  C  C12  1  0.05919000  0.24628000  0.27287000  1
  C  C13  1  0.06784000  0.78549000  0.36972000  1
  C  C14  1  0.09272000  0.28594000  0.28946000  1
  C  C15  1  0.11005000  0.76472000  0.38934000  1
  C  C16  1  0.10951000  0.64764000  0.96365000  1
  C  C17  1  0.11350000  0.45827000  0.05171000  1
  C  C18  1  0.11622000  0.09481000  0.13884000  1
  C  C19  1  0.00522000  0.03941000  0.76075000  1
  C  C20  1  0.13034000  0.06552000  0.65028000  1
  C  C21  1  0.12375000  0.33456000  0.31017000  1
  C  C22  1  0.14139000  0.05725000  0.12608000  1
  C  C23  1  0.14539000  0.50566000  0.03583000  1
  C  C24  1  0.14356000  0.37709000  0.32854000  1
  C  C25  1  0.16322000  0.00753000  0.75980000  1
  C  C26  1  0.16186000  0.00953000  0.10899000  1
  C  C27  1  0.15970000  0.42722000  0.35041000  1
  C  C28  1  0.17433000  0.96646000  0.09382000  1
  C  C29  1  0.16871000  0.46996000  0.36919000  1
  C  C30  1  0.17522000  0.52048000  0.39148000  1
  C  C31  1  0.17997000  0.56642000  0.01827000  1
  C  C32  1  0.18454000  0.10606000  0.63253000  1
  C  C33  1  0.18622000  0.91383000  0.07648000  1
  C  C34  1  0.19739000  0.86731000  0.06301000  1
  C  C35  1  0.77075000  0.24134000  0.88086000  1
  C  C36  1  0.71798000  0.48343000  0.89789000  1
  C  C37  1  0.49789000  0.21437000  0.87955000  1
  C  C38  1  0.54663000  0.41772000  0.95601000  1
  C  C39  1  0.57244000  0.16391000  0.94564000  1
  C  C40  1  0.82693000  0.44861000  0.95636000  1
  C  C41  1  0.68531000  0.14993000  0.52708000  1
  C  C42  1  0.47971000  0.24473000  0.52373000  1
  C  C43  1  0.75592000  0.45103000  0.54355000  1
  C  C44  1  0.55316000  0.43996000  0.47876000  1
  C  C45  1  0.77497000  0.38984000  0.47270000  1
  C  C46  1  0.48740000  0.14067000  0.45752000  1
  C  C47  1  0.85389000  0.91347000  0.65587000  1
  C  C48  1  0.90018000  0.82292000  0.76120000  1
  C  C49  1  0.97274000  0.81555000  0.65878000  1
  C  C50  1  0.37971000  0.80036000  0.36461000  1
  C  C51  1  0.35125000  0.58354000  0.43563000  1
  C  C52  1  0.32954000  0.82763000  0.43874000  1
  C  C53  1  0.37946000  0.61653000  0.95366000  1
  C  C54  1  0.37296000  0.88684000  0.99285000  1
  C  C55  1  0.21520000  0.81107000  0.04972000  1
  C  C56  1  0.46875000  0.78468000  0.03180000  1
  C  C57  1  0.81114000  0.96708000  0.14409000  1
  C  C58  1  0.91408000  0.98363000  0.25586000  1
  C  C59  1  0.95065000  0.22360000  0.15272000  1
  C  C60  1  0.75130000  0.00986000  0.25258000  1
  C  C61  1  0.97803000  0.27408000  0.12954000  1
  C  C62  1  0.76554000  0.92256000  0.12557000  1
  C  C63  1  0.72622000  0.88890000  0.10937000  1
  C  C64  1  0.67807000  0.85459000  0.09028000  1
  C  C65  1  0.63429000  0.83017000  0.07445000  1
  C  C66  1  0.57972000  0.80783000  0.05723000  1
  C  C67  1  0.53027000  0.79424000  0.04430000  1
  C  C68  1  0.43531000  0.82965000  0.34586000  1
  C  C69  1  0.48203000  0.85502000  0.33016000  1
  C  C70  1  0.53704000  0.88564000  0.31209000  1
  C  C71  1  0.58464000  0.91270000  0.29714000  1
  C  C72  1  0.64136000  0.94546000  0.28045000  1
  C  C73  1  0.69090000  0.97439000  0.26711000  1
  C  C74  1  0.93568000  0.93790000  0.27525000  1
  C  C75  1  0.95531000  0.90273000  0.29246000  1
  C  C76  1  0.98061000  0.86529000  0.31331000  1
  C  C77  1  0.44578000  0.07867000  0.44333000  1
  C  C78  1  0.43031000  0.01401000  0.45616000  1
  C  C79  1  0.38254000  0.95391000  0.44297000  1
  C  C80  1  0.36973000  0.88802000  0.45437000  1
  C  C81  1  0.95463000  0.48126000  0.45762000  1
  C  C82  1  0.89309000  0.43262000  0.46988000  1
  C  C83  1  0.83646000  0.42939000  0.45781000  1
  C  C84  1  0.51361000  0.48902000  0.48057000  1
  C  C85  1  0.48606000  0.50603000  0.45672000  1
  C  C86  1  0.43409000  0.54029000  0.45886000  1
  C  C87  1  0.40511000  0.55260000  0.43466000  1
  C  C88  1  0.68949000  0.09841000  0.54881000  1
  C  C89  1  0.69733000  0.05905000  0.56781000  1
  C  C90  1  0.71296000  0.01757000  0.59021000  1
  C  C91  1  0.73317000  0.98623000  0.60868000  1
  C  C92  1  0.76580000  0.95477000  0.62857000  1
  C  C93  1  0.80179000  0.93284000  0.64302000  1
  C  C94  1  0.42614000  0.23315000  0.54402000  1
  C  C95  1  0.38095000  0.21793000  0.56117000  1
  C  C96  1  0.32799000  0.19443000  0.58112000  1
  C  C97  1  0.28279000  0.17014000  0.59784000  1
  C  C98  1  0.22985000  0.13730000  0.61688000  1
  C  C99  1  0.79154000  0.51197000  0.55863000  1
  C  C100  1  0.82346000  0.56134000  0.57176000  1
  C  C101  1  0.86138000  0.61730000  0.58788000  1
  C  C102  1  0.89265000  0.66394000  0.60253000  1
  C  C103  1  0.92626000  0.71754000  0.62086000  1
  C  C104  1  0.95071000  0.76270000  0.63762000  1
  C  C105  1  0.93080000  0.54199000  0.95843000  1
  C  C106  1  0.89166000  0.47890000  0.96819000  1
  C  C107  1  0.54752000  0.09810000  0.96356000  1
  C  C108  1  0.48120000  0.06296000  0.96645000  1
  C  C109  1  0.45948000  0.98998000  0.97328000  1
  C  C110  1  0.39383000  0.95656000  0.98618000  1
  C  C111  1  0.49216000  0.44532000  0.96358000  1
  C  C112  1  0.46565000  0.47717000  0.94328000  1
  C  C113  1  0.41492000  0.51015000  0.95144000  1
  C  C114  1  0.42501000  0.58244000  0.94555000  1
  C  C115  1  0.97949000  0.08413000  0.77824000  1
  C  C116  1  0.95586000  0.11872000  0.79365000  1
  C  C117  1  0.92517000  0.15519000  0.81226000  1
  C  C118  1  0.89572000  0.18234000  0.82839000  1
  C  C119  1  0.85696000  0.20888000  0.84724000  1
  C  C120  1  0.81984000  0.22662000  0.86298000  1
  C  C121  1  0.44464000  0.19291000  0.86069000  1
  C  C122  1  0.40157000  0.17134000  0.84417000  1
  C  C123  1  0.35249000  0.14233000  0.82464000  1
  C  C124  1  0.31080000  0.11466000  0.80825000  1
  C  C125  1  0.26138000  0.07937000  0.78989000  1
  C  C126  1  0.21769000  0.04727000  0.77533000  1
  C  C127  1  0.72626000  0.53998000  0.87662000  1
  C  C128  1  0.73765000  0.58702000  0.85829000  1
  C  C129  1  0.75695000  0.64136000  0.83652000  1
  C  C130  1  0.77936000  0.68670000  0.81798000  1
  C  C131  1  0.81321000  0.73783000  0.79677000  1
  C  C132  1  0.84910000  0.77884000  0.77964000  1
  O  O1  1  0.01669000  0.87501000  0.65131000  1
  O  O2  1  0.02728000  0.13712000  0.13425000  1
  O  O3  1  0.03956000  0.90818000  0.71538000  1
  O  O4  1  0.04958000  0.06762000  0.74036000  1
  O  O5  1  0.02705000  0.16221000  0.23566000  1
  O  O6  1  0.07762000  0.59272000  0.44599000  1
  O  O7  1  0.07307000  0.14331000  0.17844000  1
  O  O8  1  0.08774000  0.01233000  0.63852000  1
  O  O9  1  0.09092000  0.70248000  0.40317000  1
  O  O10  1  0.11246000  0.96788000  0.77459000  1
  O  O11  1  0.13208000  0.07271000  0.67873000  1
  O  O12  1  0.12358000  0.50608000  0.45850000  1
  O  O13  1  0.13464000  0.55839000  0.39278000  1
  O  O14  1  0.14270000  0.60427000  0.95540000  1
  O  O15  1  0.13708000  0.70546000  0.97795000  1
  O  O16  1  0.16172000  0.01723000  0.73152000  1
  O  O17  1  0.16449000  0.81141000  0.39573000  1
  O  O18  1  0.17066000  0.62711000  0.02338000  1
  O  O19  1  0.53530000  0.17355000  0.88296000  1
  O  O20  1  0.50791000  0.27322000  0.89383000  1
  O  O21  1  0.67015000  0.33100000  0.94811000  1
  O  O22  1  0.59574000  0.42897000  0.97352000  1
  O  O23  1  0.54528000  0.21512000  0.94707000  1
  O  O24  1  0.54700000  0.38571000  0.93122000  1
  O  O25  1  0.62430000  0.17241000  0.92907000  1
  O  O26  1  0.78186000  0.48030000  0.96012000  1
  O  O27  1  0.81308000  0.38643000  0.94460000  1
  O  O28  1  0.64953000  0.31165000  0.89324000  1
  O  O29  1  0.71468000  0.19250000  0.88326000  1
  O  O30  1  0.75604000  0.44266000  0.89637000  1
  O  O31  1  0.78809000  0.28936000  0.90083000  1
  O  O32  1  0.67596000  0.47611000  0.91975000  1
  O  O33  1  0.78262000  0.40035000  0.53898000  1
  O  O34  1  0.69868000  0.44798000  0.53348000  1
  O  O35  1  0.61648000  0.29139000  0.47219000  1
  O  O36  1  0.54809000  0.39957000  0.45620000  1
  O  O37  1  0.72823000  0.41905000  0.47500000  1
  O  O38  1  0.58623000  0.43020000  0.50135000  1
  O  O39  1  0.76815000  0.32715000  0.48489000  1
  O  O40  1  0.47047000  0.19910000  0.45770000  1
  O  O41  1  0.54132000  0.13773000  0.46934000  1
  O  O42  1  0.64410000  0.29478000  0.52643000  1
  O  O43  1  0.73620000  0.20413000  0.52102000  1
  O  O44  1  0.51181000  0.19792000  0.52296000  1
  O  O45  1  0.63462000  0.13745000  0.51063000  1
  O  O46  1  0.49259000  0.29822000  0.50464000  1
  O  O47  1  0.90511000  0.91719000  0.63929000  1
  O  O48  1  0.85394000  0.90086000  0.68426000  1
  O  O49  1  0.95852000  0.81722000  0.76400000  1
  O  O50  1  0.93735000  0.81183000  0.68239000  1
  O  O51  1  0.88870000  0.86761000  0.74176000  1
  O  O52  1  0.98555000  0.99213000  0.69023000  1
  O  O53  1  0.98283000  0.97036000  0.76492000  1
  O  O54  1  0.34137000  0.83920000  0.37072000  1
  O  O55  1  0.37062000  0.73735000  0.37711000  1
  O  O56  1  0.22142000  0.66241000  0.44183000  1
  O  O57  1  0.30998000  0.56927000  0.45805000  1
  O  O58  1  0.34840000  0.77118000  0.43593000  1
  O  O59  1  0.33823000  0.61379000  0.41177000  1
  O  O60  1  0.27556000  0.83081000  0.42724000  1
  O  O61  1  0.23131000  0.69773000  0.38713000  1
  O  O62  1  0.21926000  0.52549000  0.41119000  1
  O  O63  1  0.30802000  0.70460000  0.02043000  1
  O  O64  1  0.25355000  0.78265000  0.06377000  1
  O  O65  1  0.20369000  0.79775000  0.02205000  1
  O  O66  1  0.22288000  0.56197000  0.99843000  1
  O  O67  1  0.43194000  0.82149000  0.04165000  1
  O  O68  1  0.45138000  0.74335000  0.00962000  1
  O  O69  1  0.27444000  0.72031000  0.96840000  1
  O  O70  1  0.31696000  0.58157000  0.95399000  1
  O  O71  1  0.39529000  0.84217000  0.97813000  1
  O  O72  1  0.39947000  0.68540000  0.95680000  1
  O  O73  1  0.33036000  0.86347000  0.01436000  1
  O  O74  1  0.88052000  0.11844000  0.20947000  1
  O  O75  1  0.95138000  0.20400000  0.25847000  1
  O  O76  1  0.98317000  0.22681000  0.17643000  1
  O  O77  1  0.90878000  0.16351000  0.14654000  1
  O  O78  1  0.79956000  0.04581000  0.26795000  1
  O  O79  1  0.75930000  0.00116000  0.22468000  1
  O  O80  1  0.94365000  0.04455000  0.18389000  1
  O  O81  1  0.84901000  0.02698000  0.13283000  1
  O  O82  1  0.87527000  0.95669000  0.23473000  1
  O  O83  1  0.80177000  0.95706000  0.17253000  1
  O  O84  1  0.93339000  0.05222000  0.25962000  1
