# generated using pymatgen
data_Ni2H2C10O7F
_symmetry_space_group_name_H-M   'P 1'
_cell_length_a   20.14742000
_cell_length_b   17.96986000
_cell_length_c   39.94083000
_cell_angle_alpha   90.82603000
_cell_angle_beta   91.38801000
_cell_angle_gamma   111.09341000
_symmetry_Int_Tables_number   1
_chemical_formula_structural   Ni2H2C10O7F
_chemical_formula_sum   'Ni24 H24 C120 O84 F12'
_cell_volume   13483.40038999
_cell_formula_units_Z   12
loop_
 _symmetry_equiv_pos_site_id
 _symmetry_equiv_pos_as_xyz
  1  'x, y, z'
loop_
 _atom_site_type_symbol
 _atom_site_label
 _atom_site_symmetry_multiplicity
 _atom_site_fract_x
 _atom_site_fract_y
 _atom_site_fract_z
 _atom_site_occupancy
  Ni  Ni1  1  0.01753000  0.94777000  0.74948000  1
  Ni  Ni2  1  0.05403000  0.93517000  0.67486000  1
  Ni  Ni3  1  0.12449000  0.11862000  0.71914000  1
  Ni  Ni4  1  0.22965000  0.69372000  0.04647000  1
  Ni  Ni5  1  0.07331000  0.16562000  0.22374000  1
  Ni  Ni6  1  0.74235000  0.32564000  0.89064000  1
  Ni  Ni7  1  0.57792000  0.27707000  0.88772000  1
  Ni  Ni8  1  0.63700000  0.14903000  0.85745000  1
  Ni  Ni9  1  0.68674000  0.43289000  0.93827000  1
  Ni  Ni10  1  0.59904000  0.30042000  0.53378000  1
  Ni  Ni11  1  0.75394000  0.29440000  0.53560000  1
  Ni  Ni12  1  0.73057000  0.42406000  0.48522000  1
  Ni  Ni13  1  0.61465000  0.14875000  0.56687000  1
  Ni  Ni14  1  0.91212000  0.80501000  0.69940000  1
  Ni  Ni15  1  0.22527000  0.67036000  0.38778000  1
  Ni  Ni16  1  0.38878000  0.70873000  0.38711000  1
  Ni  Ni17  1  0.33309000  0.82662000  0.34667000  1
  Ni  Ni18  1  0.28154000  0.58122000  0.44431000  1
  Ni  Ni19  1  0.38478000  0.70084000  0.03339000  1
  Ni  Ni20  1  0.24100000  0.56596000  0.99128000  1
  Ni  Ni21  1  0.37238000  0.85096000  0.07188000  1
  Ni  Ni22  1  0.94247000  0.02171000  0.25912000  1
  Ni  Ni23  1  0.93954000  0.05227000  0.18263000  1
  Ni  Ni24  1  0.84638000  0.85950000  0.21435000  1
  H  H1  1  0.03759000  0.83058000  0.71878000  1
  H  H2  1  0.00344000  0.03508000  0.70331000  1
  H  H3  1  0.10418000  0.44596000  0.47600000  1
  H  H4  1  0.99500000  0.64241000  0.00427000  1
  H  H5  1  0.65618000  0.28502000  0.83898000  1
  H  H6  1  0.66105000  0.28818000  0.93882000  1
  H  H7  1  0.67265000  0.27898000  0.48550000  1
  H  H8  1  0.67107000  0.29108000  0.58506000  1
  H  H9  1  0.30565000  0.68290000  0.33700000  1
  H  H10  1  0.31248000  0.72470000  0.43553000  1
  H  H11  1  0.29085000  0.71201000  0.99180000  1
  H  H12  1  0.33296000  0.71030000  0.08946000  1
  H  H13  1  0.94576000  0.15004000  0.22941000  1
  H  H14  1  0.97124000  0.94226000  0.21385000  1
  H  H15  1  0.41649000  0.07269000  0.49070000  1
  H  H16  1  0.54462000  0.95869000  0.41240000  1
  H  H17  1  0.90018000  0.53840000  0.46630000  1
  H  H18  1  0.50001000  0.37965000  0.44198000  1
  H  H19  1  0.53306000  0.65935000  0.47366000  1
  H  H20  1  0.93738000  0.36956000  0.95564000  1
  H  H21  1  0.52035000  0.13257000  0.98489000  1
  H  H22  1  0.46746000  0.85600000  0.94154000  1
  H  H23  1  0.58655000  0.49952000  0.97347000  1
  H  H24  1  0.33089000  0.44483000  0.94719000  1
  C  C1  1  0.99159000  0.78119000  0.64075000  1
  C  C2  1  0.17768000  0.01469000  0.75903000  1
  C  C3  1  0.17417000  0.07885000  0.65338000  1
  C  C4  1  0.03842000  0.10197000  0.77999000  1
  C  C5  1  0.17110000  0.75570000  0.33803000  1
  C  C6  1  0.19828000  0.49567000  0.38297000  1
  C  C7  1  0.13857000  0.59067000  0.44747000  1
  C  C8  1  0.17465000  0.51861000  0.05936000  1
  C  C9  1  0.11092000  0.60128000  0.99753000  1
  C  C10  1  0.22425000  0.81544000  0.09557000  1
  C  C11  1  0.07866000  0.03017000  0.18239000  1
  C  C12  1  0.04594000  0.15442000  0.29682000  1
  C  C13  1  0.13503000  0.45709000  0.08172000  1
  C  C14  1  0.10215000  0.40197000  0.09902000  1
  C  C15  1  0.06663000  0.33486000  0.11871000  1
  C  C16  1  0.04186000  0.27711000  0.13598000  1
  C  C17  1  0.19136000  0.85077000  0.11925000  1
  C  C18  1  0.16654000  0.88717000  0.13754000  1
  C  C19  1  0.13849000  0.93518000  0.15646000  1
  C  C20  1  0.11303000  0.97851000  0.17000000  1
  C  C21  1  0.16129000  0.42167000  0.36555000  1
  C  C22  1  0.13043000  0.35883000  0.35128000  1
  C  C23  1  0.09633000  0.28552000  0.33410000  1
  C  C24  1  0.07059000  0.22416000  0.31811000  1
  C  C25  1  0.11142000  0.76899000  0.32275000  1
  C  C26  1  0.06070000  0.78170000  0.31146000  1
  C  C27  1  0.00244000  0.80109000  0.29994000  1
  C  C28  1  0.05995000  0.46669000  0.47437000  1
  C  C29  1  0.07041000  0.54326000  0.46248000  1
  C  C30  1  0.01254000  0.56919000  0.46038000  1
  C  C31  1  0.98244000  0.58262000  0.99396000  1
  C  C32  1  0.03641000  0.55150000  0.98992000  1
  C  C33  1  0.01925000  0.47331000  0.97713000  1
  C  C34  1  0.57202000  0.12753000  0.92346000  1
  C  C35  1  0.79745000  0.22524000  0.84874000  1
  C  C36  1  0.48860000  0.15109000  0.84118000  1
  C  C37  1  0.75984000  0.49304000  0.87432000  1
  C  C38  1  0.53680000  0.40185000  0.91936000  1
  C  C39  1  0.82868000  0.42274000  0.95000000  1
  C  C40  1  0.82679000  0.46891000  0.54784000  1
  C  C41  1  0.58925000  0.43568000  0.49545000  1
  C  C42  1  0.85958000  0.38444000  0.48455000  1
  C  C43  1  0.55984000  0.14105000  0.49790000  1
  C  C44  1  0.76770000  0.17305000  0.58143000  1
  C  C45  1  0.48927000  0.20090000  0.57810000  1
  C  C46  1  0.91187000  0.94520000  0.66170000  1
  C  C47  1  0.91085000  0.80064000  0.77429000  1
  C  C48  1  0.40377000  0.87279000  0.41304000  1
  C  C49  1  0.47755000  0.81117000  0.33587000  1
  C  C50  1  0.42779000  0.59395000  0.42695000  1
  C  C51  1  0.38684000  0.56029000  0.99507000  1
  C  C52  1  0.40901000  0.86023000  0.00167000  1
  C  C53  1  0.50464000  0.80867000  0.07387000  1
  C  C54  1  0.02282000  0.21006000  0.15794000  1
  C  C55  1  0.78270000  0.95581000  0.25286000  1
  C  C56  1  0.82555000  0.91949000  0.14772000  1
  C  C57  1  0.90566000  0.86131000  0.28296000  1
  C  C58  1  0.76042000  0.90337000  0.12906000  1
  C  C59  1  0.70309000  0.88456000  0.11512000  1
  C  C60  1  0.63438000  0.85867000  0.10032000  1
  C  C61  1  0.57506000  0.83540000  0.08826000  1
  C  C62  1  0.71884000  0.93238000  0.27209000  1
  C  C63  1  0.66393000  0.90707000  0.28712000  1
  C  C64  1  0.59881000  0.87373000  0.30401000  1
  C  C65  1  0.54330000  0.84456000  0.31831000  1
  C  C66  1  0.95553000  0.82406000  0.29145000  1
  C  C67  1  0.44447000  0.04852000  0.47333000  1
  C  C68  1  0.51912000  0.08097000  0.47252000  1
  C  C69  1  0.55476000  0.04933000  0.44988000  1
  C  C70  1  0.51646000  0.98325000  0.42953000  1
  C  C71  1  0.44222000  0.94777000  0.43172000  1
  C  C72  1  0.40608000  0.98195000  0.45308000  1
  C  C73  1  0.94442000  0.51780000  0.46842000  1
  C  C74  1  0.93307000  0.43973000  0.47863000  1
  C  C75  1  0.99156000  0.41494000  0.48233000  1
  C  C76  1  0.50723000  0.44062000  0.44900000  1
  C  C77  1  0.55372000  0.47949000  0.47573000  1
  C  C78  1  0.56465000  0.55947000  0.48386000  1
  C  C79  1  0.52650000  0.59871000  0.46639000  1
  C  C80  1  0.47709000  0.55827000  0.44086000  1
  C  C81  1  0.46939000  0.47988000  0.43149000  1
  C  C82  1  0.80425000  0.13568000  0.60254000  1
  C  C83  1  0.82996000  0.09664000  0.61894000  1
  C  C84  1  0.85695000  0.04523000  0.63614000  1
  C  C85  1  0.88039000  0.99926000  0.64894000  1
  C  C86  1  0.42202000  0.17817000  0.59449000  1
  C  C87  1  0.36498000  0.15589000  0.60776000  1
  C  C88  1  0.29793000  0.12802000  0.62317000  1
  C  C89  1  0.24106000  0.10457000  0.63659000  1
  C  C90  1  0.88086000  0.52834000  0.56781000  1
  C  C91  1  0.92233000  0.58399000  0.58365000  1
  C  C92  1  0.96223000  0.65373000  0.60232000  1
  C  C93  1  0.98449000  0.71413000  0.61926000  1
  C  C94  1  0.94965000  0.42883000  0.96647000  1
  C  C95  1  0.89664000  0.46198000  0.96823000  1
  C  C96  1  0.91271000  0.53818000  0.98305000  1
  C  C97  1  0.50935000  0.07230000  0.97549000  1
  C  C98  1  0.53717000  0.05943000  0.94502000  1
  C  C99  1  0.52230000  0.98092000  0.93305000  1
  C  C100  1  0.47902000  0.91618000  0.95117000  1
  C  C101  1  0.45028000  0.92904000  0.98146000  1
  C  C102  1  0.46649000  0.00770000  0.99375000  1
  C  C103  1  0.53083000  0.48766000  0.96757000  1
  C  C104  1  0.49592000  0.43512000  0.94100000  1
  C  C105  1  0.42308000  0.41798000  0.93437000  1
  C  C106  1  0.38651000  0.45631000  0.95316000  1
  C  C107  1  0.42253000  0.51208000  0.97857000  1
  C  C108  1  0.49439000  0.52590000  0.98630000  1
  C  C109  1  0.85464000  0.20926000  0.83302000  1
  C  C110  1  0.90243000  0.19444000  0.82033000  1
  C  C111  1  0.95620000  0.17216000  0.80586000  1
  C  C112  1  0.99774000  0.14567000  0.79381000  1
  C  C113  1  0.42178000  0.10856000  0.82432000  1
  C  C114  1  0.36428000  0.07687000  0.81068000  1
  C  C115  1  0.29680000  0.04616000  0.79436000  1
  C  C116  1  0.24058000  0.02706000  0.77920000  1
  C  C117  1  0.87967000  0.73698000  0.79700000  1
  C  C118  1  0.85222000  0.68182000  0.81510000  1
  C  C119  1  0.81944000  0.61605000  0.83566000  1
  C  C120  1  0.79172000  0.55969000  0.85313000  1
  O  O1  1  0.01103000  0.86567000  0.71289000  1
  O  O2  1  0.11832000  0.95422000  0.76505000  1
  O  O3  1  0.10109000  0.13940000  0.76722000  1
  O  O4  1  0.05226000  0.84347000  0.64329000  1
  O  O5  1  0.04426000  0.01903000  0.70891000  1
  O  O6  1  0.01892000  0.02638000  0.78632000  1
  O  O7  1  0.12311000  0.01279000  0.64274000  1
  O  O8  1  0.15778000  0.13280000  0.67011000  1
  O  O9  1  0.18481000  0.05320000  0.73095000  1
  O  O10  1  0.16026000  0.68510000  0.35051000  1
  O  O11  1  0.21565000  0.56237000  0.36654000  1
  O  O12  1  0.19911000  0.60385000  0.46452000  1
  O  O13  1  0.13752000  0.61665000  0.41652000  1
  O  O14  1  0.17709000  0.49852000  0.02770000  1
  O  O15  1  0.12784000  0.64560000  0.02553000  1
  O  O16  1  0.19221000  0.73999000  0.08613000  1
  O  O17  1  0.21365000  0.58990000  0.07156000  1
  O  O18  1  0.15996000  0.59991000  0.97652000  1
  O  O19  1  0.97943000  0.10491000  0.29743000  1
  O  O20  1  0.08832000  0.14506000  0.27396000  1
  O  O21  1  0.09732000  0.06670000  0.21170000  1
  O  O22  1  0.07561000  0.19790000  0.17466000  1
  O  O23  1  0.65504000  0.26216000  0.86146000  1
  O  O24  1  0.80768000  0.29942000  0.85777000  1
  O  O25  1  0.74550000  0.16512000  0.86166000  1
  O  O26  1  0.74474000  0.42049000  0.86208000  1
  O  O27  1  0.76899000  0.41933000  0.96420000  1
  O  O28  1  0.62990000  0.13185000  0.90790000  1
  O  O29  1  0.49799000  0.22268000  0.85390000  1
  O  O30  1  0.66343000  0.32462000  0.92016000  1
  O  O31  1  0.82958000  0.39742000  0.91866000  1
  O  O32  1  0.51390000  0.32467000  0.91278000  1
  O  O33  1  0.60209000  0.44654000  0.91208000  1
  O  O34  1  0.75864000  0.50628000  0.90662000  1
  O  O35  1  0.53880000  0.17677000  0.91638000  1
  O  O36  1  0.52747000  0.10958000  0.85219000  1
  O  O37  1  0.68522000  0.31881000  0.50419000  1
  O  O38  1  0.55311000  0.36249000  0.50435000  1
  O  O39  1  0.65708000  0.46925000  0.50372000  1
  O  O40  1  0.53940000  0.20079000  0.50533000  1
  O  O41  1  0.51091000  0.14313000  0.56776000  1
  O  O42  1  0.80274000  0.49329000  0.52083000  1
  O  O43  1  0.84730000  0.33269000  0.50917000  1
  O  O44  1  0.66278000  0.26367000  0.56283000  1
  O  O45  1  0.51571000  0.27283000  0.56529000  1
  O  O46  1  0.80145000  0.24599000  0.57105000  1
  O  O47  1  0.70893000  0.12699000  0.56578000  1
  O  O48  1  0.60785000  0.12697000  0.51667000  1
  O  O49  1  0.78920000  0.40125000  0.56156000  1
  O  O50  1  0.80667000  0.38915000  0.46569000  1
  O  O51  1  0.97239000  0.85723000  0.78215000  1
  O  O52  1  0.87414000  0.80613000  0.74736000  1
  O  O53  1  0.88593000  0.90234000  0.68796000  1
  O  O54  1  0.96874000  0.94168000  0.64763000  1
  O  O55  1  0.93198000  0.78814000  0.65070000  1
  O  O56  1  0.31057000  0.71582000  0.35766000  1
  O  O57  1  0.22670000  0.81855000  0.34836000  1
  O  O58  1  0.34562000  0.86526000  0.39559000  1
  O  O59  1  0.46660000  0.74490000  0.35273000  1
  O  O60  1  0.30632000  0.67999000  0.41953000  1
  O  O61  1  0.45178000  0.66847000  0.41741000  1
  O  O62  1  0.36012000  0.54962000  0.42227000  1
  O  O63  1  0.20593000  0.49557000  0.41563000  1
  O  O64  1  0.43459000  0.81988000  0.40974000  1
  O  O65  1  0.44189000  0.85896000  0.34277000  1
  O  O66  1  0.28784000  0.67367000  0.00977000  1
  O  O67  1  0.42119000  0.63712000  0.00032000  1
  O  O68  1  0.32189000  0.52592000  0.00575000  1
  O  O69  1  0.42869000  0.79795000  0.00314000  1
  O  O70  1  0.47683000  0.86327000  0.06664000  1
  O  O71  1  0.33048000  0.73515000  0.06773000  1
  O  O72  1  0.47916000  0.73696000  0.05941000  1
  O  O73  1  0.27461000  0.86341000  0.07733000  1
  O  O74  1  0.36187000  0.86724000  0.02218000  1
  O  O75  1  0.97031000  0.11189000  0.22577000  1
  O  O76  1  0.83908000  0.01897000  0.26242000  1
  O  O77  1  0.85087000  0.82550000  0.26258000  1
  O  O78  1  0.95972000  0.15141000  0.15400000  1
  O  O79  1  0.92992000  0.95924000  0.21513000  1
  O  O80  1  0.91908000  0.93452000  0.29319000  1
  O  O81  1  0.87975000  0.98540000  0.14282000  1
  O  O82  1  0.83572000  0.86053000  0.16288000  1
  O  O83  1  0.78052000  0.92009000  0.22366000  1
  O  O84  1  0.02934000  0.04167000  0.16361000  1
  F  F1  1  0.02206000  0.64377000  0.44991000  1
  F  F2  1  0.07041000  0.44112000  0.97435000  1
  F  F3  1  0.33430000  0.94864000  0.45535000  1
  F  F4  1  0.62668000  0.08180000  0.44805000  1
  F  F5  1  0.98190000  0.33990000  0.49221000  1
  F  F6  1  0.42450000  0.44146000  0.40566000  1
  F  F7  1  0.60978000  0.59795000  0.50960000  1
  F  F8  1  0.86180000  0.57097000  0.98501000  1
  F  F9  1  0.44216000  0.02159000  0.02371000  1
  F  F10  1  0.54746000  0.96739000  0.90324000  1
  F  F11  1  0.52899000  0.57672000  0.01187000  1
  F  F12  1  0.38851000  0.36681000  0.90890000  1
